MODEL 1
REMARK VINA RESULT:      -8.1      0.000      0.000
REMARK  Name = 
REMARK  9 active torsions:
REMARK  status: ('A' for Active; 'I' for Inactive)
REMARK    1  A    between atoms: C_1  and  C_2
REMARK    2  A    between atoms: C_2  and  O_3
REMARK    3  A    between atoms: C_2  and  C_4
REMARK    4  A    between atoms: C_4  and  N_5
REMARK    5  A    between atoms: N_9  and  C_10
REMARK    6  A    between atoms: C_10  and  C_11
REMARK    7  A    between atoms: N_20  and  C_21
REMARK    8  A    between atoms: C_21  and  C_22
REMARK    9  A    between atoms: C_21  and  C_23
REMARK                            x       y       z     vdW  Elec       q    Type
REMARK                         _______ _______ _______ _____ _____    ______ ____
ROOT
ATOM      1  N   UNL     1       2.145   7.966  18.952  0.00  0.00    +0.000 N 
ATOM      2  C   UNL     1       2.758   6.810  18.485  0.00  0.00    +0.000 A 
ATOM      3  N   UNL     1       3.686   6.933  17.516  0.00  0.00    +0.000 NA
ATOM      4  C   UNL     1       4.425   5.868  17.129  0.00  0.00    +0.000 A 
ATOM      5  N   UNL     1       5.446   6.123  16.225  0.00  0.00    +0.000 N 
ATOM      6  C   UNL     1       4.110   4.621  17.692  0.00  0.00    +0.000 A 
ATOM      7  N   UNL     1       4.613   3.352  17.482  0.00  0.00    +0.000 NA
ATOM      8  C   UNL     1       3.904   2.576  18.270  0.00  0.00    +0.000 A 
ATOM      9  N   UNL     1       2.968   3.284  18.979  0.00  0.00    +0.000 N 
ATOM     10  C   UNL     1       3.087   4.603  18.626  0.00  0.00    +0.000 A 
ATOM     11  N   UNL     1       2.385   5.658  19.072  0.00  0.00    +0.000 NA
ATOM     12  H   UNL     1       1.296   7.726  19.451  0.00  0.00    +0.000 HD
ATOM     13  H   UNL     1       5.076   6.487  15.353  0.00  0.00    +0.000 HD
ENDROOT
BRANCH   9  14
ATOM     14  C   UNL     1       2.027   2.689  19.921  0.00  0.00    +0.000 C 
ATOM     15  C   UNL     1       2.289   3.125  21.358  0.00  0.00    +0.000 C 
ATOM     16  C   UNL     1       0.578   2.915  19.502  0.00  0.00    +0.000 C 
ENDBRANCH   9  14
BRANCH   1  17
ATOM     17  C   UNL     1       2.028   9.039  17.974  0.00  0.00    +0.000 C 
BRANCH  17  19
ATOM     18  C   UNL     1       0.500   9.828  19.826  0.00  0.00    +0.000 C 
ATOM     19  C   UNL     1       0.882   9.993  18.359  0.00  0.00    +0.000 C 
BRANCH  19  20
ATOM     20  O   UNL     1       1.267  11.356  18.135  0.00  0.00    +0.000 OA
ATOM     21  H   UNL     1       2.180  11.354  17.798  0.00  0.00    +0.000 HD
ENDBRANCH  19  20
ENDBRANCH  17  19
ENDBRANCH   1  17
BRANCH   5  22
ATOM     22  C   UNL     1       6.503   5.141  16.092  0.00  0.00    +0.000 C 
BRANCH  22  23
ATOM     23  C   UNL     1       6.628   4.771  14.634  0.00  0.00    +0.000 A 
ATOM     24  C   UNL     1       7.616   5.373  13.837  0.00  0.00    +0.000 A 
ATOM     25  C   UNL     1       7.754   5.034  12.493  0.00  0.00    +0.000 A 
ATOM     26  C   UNL     1       6.906   4.083  11.932  0.00  0.00    +0.000 A 
ATOM     27  C   UNL     1       5.925   3.473  12.715  0.00  0.00    +0.000 A 
ATOM     28  C   UNL     1       5.787   3.808  14.062  0.00  0.00    +0.000 A 
ENDBRANCH  22  23
ENDBRANCH   5  22
TORSDOF 6
ENDMDL
MODEL 2
REMARK VINA RESULT:      -7.9      0.445      1.280
REMARK  Name = 
REMARK  9 active torsions:
REMARK  status: ('A' for Active; 'I' for Inactive)
REMARK    1  A    between atoms: C_1  and  C_2
REMARK    2  A    between atoms: C_2  and  O_3
REMARK    3  A    between atoms: C_2  and  C_4
REMARK    4  A    between atoms: C_4  and  N_5
REMARK    5  A    between atoms: N_9  and  C_10
REMARK    6  A    between atoms: C_10  and  C_11
REMARK    7  A    between atoms: N_20  and  C_21
REMARK    8  A    between atoms: C_21  and  C_22
REMARK    9  A    between atoms: C_21  and  C_23
REMARK                            x       y       z     vdW  Elec       q    Type
REMARK                         _______ _______ _______ _____ _____    ______ ____
ROOT
ATOM      1  N   UNL     1       2.232   8.339  18.752  0.00  0.00    +0.000 N 
ATOM      2  C   UNL     1       2.807   7.153  18.315  0.00  0.00    +0.000 A 
ATOM      3  N   UNL     1       3.789   7.227  17.395  0.00  0.00    +0.000 NA
ATOM      4  C   UNL     1       4.491   6.125  17.045  0.00  0.00    +0.000 A 
ATOM      5  N   UNL     1       5.569   6.326  16.196  0.00  0.00    +0.000 N 
ATOM      6  C   UNL     1       4.083   4.896  17.589  0.00  0.00    +0.000 A 
ATOM      7  N   UNL     1       4.530   3.603  17.403  0.00  0.00    +0.000 NA
ATOM      8  C   UNL     1       3.741   2.865  18.152  0.00  0.00    +0.000 A 
ATOM      9  N   UNL     1       2.809   3.621  18.813  0.00  0.00    +0.000 N 
ATOM     10  C   UNL     1       3.014   4.932  18.469  0.00  0.00    +0.000 A 
ATOM     11  N   UNL     1       2.345   6.023  18.880  0.00  0.00    +0.000 NA
ATOM     12  H   UNL     1       1.347   8.145  19.206  0.00  0.00    +0.000 HD
ATOM     13  H   UNL     1       5.264   6.708  15.307  0.00  0.00    +0.000 HD
ENDROOT
BRANCH   9  14
ATOM     14  C   UNL     1       1.791   3.076  19.704  0.00  0.00    +0.000 C 
ATOM     15  C   UNL     1       0.912   2.038  19.017  0.00  0.00    +0.000 C 
ATOM     16  C   UNL     1       2.391   2.557  21.007  0.00  0.00    +0.000 C 
ENDBRANCH   9  14
BRANCH   1  17
ATOM     17  C   UNL     1       2.221   9.417  17.772  0.00  0.00    +0.000 C 
BRANCH  17  19
ATOM     18  C   UNL     1       0.848  10.363  19.670  0.00  0.00    +0.000 C 
ATOM     19  C   UNL     1       1.254  10.532  18.210  0.00  0.00    +0.000 C 
BRANCH  19  20
ATOM     20  O   UNL     1       1.865  11.819  18.048  0.00  0.00    +0.000 OA
ATOM     21  H   UNL     1       2.467  11.956  18.799  0.00  0.00    +0.000 HD
ENDBRANCH  19  20
ENDBRANCH  17  19
ENDBRANCH   1  17
BRANCH   5  22
ATOM     22  C   UNL     1       6.579   5.291  16.115  0.00  0.00    +0.000 C 
BRANCH  22  23
ATOM     23  C   UNL     1       6.710   4.864  14.674  0.00  0.00    +0.000 A 
ATOM     24  C   UNL     1       5.851   3.881  14.150  0.00  0.00    +0.000 A 
ATOM     25  C   UNL     1       5.951   3.483  12.818  0.00  0.00    +0.000 A 
ATOM     26  C   UNL     1       6.906   4.070  11.994  0.00  0.00    +0.000 A 
ATOM     27  C   UNL     1       7.761   5.051  12.500  0.00  0.00    +0.000 A 
ATOM     28  C   UNL     1       7.661   5.453  13.832  0.00  0.00    +0.000 A 
ENDBRANCH  22  23
ENDBRANCH   5  22
TORSDOF 6
ENDMDL
MODEL 3
REMARK VINA RESULT:      -7.8      0.677      1.071
REMARK  Name = 
REMARK  9 active torsions:
REMARK  status: ('A' for Active; 'I' for Inactive)
REMARK    1  A    between atoms: C_1  and  C_2
REMARK    2  A    between atoms: C_2  and  O_3
REMARK    3  A    between atoms: C_2  and  C_4
REMARK    4  A    between atoms: C_4  and  N_5
REMARK    5  A    between atoms: N_9  and  C_10
REMARK    6  A    between atoms: C_10  and  C_11
REMARK    7  A    between atoms: N_20  and  C_21
REMARK    8  A    between atoms: C_21  and  C_22
REMARK    9  A    between atoms: C_21  and  C_23
REMARK                            x       y       z     vdW  Elec       q    Type
REMARK                         _______ _______ _______ _____ _____    ______ ____
ROOT
ATOM      1  N   UNL     1       2.118   8.357  18.851  0.00  0.00    +0.000 N 
ATOM      2  C   UNL     1       2.739   7.189  18.429  0.00  0.00    +0.000 A 
ATOM      3  N   UNL     1       3.686   7.284  17.476  0.00  0.00    +0.000 NA
ATOM      4  C   UNL     1       4.432   6.209  17.134  0.00  0.00    +0.000 A 
ATOM      5  N   UNL     1       5.472   6.438  16.244  0.00  0.00    +0.000 N 
ATOM      6  C   UNL     1       4.106   4.978  17.726  0.00  0.00    +0.000 A 
ATOM      7  N   UNL     1       4.612   3.704  17.562  0.00  0.00    +0.000 NA
ATOM      8  C   UNL     1       3.887   2.951  18.357  0.00  0.00    +0.000 A 
ATOM      9  N   UNL     1       2.938   3.678  19.027  0.00  0.00    +0.000 N 
ATOM     10  C   UNL     1       3.064   4.987  18.639  0.00  0.00    +0.000 A 
ATOM     11  N   UNL     1       2.354   6.054  19.041  0.00  0.00    +0.000 NA
ATOM     12  H   UNL     1       1.259   8.132  19.339  0.00  0.00    +0.000 HD
ATOM     13  H   UNL     1       5.119   6.778  15.355  0.00  0.00    +0.000 HD
ENDROOT
BRANCH   9  14
ATOM     14  C   UNL     1       1.978   3.110  19.966  0.00  0.00    +0.000 C 
ATOM     15  C   UNL     1       1.032   2.116  19.301  0.00  0.00    +0.000 C 
ATOM     16  C   UNL     1       2.662   2.524  21.198  0.00  0.00    +0.000 C 
ENDBRANCH   9  14
BRANCH   1  17
ATOM     17  C   UNL     1       2.021   9.403  17.841  0.00  0.00    +0.000 C 
BRANCH  17  19
ATOM     18  C   UNL     1       2.051  11.909  18.159  0.00  0.00    +0.000 C 
ATOM     19  C   UNL     1       1.267  10.623  18.402  0.00  0.00    +0.000 C 
BRANCH  19  20
ATOM     20  O   UNL     1      -0.020  10.745  17.783  0.00  0.00    +0.000 OA
ATOM     21  H   UNL     1      -0.094  10.044  17.113  0.00  0.00    +0.000 HD
ENDBRANCH  19  20
ENDBRANCH  17  19
ENDBRANCH   1  17
BRANCH   5  22
ATOM     22  C   UNL     1       6.530   5.453  16.160  0.00  0.00    +0.000 C 
BRANCH  22  23
ATOM     23  C   UNL     1       6.608   4.958  14.736  0.00  0.00    +0.000 A 
ATOM     24  C   UNL     1       7.653   5.384  13.899  0.00  0.00    +0.000 A 
ATOM     25  C   UNL     1       7.747   4.928  12.586  0.00  0.00    +0.000 A 
ATOM     26  C   UNL     1       6.799   4.033  12.098  0.00  0.00    +0.000 A 
ATOM     27  C   UNL     1       5.759   3.598  12.921  0.00  0.00    +0.000 A 
ATOM     28  C   UNL     1       5.665   4.051  14.238  0.00  0.00    +0.000 A 
ENDBRANCH  22  23
ENDBRANCH   5  22
TORSDOF 6
ENDMDL
MODEL 4
REMARK VINA RESULT:      -7.2      3.045      6.857
REMARK  Name = 
REMARK  9 active torsions:
REMARK  status: ('A' for Active; 'I' for Inactive)
REMARK    1  A    between atoms: C_1  and  C_2
REMARK    2  A    between atoms: C_2  and  O_3
REMARK    3  A    between atoms: C_2  and  C_4
REMARK    4  A    between atoms: C_4  and  N_5
REMARK    5  A    between atoms: N_9  and  C_10
REMARK    6  A    between atoms: C_10  and  C_11
REMARK    7  A    between atoms: N_20  and  C_21
REMARK    8  A    between atoms: C_21  and  C_22
REMARK    9  A    between atoms: C_21  and  C_23
REMARK                            x       y       z     vdW  Elec       q    Type
REMARK                         _______ _______ _______ _____ _____    ______ ____
ROOT
ATOM      1  N   UNL     1       7.848   8.163  17.426  0.00  0.00    +0.000 N 
ATOM      2  C   UNL     1       7.356   6.885  17.197  0.00  0.00    +0.000 A 
ATOM      3  N   UNL     1       6.948   6.165  18.261  0.00  0.00    +0.000 NA
ATOM      4  C   UNL     1       6.320   4.979  18.091  0.00  0.00    +0.000 A 
ATOM      5  N   UNL     1       5.816   4.379  19.236  0.00  0.00    +0.000 N 
ATOM      6  C   UNL     1       6.213   4.483  16.781  0.00  0.00    +0.000 A 
ATOM      7  N   UNL     1       5.698   3.308  16.271  0.00  0.00    +0.000 NA
ATOM      8  C   UNL     1       5.908   3.384  14.977  0.00  0.00    +0.000 A 
ATOM      9  N   UNL     1       6.533   4.553  14.627  0.00  0.00    +0.000 N 
ATOM     10  C   UNL     1       6.735   5.277  15.773  0.00  0.00    +0.000 A 
ATOM     11  N   UNL     1       7.304   6.486  15.913  0.00  0.00    +0.000 NA
ATOM     12  H   UNL     1       8.370   8.480  16.617  0.00  0.00    +0.000 HD
ATOM     13  H   UNL     1       6.561   4.164  19.890  0.00  0.00    +0.000 HD
ENDROOT
BRANCH   9  14
ATOM     14  C   UNL     1       6.907   4.909  13.264  0.00  0.00    +0.000 C 
ATOM     15  C   UNL     1       8.339   5.425  13.170  0.00  0.00    +0.000 C 
ATOM     16  C   UNL     1       6.634   3.775  12.281  0.00  0.00    +0.000 C 
ENDBRANCH   9  14
BRANCH   1  17
ATOM     17  C   UNL     1       8.497   8.353  18.716  0.00  0.00    +0.000 C 
BRANCH  17  19
ATOM     18  C   UNL     1       8.428  10.762  17.957  0.00  0.00    +0.000 C 
ATOM     19  C   UNL     1       9.194   9.725  18.771  0.00  0.00    +0.000 C 
BRANCH  19  20
ATOM     20  O   UNL     1       9.292  10.184  20.125  0.00  0.00    +0.000 OA
ATOM     21  H   UNL     1       9.002  11.112  20.144  0.00  0.00    +0.000 HD
ENDBRANCH  19  20
ENDBRANCH  17  19
ENDBRANCH   1  17
BRANCH   5  22
ATOM     22  C   UNL     1       4.805   3.353  19.083  0.00  0.00    +0.000 C 
BRANCH  22  23
ATOM     23  C   UNL     1       3.493   3.897  19.593  0.00  0.00    +0.000 A 
ATOM     24  C   UNL     1       2.445   3.018  19.915  0.00  0.00    +0.000 A 
ATOM     25  C   UNL     1       1.230   3.502  20.398  0.00  0.00    +0.000 A 
ATOM     26  C   UNL     1       1.054   4.872  20.570  0.00  0.00    +0.000 A 
ATOM     27  C   UNL     1       2.090   5.755  20.259  0.00  0.00    +0.000 A 
ATOM     28  C   UNL     1       3.308   5.273  19.778  0.00  0.00    +0.000 A 
ENDBRANCH  22  23
ENDBRANCH   5  22
TORSDOF 6
ENDMDL
MODEL 5
REMARK VINA RESULT:      -7.1      2.854      3.640
REMARK  Name = 
REMARK  9 active torsions:
REMARK  status: ('A' for Active; 'I' for Inactive)
REMARK    1  A    between atoms: C_1  and  C_2
REMARK    2  A    between atoms: C_2  and  O_3
REMARK    3  A    between atoms: C_2  and  C_4
REMARK    4  A    between atoms: C_4  and  N_5
REMARK    5  A    between atoms: N_9  and  C_10
REMARK    6  A    between atoms: C_10  and  C_11
REMARK    7  A    between atoms: N_20  and  C_21
REMARK    8  A    between atoms: C_21  and  C_22
REMARK    9  A    between atoms: C_21  and  C_23
REMARK                            x       y       z     vdW  Elec       q    Type
REMARK                         _______ _______ _______ _____ _____    ______ ____
ROOT
ATOM      1  N   UNL     1       1.281   8.155  21.356  0.00  0.00    +0.000 N 
ATOM      2  C   UNL     1       1.701   7.301  20.346  0.00  0.00    +0.000 A 
ATOM      3  N   UNL     1       2.367   7.834  19.303  0.00  0.00    +0.000 NA
ATOM      4  C   UNL     1       2.934   7.039  18.367  0.00  0.00    +0.000 A 
ATOM      5  N   UNL     1       3.713   7.674  17.410  0.00  0.00    +0.000 N 
ATOM      6  C   UNL     1       2.707   5.657  18.466  0.00  0.00    +0.000 A 
ATOM      7  N   UNL     1       3.079   4.594  17.666  0.00  0.00    +0.000 NA
ATOM      8  C   UNL     1       2.549   3.540  18.243  0.00  0.00    +0.000 A 
ATOM      9  N   UNL     1       1.853   3.872  19.376  0.00  0.00    +0.000 N 
ATOM     10  C   UNL     1       1.946   5.229  19.541  0.00  0.00    +0.000 A 
ATOM     11  N   UNL     1       1.428   5.994  20.517  0.00  0.00    +0.000 NA
ATOM     12  H   UNL     1       0.570   7.700  21.917  0.00  0.00    +0.000 HD
ATOM     13  H   UNL     1       3.158   8.326  16.865  0.00  0.00    +0.000 HD
ENDROOT
BRANCH   9  14
ATOM     14  C   UNL     1       1.145   2.913  20.217  0.00  0.00    +0.000 C 
ATOM     15  C   UNL     1       0.804   1.627  19.472  0.00  0.00    +0.000 C 
ATOM     16  C   UNL     1       1.882   2.646  21.526  0.00  0.00    +0.000 C 
ENDBRANCH   9  14
BRANCH   1  17
ATOM     17  C   UNL     1       0.979   9.515  20.929  0.00  0.00    +0.000 C 
BRANCH  17  19
ATOM     18  C   UNL     1      -0.006   9.494  23.256  0.00  0.00    +0.000 C 
ATOM     19  C   UNL     1      -0.034  10.168  21.887  0.00  0.00    +0.000 C 
BRANCH  19  20
ATOM     20  O   UNL     1       0.260  11.561  22.055  0.00  0.00    +0.000 OA
ATOM     21  H   UNL     1       1.170  11.633  22.390  0.00  0.00    +0.000 HD
ENDBRANCH  19  20
ENDBRANCH  17  19
ENDBRANCH   1  17
BRANCH   5  22
ATOM     22  C   UNL     1       4.654   6.874  16.653  0.00  0.00    +0.000 C 
BRANCH  22  23
ATOM     23  C   UNL     1       5.960   6.833  17.409  0.00  0.00    +0.000 A 
ATOM     24  C   UNL     1       6.307   5.693  18.154  0.00  0.00    +0.000 A 
ATOM     25  C   UNL     1       7.514   5.634  18.848  0.00  0.00    +0.000 A 
ATOM     26  C   UNL     1       8.390   6.714  18.799  0.00  0.00    +0.000 A 
ATOM     27  C   UNL     1       8.060   7.850  18.058  0.00  0.00    +0.000 A 
ATOM     28  C   UNL     1       6.854   7.911  17.360  0.00  0.00    +0.000 A 
ENDBRANCH  22  23
ENDBRANCH   5  22
TORSDOF 6
ENDMDL
MODEL 6
REMARK VINA RESULT:      -7.1      2.438      6.776
REMARK  Name = 
REMARK  9 active torsions:
REMARK  status: ('A' for Active; 'I' for Inactive)
REMARK    1  A    between atoms: C_1  and  C_2
REMARK    2  A    between atoms: C_2  and  O_3
REMARK    3  A    between atoms: C_2  and  C_4
REMARK    4  A    between atoms: C_4  and  N_5
REMARK    5  A    between atoms: N_9  and  C_10
REMARK    6  A    between atoms: C_10  and  C_11
REMARK    7  A    between atoms: N_20  and  C_21
REMARK    8  A    between atoms: C_21  and  C_22
REMARK    9  A    between atoms: C_21  and  C_23
REMARK                            x       y       z     vdW  Elec       q    Type
REMARK                         _______ _______ _______ _____ _____    ______ ____
ROOT
ATOM      1  N   UNL     1       4.847   4.592  16.134  0.00  0.00    +0.000 N 
ATOM      2  C   UNL     1       4.107   5.103  17.192  0.00  0.00    +0.000 A 
ATOM      3  N   UNL     1       3.872   6.429  17.218  0.00  0.00    +0.000 NA
ATOM      4  C   UNL     1       3.032   6.964  18.134  0.00  0.00    +0.000 A 
ATOM      5  N   UNL     1       2.747   8.314  17.994  0.00  0.00    +0.000 N 
ATOM      6  C   UNL     1       2.511   6.105  19.116  0.00  0.00    +0.000 A 
ATOM      7  N   UNL     1       1.693   6.327  20.206  0.00  0.00    +0.000 NA
ATOM      8  C   UNL     1       1.573   5.151  20.779  0.00  0.00    +0.000 A 
ATOM      9  N   UNL     1       2.273   4.181  20.110  0.00  0.00    +0.000 N 
ATOM     10  C   UNL     1       2.881   4.773  19.033  0.00  0.00    +0.000 A 
ATOM     11  N   UNL     1       3.660   4.209  18.094  0.00  0.00    +0.000 NA
ATOM     12  H   UNL     1       5.188   3.667  16.369  0.00  0.00    +0.000 HD
ATOM     13  H   UNL     1       3.588   8.873  18.085  0.00  0.00    +0.000 HD
ENDROOT
BRANCH   9  14
ATOM     14  C   UNL     1       2.338   2.783  20.520  0.00  0.00    +0.000 C 
ATOM     15  C   UNL     1       1.727   2.552  21.897  0.00  0.00    +0.000 C 
ATOM     16  C   UNL     1       1.755   1.849  19.463  0.00  0.00    +0.000 C 
ENDBRANCH   9  14
BRANCH   1  17
ATOM     17  C   UNL     1       5.828   5.509  15.569  0.00  0.00    +0.000 C 
BRANCH  17  19
ATOM     18  C   UNL     1       6.298   3.953  13.633  0.00  0.00    +0.000 C 
ATOM     19  C   UNL     1       6.908   4.730  14.796  0.00  0.00    +0.000 C 
BRANCH  19  20
ATOM     20  O   UNL     1       7.900   5.626  14.279  0.00  0.00    +0.000 OA
ATOM     21  H   UNL     1       8.607   5.089  13.883  0.00  0.00    +0.000 HD
ENDBRANCH  19  20
ENDBRANCH  17  19
ENDBRANCH   1  17
BRANCH   5  22
ATOM     22  C   UNL     1       1.574   8.839  18.663  0.00  0.00    +0.000 C 
BRANCH  22  23
ATOM     23  C   UNL     1       1.648  10.346  18.643  0.00  0.00    +0.000 A 
ATOM     24  C   UNL     1       0.782  11.104  19.450  0.00  0.00    +0.000 A 
ATOM     25  C   UNL     1       0.845  12.496  19.453  0.00  0.00    +0.000 A 
ATOM     26  C   UNL     1       1.780  13.145  18.651  0.00  0.00    +0.000 A 
ATOM     27  C   UNL     1       2.649  12.404  17.850  0.00  0.00    +0.000 A 
ATOM     28  C   UNL     1       2.591  11.010  17.847  0.00  0.00    +0.000 A 
ENDBRANCH  22  23
ENDBRANCH   5  22
TORSDOF 6
ENDMDL
MODEL 7
REMARK VINA RESULT:      -7.1      2.145      7.348
REMARK  Name = 
REMARK  9 active torsions:
REMARK  status: ('A' for Active; 'I' for Inactive)
REMARK    1  A    between atoms: C_1  and  C_2
REMARK    2  A    between atoms: C_2  and  O_3
REMARK    3  A    between atoms: C_2  and  C_4
REMARK    4  A    between atoms: C_4  and  N_5
REMARK    5  A    between atoms: N_9  and  C_10
REMARK    6  A    between atoms: C_10  and  C_11
REMARK    7  A    between atoms: N_20  and  C_21
REMARK    8  A    between atoms: C_21  and  C_22
REMARK    9  A    between atoms: C_21  and  C_23
REMARK                            x       y       z     vdW  Elec       q    Type
REMARK                         _______ _______ _______ _____ _____    ______ ____
ROOT
ATOM      1  N   UNL     1       3.162   2.523  19.089  0.00  0.00    +0.000 N 
ATOM      2  C   UNL     1       3.385   3.784  18.552  0.00  0.00    +0.000 A 
ATOM      3  N   UNL     1       2.440   4.727  18.736  0.00  0.00    +0.000 NA
ATOM      4  C   UNL     1       2.665   6.010  18.373  0.00  0.00    +0.000 A 
ATOM      5  N   UNL     1       1.690   6.931  18.728  0.00  0.00    +0.000 N 
ATOM      6  C   UNL     1       3.866   6.293  17.701  0.00  0.00    +0.000 A 
ATOM      7  N   UNL     1       4.373   7.455  17.153  0.00  0.00    +0.000 NA
ATOM      8  C   UNL     1       5.523   7.101  16.625  0.00  0.00    +0.000 A 
ATOM      9  N   UNL     1       5.782   5.768  16.807  0.00  0.00    +0.000 N 
ATOM     10  C   UNL     1       4.730   5.229  17.502  0.00  0.00    +0.000 A 
ATOM     11  N   UNL     1       4.555   3.961  17.912  0.00  0.00    +0.000 NA
ATOM     12  H   UNL     1       3.782   1.850  18.654  0.00  0.00    +0.000 HD
ATOM     13  H   UNL     1       0.804   6.709  18.285  0.00  0.00    +0.000 HD
ENDROOT
BRANCH   9  14
ATOM     14  C   UNL     1       6.976   5.087  16.318  0.00  0.00    +0.000 C 
ATOM     15  C   UNL     1       7.778   4.441  17.441  0.00  0.00    +0.000 C 
ATOM     16  C   UNL     1       6.654   4.105  15.196  0.00  0.00    +0.000 C 
ENDBRANCH   9  14
BRANCH   1  17
ATOM     17  C   UNL     1       1.761   2.131  19.180  0.00  0.00    +0.000 C 
BRANCH  17  19
ATOM     18  C   UNL     1       2.314   2.588  21.603  0.00  0.00    +0.000 C 
ATOM     19  C   UNL     1       1.197   2.475  20.571  0.00  0.00    +0.000 C 
BRANCH  19  20
ATOM     20  O   UNL     1       0.482   3.717  20.529  0.00  0.00    +0.000 OA
ATOM     21  H   UNL     1       0.632   4.115  19.655  0.00  0.00    +0.000 HD
ENDBRANCH  19  20
ENDBRANCH  17  19
ENDBRANCH   1  17
BRANCH   5  22
ATOM     22  C   UNL     1       2.046   8.335  18.739  0.00  0.00    +0.000 C 
BRANCH  22  23
ATOM     23  C   UNL     1       1.249   9.020  19.823  0.00  0.00    +0.000 A 
ATOM     24  C   UNL     1       1.167   8.448  21.104  0.00  0.00    +0.000 A 
ATOM     25  C   UNL     1       0.445   9.073  22.119  0.00  0.00    +0.000 A 
ATOM     26  C   UNL     1      -0.197  10.281  21.864  0.00  0.00    +0.000 A 
ATOM     27  C   UNL     1      -0.118  10.862  20.598  0.00  0.00    +0.000 A 
ATOM     28  C   UNL     1       0.607  10.240  19.580  0.00  0.00    +0.000 A 
ENDBRANCH  22  23
ENDBRANCH   5  22
TORSDOF 6
ENDMDL
MODEL 8
REMARK VINA RESULT:      -7.0      2.696      6.701
REMARK  Name = 
REMARK  9 active torsions:
REMARK  status: ('A' for Active; 'I' for Inactive)
REMARK    1  A    between atoms: C_1  and  C_2
REMARK    2  A    between atoms: C_2  and  O_3
REMARK    3  A    between atoms: C_2  and  C_4
REMARK    4  A    between atoms: C_4  and  N_5
REMARK    5  A    between atoms: N_9  and  C_10
REMARK    6  A    between atoms: C_10  and  C_11
REMARK    7  A    between atoms: N_20  and  C_21
REMARK    8  A    between atoms: C_21  and  C_22
REMARK    9  A    between atoms: C_21  and  C_23
REMARK                            x       y       z     vdW  Elec       q    Type
REMARK                         _______ _______ _______ _____ _____    ______ ____
ROOT
ATOM      1  N   UNL     1       5.021   4.954  16.255  0.00  0.00    +0.000 N 
ATOM      2  C   UNL     1       4.207   5.399  17.289  0.00  0.00    +0.000 A 
ATOM      3  N   UNL     1       3.909   6.712  17.339  0.00  0.00    +0.000 NA
ATOM      4  C   UNL     1       3.002   7.180  18.227  0.00  0.00    +0.000 A 
ATOM      5  N   UNL     1       2.659   8.520  18.110  0.00  0.00    +0.000 N 
ATOM      6  C   UNL     1       2.475   6.270  19.158  0.00  0.00    +0.000 A 
ATOM      7  N   UNL     1       1.596   6.421  20.212  0.00  0.00    +0.000 NA
ATOM      8  C   UNL     1       1.505   5.225  20.746  0.00  0.00    +0.000 A 
ATOM      9  N   UNL     1       2.281   4.308  20.086  0.00  0.00    +0.000 N 
ATOM     10  C   UNL     1       2.911   4.959  19.057  0.00  0.00    +0.000 A 
ATOM     11  N   UNL     1       3.761   4.460  18.143  0.00  0.00    +0.000 NA
ATOM     12  H   UNL     1       5.395   4.040  16.482  0.00  0.00    +0.000 HD
ATOM     13  H   UNL     1       3.469   9.114  18.258  0.00  0.00    +0.000 HD
ENDROOT
BRANCH   9  14
ATOM     14  C   UNL     1       2.393   2.903  20.461  0.00  0.00    +0.000 C 
ATOM     15  C   UNL     1       1.825   2.625  21.848  0.00  0.00    +0.000 C 
ATOM     16  C   UNL     1       1.805   1.980  19.398  0.00  0.00    +0.000 C 
ENDBRANCH   9  14
BRANCH   1  17
ATOM     17  C   UNL     1       5.983   5.931  15.764  0.00  0.00    +0.000 C 
BRANCH  17  19
ATOM     18  C   UNL     1       7.477   6.667  17.665  0.00  0.00    +0.000 C 
ATOM     19  C   UNL     1       7.344   5.742  16.460  0.00  0.00    +0.000 C 
BRANCH  19  20
ATOM     20  O   UNL     1       7.497   4.386  16.902  0.00  0.00    +0.000 OA
ATOM     21  H   UNL     1       7.052   3.813  16.255  0.00  0.00    +0.000 HD
ENDBRANCH  19  20
ENDBRANCH  17  19
ENDBRANCH   1  17
BRANCH   5  22
ATOM     22  C   UNL     1       1.433   8.970  18.734  0.00  0.00    +0.000 C 
BRANCH  22  23
ATOM     23  C   UNL     1       1.367  10.473  18.625  0.00  0.00    +0.000 A 
ATOM     24  C   UNL     1       0.224  11.161  19.069  0.00  0.00    +0.000 A 
ATOM     25  C   UNL     1       0.150  12.550  18.987  0.00  0.00    +0.000 A 
ATOM     26  C   UNL     1       1.224  13.267  18.466  0.00  0.00    +0.000 A 
ATOM     27  C   UNL     1       2.366  12.597  18.028  0.00  0.00    +0.000 A 
ATOM     28  C   UNL     1       2.444  11.206  18.111  0.00  0.00    +0.000 A 
ENDBRANCH  22  23
ENDBRANCH   5  22
TORSDOF 6
ENDMDL
MODEL 9
REMARK VINA RESULT:      -7.0      2.008      7.218
REMARK  Name = 
REMARK  9 active torsions:
REMARK  status: ('A' for Active; 'I' for Inactive)
REMARK    1  A    between atoms: C_1  and  C_2
REMARK    2  A    between atoms: C_2  and  O_3
REMARK    3  A    between atoms: C_2  and  C_4
REMARK    4  A    between atoms: C_4  and  N_5
REMARK    5  A    between atoms: N_9  and  C_10
REMARK    6  A    between atoms: C_10  and  C_11
REMARK    7  A    between atoms: N_20  and  C_21
REMARK    8  A    between atoms: C_21  and  C_22
REMARK    9  A    between atoms: C_21  and  C_23
REMARK                            x       y       z     vdW  Elec       q    Type
REMARK                         _______ _______ _______ _____ _____    ______ ____
ROOT
ATOM      1  N   UNL     1       2.960   2.245  18.936  0.00  0.00    +0.000 N 
ATOM      2  C   UNL     1       3.203   3.467  18.323  0.00  0.00    +0.000 A 
ATOM      3  N   UNL     1       2.415   4.508  18.655  0.00  0.00    +0.000 NA
ATOM      4  C   UNL     1       2.696   5.755  18.211  0.00  0.00    +0.000 A 
ATOM      5  N   UNL     1       1.910   6.781  18.716  0.00  0.00    +0.000 N 
ATOM      6  C   UNL     1       3.763   5.897  17.309  0.00  0.00    +0.000 A 
ATOM      7  N   UNL     1       4.270   6.990  16.633  0.00  0.00    +0.000 NA
ATOM      8  C   UNL     1       5.251   6.507  15.904  0.00  0.00    +0.000 A 
ATOM      9  N   UNL     1       5.402   5.156  16.079  0.00  0.00    +0.000 N 
ATOM     10  C   UNL     1       4.457   4.744  16.983  0.00  0.00    +0.000 A 
ATOM     11  N   UNL     1       4.236   3.508  17.462  0.00  0.00    +0.000 NA
ATOM     12  H   UNL     1       3.410   1.503  18.412  0.00  0.00    +0.000 HD
ATOM     13  H   UNL     1       0.937   6.649  18.462  0.00  0.00    +0.000 HD
ENDROOT
BRANCH   9  14
ATOM     14  C   UNL     1       6.398   4.344  15.391  0.00  0.00    +0.000 C 
ATOM     15  C   UNL     1       5.892   3.811  14.055  0.00  0.00    +0.000 C 
ATOM     16  C   UNL     1       7.733   5.071  15.256  0.00  0.00    +0.000 C 
ENDBRANCH   9  14
BRANCH   1  17
ATOM     17  C   UNL     1       1.573   2.008  19.311  0.00  0.00    +0.000 C 
BRANCH  17  19
ATOM     18  C   UNL     1       2.619   2.579  21.540  0.00  0.00    +0.000 C 
ATOM     19  C   UNL     1       1.316   2.489  20.751  0.00  0.00    +0.000 C 
BRANCH  19  20
ATOM     20  O   UNL     1       0.692   3.780  20.745  0.00  0.00    +0.000 OA
ATOM     21  H   UNL     1      -0.203   3.677  21.113  0.00  0.00    +0.000 HD
ENDBRANCH  19  20
ENDBRANCH  17  19
ENDBRANCH   1  17
BRANCH   5  22
ATOM     22  C   UNL     1       2.405   8.138  18.610  0.00  0.00    +0.000 C 
BRANCH  22  23
ATOM     23  C   UNL     1       1.325   9.077  19.088  0.00  0.00    +0.000 A 
ATOM     24  C   UNL     1       1.002   9.141  20.455  0.00  0.00    +0.000 A 
ATOM     25  C   UNL     1       0.016  10.011  20.915  0.00  0.00    +0.000 A 
ATOM     26  C   UNL     1      -0.654  10.833  20.013  0.00  0.00    +0.000 A 
ATOM     27  C   UNL     1      -0.338  10.783  18.654  0.00  0.00    +0.000 A 
ATOM     28  C   UNL     1       0.651   9.915  18.191  0.00  0.00    +0.000 A 
ENDBRANCH  22  23
ENDBRANCH   5  22
TORSDOF 6
ENDMDL
