MODEL 1
REMARK VINA RESULT:      -8.4      0.000      0.000
REMARK  Name = 
REMARK  10 active torsions:
REMARK  status: ('A' for Active; 'I' for Inactive)
REMARK    1  A    between atoms: N_1  and  C_2
REMARK    2  A    between atoms: N_9  and  C_10
REMARK    3  A    between atoms: C_12  and  C_13
REMARK    4  A    between atoms: C_13  and  O_14
REMARK    5  A    between atoms: O_14  and  S_15
REMARK    6  A    between atoms: S_15  and  N_18
REMARK    7  A    between atoms: C_19  and  C_21
REMARK    8  A    between atoms: C_26  and  O_27
REMARK    9  A    between atoms: C_28  and  O_29
REMARK   10  A    between atoms: C_30  and  O_31
REMARK                            x       y       z     vdW  Elec       q    Type
REMARK                         _______ _______ _______ _____ _____    ______ ____
ROOT
ATOM      1  C   UNL     1       2.148   6.127  19.207  0.00  0.00    +0.000 C 
ATOM      2  C   UNL     1       3.456   5.737  19.944  0.00  0.00    +0.000 C 
ATOM      3  C   UNL     1       4.023   4.506  19.221  0.00  0.00    +0.000 C 
ATOM      4  C   UNL     1       3.409   4.571  17.826  0.00  0.00    +0.000 C 
ATOM      5  C   UNL     1       1.995   5.112  18.058  0.00  0.00    +0.000 C 
ENDROOT
BRANCH   1  13
ATOM      6  C   UNL     1       1.037   8.807  20.685  0.00  0.00    +0.000 A 
ATOM      7  N   UNL     1       0.695  10.070  20.994  0.00  0.00    +0.000 NA
ATOM      8  C   UNL     1       0.879  11.037  20.072  0.00  0.00    +0.000 A 
ATOM      9  N   UNL     1       1.373  10.911  18.841  0.00  0.00    +0.000 NA
ATOM     10  C   UNL     1       1.720   9.647  18.552  0.00  0.00    +0.000 A 
ATOM     11  N   UNL     1       2.245   9.245  17.358  0.00  0.00    +0.000 NA
ATOM     12  C   UNL     1       2.439   7.953  17.489  0.00  0.00    +0.000 A 
ATOM     13  N   UNL     1       2.067   7.499  18.728  0.00  0.00    +0.000 N 
ATOM     14  C   UNL     1       1.575   8.580  19.427  0.00  0.00    +0.000 A 
BRANCH   6  15
ATOM     15  N   UNL     1       0.813   7.839  21.652  0.00  0.00    +0.000 N 
ATOM     16  H   UNL     1       0.030   8.138  22.228  0.00  0.00    +0.000 HD
ATOM     17  H   UNL     1       0.713   6.895  21.298  0.00  0.00    +0.000 HD
ENDBRANCH   6  15
ENDBRANCH   1  13
BRANCH   4  18
ATOM     18  O   UNL     1       3.400   3.285  17.225  0.00  0.00    +0.000 OA
ATOM     19  H   UNL     1       4.319   3.076  16.964  0.00  0.00    +0.000 HD
ENDBRANCH   4  18
BRANCH   5  20
ATOM     20  O   UNL     1       1.107   4.046  18.428  0.00  0.00    +0.000 OA
ATOM     21  H   UNL     1       1.524   3.192  18.212  0.00  0.00    +0.000 HD
ENDBRANCH   5  20
BRANCH   3  22
ATOM     22  C   UNL     1       5.553   4.469  19.155  0.00  0.00    +0.000 C 
BRANCH  22  23
ATOM     23  O   UNL     1       6.060   5.725  18.730  0.00  0.00    +0.000 OA
BRANCH  23  24
ATOM     24  S   UNL     1       7.600   5.750  18.194  0.00  0.00    +0.000 S 
ATOM     25  O   UNL     1       8.008   7.135  18.100  0.00  0.00    +0.000 OA
ATOM     26  O   UNL     1       8.377   4.816  18.981  0.00  0.00    +0.000 OA
BRANCH  24  27
ATOM     27  N   UNL     1       7.525   5.195  16.642  0.00  0.00    +0.000 N 
ATOM     28  C   UNL     1       6.564   5.601  15.721  0.00  0.00    +0.000 C 
ATOM     29  O   UNL     1       5.757   6.484  15.963  0.00  0.00    +0.000 OA
ATOM     30  H   UNL     1       8.178   4.447  16.415  0.00  0.00    +0.000 HD
BRANCH  28  31
ATOM     31  C   UNL     1       6.578   4.930  14.387  0.00  0.00    +0.000 A 
ATOM     32  C   UNL     1       5.489   4.081  14.115  0.00  0.00    +0.000 A 
ATOM     33  C   UNL     1       5.382   3.413  12.895  0.00  0.00    +0.000 A 
ATOM     34  C   UNL     1       6.364   3.587  11.927  0.00  0.00    +0.000 A 
ATOM     35  C   UNL     1       7.460   4.418  12.179  0.00  0.00    +0.000 A 
ATOM     36  C   UNL     1       7.571   5.083  13.406  0.00  0.00    +0.000 A 
BRANCH  36  37
ATOM     37  O   UNL     1       8.664   5.881  13.622  0.00  0.00    +0.000 OA
ATOM     38  H   UNL     1       8.568   6.694  13.090  0.00  0.00    +0.000 HD
ENDBRANCH  36  37
ENDBRANCH  28  31
ENDBRANCH  24  27
ENDBRANCH  23  24
ENDBRANCH  22  23
ENDBRANCH   3  22
TORSDOF 10
ENDMDL
MODEL 2
REMARK VINA RESULT:      -7.7      8.586     11.249
REMARK  Name = 
REMARK  10 active torsions:
REMARK  status: ('A' for Active; 'I' for Inactive)
REMARK    1  A    between atoms: N_1  and  C_2
REMARK    2  A    between atoms: N_9  and  C_10
REMARK    3  A    between atoms: C_12  and  C_13
REMARK    4  A    between atoms: C_13  and  O_14
REMARK    5  A    between atoms: O_14  and  S_15
REMARK    6  A    between atoms: S_15  and  N_18
REMARK    7  A    between atoms: C_19  and  C_21
REMARK    8  A    between atoms: C_26  and  O_27
REMARK    9  A    between atoms: C_28  and  O_29
REMARK   10  A    between atoms: C_30  and  O_31
REMARK                            x       y       z     vdW  Elec       q    Type
REMARK                         _______ _______ _______ _____ _____    ______ ____
ROOT
ATOM      1  C   UNL     1      -1.222  12.768  23.088  0.00  0.00    +0.000 C 
ATOM      2  C   UNL     1      -2.679  12.278  23.299  0.00  0.00    +0.000 C 
ATOM      3  C   UNL     1      -3.531  13.526  23.576  0.00  0.00    +0.000 C 
ATOM      4  C   UNL     1      -2.730  14.673  22.968  0.00  0.00    +0.000 C 
ATOM      5  C   UNL     1      -1.269  14.300  23.237  0.00  0.00    +0.000 C 
ENDROOT
BRANCH   1  13
ATOM      6  C   UNL     1      -0.032   9.879  22.171  0.00  0.00    +0.000 A 
ATOM      7  N   UNL     1       0.512   8.861  21.482  0.00  0.00    +0.000 NA
ATOM      8  C   UNL     1       0.965   9.090  20.233  0.00  0.00    +0.000 A 
ATOM      9  N   UNL     1       0.951  10.237  19.554  0.00  0.00    +0.000 NA
ATOM     10  C   UNL     1       0.395  11.240  20.251  0.00  0.00    +0.000 A 
ATOM     11  N   UNL     1       0.262  12.518  19.790  0.00  0.00    +0.000 NA
ATOM     12  C   UNL     1      -0.323  13.173  20.765  0.00  0.00    +0.000 A 
ATOM     13  N   UNL     1      -0.584  12.367  21.843  0.00  0.00    +0.000 N 
ATOM     14  C   UNL     1      -0.105  11.112  21.539  0.00  0.00    +0.000 A 
BRANCH   6  15
ATOM     15  N   UNL     1      -0.468   9.608  23.458  0.00  0.00    +0.000 N 
ATOM     16  H   UNL     1       0.330   9.672  24.086  0.00  0.00    +0.000 HD
ATOM     17  H   UNL     1      -1.264  10.153  23.765  0.00  0.00    +0.000 HD
ENDBRANCH   6  15
ENDBRANCH   1  13
BRANCH   4  18
ATOM     18  O   UNL     1      -3.089  15.907  23.573  0.00  0.00    +0.000 OA
ATOM     19  H   UNL     1      -3.988  15.801  23.944  0.00  0.00    +0.000 HD
ENDBRANCH   4  18
BRANCH   5  20
ATOM     20  O   UNL     1      -0.887  14.700  24.563  0.00  0.00    +0.000 OA
ATOM     21  H   UNL     1      -1.674  15.023  25.040  0.00  0.00    +0.000 HD
ENDBRANCH   5  20
BRANCH   3  22
ATOM     22  C   UNL     1      -4.944  13.462  22.988  0.00  0.00    +0.000 C 
BRANCH  22  23
ATOM     23  O   UNL     1      -5.116  12.266  22.243  0.00  0.00    +0.000 OA
BRANCH  23  24
ATOM     24  S   UNL     1      -6.242  12.291  21.064  0.00  0.00    +0.000 S 
ATOM     25  O   UNL     1      -7.295  11.374  21.444  0.00  0.00    +0.000 OA
ATOM     26  O   UNL     1      -6.557  13.671  20.759  0.00  0.00    +0.000 OA
BRANCH  24  27
ATOM     27  N   UNL     1      -5.507  11.617  19.750  0.00  0.00    +0.000 N 
ATOM     28  C   UNL     1      -4.256  12.005  19.279  0.00  0.00    +0.000 C 
ATOM     29  O   UNL     1      -3.556  12.812  19.870  0.00  0.00    +0.000 OA
ATOM     30  H   UNL     1      -6.075  10.950  19.229  0.00  0.00    +0.000 HD
BRANCH  28  31
ATOM     31  C   UNL     1      -3.776  11.361  18.021  0.00  0.00    +0.000 A 
ATOM     32  C   UNL     1      -2.527  10.715  18.099  0.00  0.00    +0.000 A 
ATOM     33  C   UNL     1      -1.983  10.062  16.993  0.00  0.00    +0.000 A 
ATOM     34  C   UNL     1      -2.681  10.044  15.791  0.00  0.00    +0.000 A 
ATOM     35  C   UNL     1      -3.918  10.687  15.688  0.00  0.00    +0.000 A 
ATOM     36  C   UNL     1      -4.462  11.349  16.796  0.00  0.00    +0.000 A 
BRANCH  36  37
ATOM     37  O   UNL     1      -5.671  11.978  16.655  0.00  0.00    +0.000 OA
ATOM     38  H   UNL     1      -6.073  12.085  17.539  0.00  0.00    +0.000 HD
ENDBRANCH  36  37
ENDBRANCH  28  31
ENDBRANCH  24  27
ENDBRANCH  23  24
ENDBRANCH  22  23
ENDBRANCH   3  22
TORSDOF 10
ENDMDL
MODEL 3
REMARK VINA RESULT:      -7.5      4.154      5.378
REMARK  Name = 
REMARK  10 active torsions:
REMARK  status: ('A' for Active; 'I' for Inactive)
REMARK    1  A    between atoms: N_1  and  C_2
REMARK    2  A    between atoms: N_9  and  C_10
REMARK    3  A    between atoms: C_12  and  C_13
REMARK    4  A    between atoms: C_13  and  O_14
REMARK    5  A    between atoms: O_14  and  S_15
REMARK    6  A    between atoms: S_15  and  N_18
REMARK    7  A    between atoms: C_19  and  C_21
REMARK    8  A    between atoms: C_26  and  O_27
REMARK    9  A    between atoms: C_28  and  O_29
REMARK   10  A    between atoms: C_30  and  O_31
REMARK                            x       y       z     vdW  Elec       q    Type
REMARK                         _______ _______ _______ _____ _____    ______ ____
ROOT
ATOM      1  C   UNL     1       3.790   5.191  18.464  0.00  0.00    +0.000 C 
ATOM      2  C   UNL     1       5.205   5.163  19.099  0.00  0.00    +0.000 C 
ATOM      3  C   UNL     1       6.121   4.423  18.111  0.00  0.00    +0.000 C 
ATOM      4  C   UNL     1       5.414   4.561  16.766  0.00  0.00    +0.000 C 
ATOM      5  C   UNL     1       3.924   4.472  17.108  0.00  0.00    +0.000 C 
ENDROOT
BRANCH   1  13
ATOM      6  C   UNL     1       1.945   6.889  20.540  0.00  0.00    +0.000 A 
ATOM      7  N   UNL     1       1.207   7.840  21.139  0.00  0.00    +0.000 NA
ATOM      8  C   UNL     1       0.943   8.978  20.467  0.00  0.00    +0.000 A 
ATOM      9  N   UNL     1       1.327   9.309  19.234  0.00  0.00    +0.000 NA
ATOM     10  C   UNL     1       2.072   8.355  18.654  0.00  0.00    +0.000 A 
ATOM     11  N   UNL     1       2.586   8.439  17.392  0.00  0.00    +0.000 NA
ATOM     12  C   UNL     1       3.240   7.315  17.216  0.00  0.00    +0.000 A 
ATOM     13  N   UNL     1       3.178   6.503  18.320  0.00  0.00    +0.000 N 
ATOM     14  C   UNL     1       2.404   7.150  19.258  0.00  0.00    +0.000 A 
BRANCH   6  15
ATOM     15  N   UNL     1       2.177   5.726  21.257  0.00  0.00    +0.000 N 
ATOM     16  H   UNL     1       2.720   5.963  22.085  0.00  0.00    +0.000 HD
ATOM     17  H   UNL     1       1.352   5.177  21.463  0.00  0.00    +0.000 HD
ENDBRANCH   6  15
ENDBRANCH   1  13
BRANCH   4  18
ATOM     18  O   UNL     1       5.824   3.530  15.880  0.00  0.00    +0.000 OA
ATOM     19  H   UNL     1       5.564   2.677  16.282  0.00  0.00    +0.000 HD
ENDBRANCH   4  18
BRANCH   5  20
ATOM     20  O   UNL     1       3.516   3.098  17.211  0.00  0.00    +0.000 OA
ATOM     21  H   UNL     1       2.590   3.016  16.916  0.00  0.00    +0.000 HD
ENDBRANCH   5  20
BRANCH   3  22
ATOM     22  C   UNL     1       7.549   4.973  18.049  0.00  0.00    +0.000 C 
BRANCH  22  23
ATOM     23  O   UNL     1       7.629   6.219  18.724  0.00  0.00    +0.000 OA
BRANCH  23  24
ATOM     24  S   UNL     1       7.569   7.560  17.798  0.00  0.00    +0.000 S 
ATOM     25  O   UNL     1       8.255   7.266  16.559  0.00  0.00    +0.000 OA
ATOM     26  O   UNL     1       6.204   8.042  17.776  0.00  0.00    +0.000 OA
BRANCH  24  27
ATOM     27  N   UNL     1       8.506   8.668  18.582  0.00  0.00    +0.000 N 
ATOM     28  C   UNL     1       8.652   9.989  18.170  0.00  0.00    +0.000 C 
ATOM     29  O   UNL     1       8.009  10.461  17.245  0.00  0.00    +0.000 OA
ATOM     30  H   UNL     1       9.066   8.299  19.350  0.00  0.00    +0.000 HD
BRANCH  28  31
ATOM     31  C   UNL     1       9.613  10.836  18.935  0.00  0.00    +0.000 A 
ATOM     32  C   UNL     1       9.353  10.971  20.312  0.00  0.00    +0.000 A 
ATOM     33  C   UNL     1      10.193  11.723  21.134  0.00  0.00    +0.000 A 
ATOM     34  C   UNL     1      11.307  12.351  20.591  0.00  0.00    +0.000 A 
ATOM     35  C   UNL     1      11.578  12.240  19.224  0.00  0.00    +0.000 A 
ATOM     36  C   UNL     1      10.732  11.491  18.397  0.00  0.00    +0.000 A 
BRANCH  36  37
ATOM     37  O   UNL     1      11.025  11.413  17.060  0.00  0.00    +0.000 OA
ATOM     38  H   UNL     1      10.402  10.789  16.640  0.00  0.00    +0.000 HD
ENDBRANCH  36  37
ENDBRANCH  28  31
ENDBRANCH  24  27
ENDBRANCH  23  24
ENDBRANCH  22  23
ENDBRANCH   3  22
TORSDOF 10
ENDMDL
MODEL 4
REMARK VINA RESULT:      -7.4      4.233      8.336
REMARK  Name = 
REMARK  10 active torsions:
REMARK  status: ('A' for Active; 'I' for Inactive)
REMARK    1  A    between atoms: N_1  and  C_2
REMARK    2  A    between atoms: N_9  and  C_10
REMARK    3  A    between atoms: C_12  and  C_13
REMARK    4  A    between atoms: C_13  and  O_14
REMARK    5  A    between atoms: O_14  and  S_15
REMARK    6  A    between atoms: S_15  and  N_18
REMARK    7  A    between atoms: C_19  and  C_21
REMARK    8  A    between atoms: C_26  and  O_27
REMARK    9  A    between atoms: C_28  and  O_29
REMARK   10  A    between atoms: C_30  and  O_31
REMARK                            x       y       z     vdW  Elec       q    Type
REMARK                         _______ _______ _______ _____ _____    ______ ____
ROOT
ATOM      1  C   UNL     1       2.962   5.865  18.009  0.00  0.00    +0.000 C 
ATOM      2  C   UNL     1       2.168   7.042  18.635  0.00  0.00    +0.000 C 
ATOM      3  C   UNL     1       1.794   6.615  20.063  0.00  0.00    +0.000 C 
ATOM      4  C   UNL     1       2.815   5.538  20.415  0.00  0.00    +0.000 C 
ATOM      5  C   UNL     1       3.039   4.782  19.102  0.00  0.00    +0.000 C 
ENDROOT
BRANCH   1  13
ATOM      6  C   UNL     1       5.013   4.064  16.234  0.00  0.00    +0.000 A 
ATOM      7  N   UNL     1       6.050   3.627  15.499  0.00  0.00    +0.000 NA
ATOM      8  C   UNL     1       7.097   4.451  15.296  0.00  0.00    +0.000 A 
ATOM      9  N   UNL     1       7.258   5.696  15.745  0.00  0.00    +0.000 NA
ATOM     10  C   UNL     1       6.210   6.122  16.467  0.00  0.00    +0.000 A 
ATOM     11  N   UNL     1       6.123   7.356  17.046  0.00  0.00    +0.000 NA
ATOM     12  C   UNL     1       4.957   7.367  17.648  0.00  0.00    +0.000 A 
ATOM     13  N   UNL     1       4.277   6.189  17.478  0.00  0.00    +0.000 N 
ATOM     14  C   UNL     1       5.084   5.357  16.732  0.00  0.00    +0.000 A 
BRANCH   6  15
ATOM     15  N   UNL     1       3.965   3.180  16.436  0.00  0.00    +0.000 N 
ATOM     16  H   UNL     1       3.092   3.693  16.345  0.00  0.00    +0.000 HD
ATOM     17  H   UNL     1       3.998   2.341  15.871  0.00  0.00    +0.000 HD
ENDBRANCH   6  15
ENDBRANCH   1  13
BRANCH   4  18
ATOM     18  O   UNL     1       2.315   4.694  21.442  0.00  0.00    +0.000 OA
ATOM     19  H   UNL     1       1.582   5.169  21.882  0.00  0.00    +0.000 HD
ENDBRANCH   4  18
BRANCH   5  20
ATOM     20  O   UNL     1       2.017   3.789  18.916  0.00  0.00    +0.000 OA
ATOM     21  H   UNL     1       1.239   4.026  19.455  0.00  0.00    +0.000 HD
ENDBRANCH   5  20
BRANCH   3  22
ATOM     22  C   UNL     1       1.815   7.757  21.083  0.00  0.00    +0.000 C 
BRANCH  22  23
ATOM     23  O   UNL     1       1.484   8.987  20.456  0.00  0.00    +0.000 OA
BRANCH  23  24
ATOM     24  S   UNL     1       0.340   9.895  21.182  0.00  0.00    +0.000 S 
ATOM     25  O   UNL     1      -0.221   9.112  22.262  0.00  0.00    +0.000 OA
ATOM     26  O   UNL     1       0.895  11.206  21.447  0.00  0.00    +0.000 OA
BRANCH  24  27
ATOM     27  N   UNL     1      -0.862  10.048  20.063  0.00  0.00    +0.000 N 
ATOM     28  C   UNL     1      -0.656  10.494  18.761  0.00  0.00    +0.000 C 
ATOM     29  O   UNL     1       0.459  10.710  18.312  0.00  0.00    +0.000 OA
ATOM     30  H   UNL     1      -1.806   9.888  20.414  0.00  0.00    +0.000 HD
BRANCH  28  31
ATOM     31  C   UNL     1      -1.866  10.668  17.904  0.00  0.00    +0.000 A 
ATOM     32  C   UNL     1      -1.935   9.844  16.764  0.00  0.00    +0.000 A 
ATOM     33  C   UNL     1      -3.026   9.903  15.897  0.00  0.00    +0.000 A 
ATOM     34  C   UNL     1      -4.067  10.787  16.158  0.00  0.00    +0.000 A 
ATOM     35  C   UNL     1      -4.014  11.621  17.279  0.00  0.00    +0.000 A 
ATOM     36  C   UNL     1      -2.916  11.567  18.146  0.00  0.00    +0.000 A 
BRANCH  36  37
ATOM     37  O   UNL     1      -2.894  12.407  19.229  0.00  0.00    +0.000 OA
ATOM     38  H   UNL     1      -3.813  12.616  19.482  0.00  0.00    +0.000 HD
ENDBRANCH  36  37
ENDBRANCH  28  31
ENDBRANCH  24  27
ENDBRANCH  23  24
ENDBRANCH  22  23
ENDBRANCH   3  22
TORSDOF 10
ENDMDL
MODEL 5
REMARK VINA RESULT:      -7.4      3.429      5.096
REMARK  Name = 
REMARK  10 active torsions:
REMARK  status: ('A' for Active; 'I' for Inactive)
REMARK    1  A    between atoms: N_1  and  C_2
REMARK    2  A    between atoms: N_9  and  C_10
REMARK    3  A    between atoms: C_12  and  C_13
REMARK    4  A    between atoms: C_13  and  O_14
REMARK    5  A    between atoms: O_14  and  S_15
REMARK    6  A    between atoms: S_15  and  N_18
REMARK    7  A    between atoms: C_19  and  C_21
REMARK    8  A    between atoms: C_26  and  O_27
REMARK    9  A    between atoms: C_28  and  O_29
REMARK   10  A    between atoms: C_30  and  O_31
REMARK                            x       y       z     vdW  Elec       q    Type
REMARK                         _______ _______ _______ _____ _____    ______ ____
ROOT
ATOM      1  C   UNL     1       0.034  10.753  19.088  0.00  0.00    +0.000 C 
ATOM      2  C   UNL     1       1.105   9.946  18.309  0.00  0.00    +0.000 C 
ATOM      3  C   UNL     1       1.813   9.044  19.331  0.00  0.00    +0.000 C 
ATOM      4  C   UNL     1       0.812   8.912  20.475  0.00  0.00    +0.000 C 
ATOM      5  C   UNL     1       0.140  10.286  20.552  0.00  0.00    +0.000 C 
ENDROOT
BRANCH   1  13
ATOM      6  C   UNL     1      -2.633  12.421  19.927  0.00  0.00    +0.000 A 
ATOM      7  N   UNL     1      -3.879  12.920  20.006  0.00  0.00    +0.000 NA
ATOM      8  C   UNL     1      -4.836  12.407  19.206  0.00  0.00    +0.000 A 
ATOM      9  N   UNL     1      -4.715  11.430  18.308  0.00  0.00    +0.000 NA
ATOM     10  C   UNL     1      -3.463  10.951  18.233  0.00  0.00    +0.000 A 
ATOM     11  N   UNL     1      -3.071   9.944  17.399  0.00  0.00    +0.000 NA
ATOM     12  C   UNL     1      -1.790   9.786  17.636  0.00  0.00    +0.000 A 
ATOM     13  N   UNL     1      -1.330  10.657  18.589  0.00  0.00    +0.000 N 
ATOM     14  C   UNL     1      -2.407  11.409  19.007  0.00  0.00    +0.000 A 
BRANCH   6  15
ATOM     15  N   UNL     1      -1.684  12.961  20.781  0.00  0.00    +0.000 N 
ATOM     16  H   UNL     1      -0.923  12.292  20.877  0.00  0.00    +0.000 HD
ATOM     17  H   UNL     1      -1.370  13.893  20.538  0.00  0.00    +0.000 HD
ENDBRANCH   6  15
ENDBRANCH   1  13
BRANCH   4  18
ATOM     18  O   UNL     1       1.477   8.571  21.682  0.00  0.00    +0.000 OA
ATOM     19  H   UNL     1       0.793   8.305  22.329  0.00  0.00    +0.000 HD
ENDBRANCH   4  18
BRANCH   5  20
ATOM     20  O   UNL     1       0.943  11.192  21.325  0.00  0.00    +0.000 OA
ATOM     21  H   UNL     1       1.812  10.784  21.496  0.00  0.00    +0.000 HD
ENDBRANCH   5  20
BRANCH   3  22
ATOM     22  C   UNL     1       2.215   7.672  18.782  0.00  0.00    +0.000 C 
BRANCH  22  23
ATOM     23  O   UNL     1       2.159   6.692  19.809  0.00  0.00    +0.000 OA
BRANCH  23  24
ATOM     24  S   UNL     1       2.393   5.143  19.357  0.00  0.00    +0.000 S 
ATOM     25  O   UNL     1       2.967   4.441  20.484  0.00  0.00    +0.000 OA
ATOM     26  O   UNL     1       1.176   4.656  18.741  0.00  0.00    +0.000 OA
BRANCH  24  27
ATOM     27  N   UNL     1       3.577   5.202  18.210  0.00  0.00    +0.000 N 
ATOM     28  C   UNL     1       4.079   4.080  17.557  0.00  0.00    +0.000 C 
ATOM     29  O   UNL     1       3.604   2.966  17.712  0.00  0.00    +0.000 OA
ATOM     30  H   UNL     1       4.002   6.118  18.070  0.00  0.00    +0.000 HD
BRANCH  28  31
ATOM     31  C   UNL     1       5.217   4.296  16.616  0.00  0.00    +0.000 A 
ATOM     32  C   UNL     1       4.878   4.391  15.253  0.00  0.00    +0.000 A 
ATOM     33  C   UNL     1       5.854   4.611  14.281  0.00  0.00    +0.000 A 
ATOM     34  C   UNL     1       7.185   4.739  14.658  0.00  0.00    +0.000 A 
ATOM     35  C   UNL     1       7.546   4.638  16.005  0.00  0.00    +0.000 A 
ATOM     36  C   UNL     1       6.568   4.410  16.981  0.00  0.00    +0.000 A 
BRANCH  36  37
ATOM     37  O   UNL     1       6.960   4.306  18.290  0.00  0.00    +0.000 OA
ATOM     38  H   UNL     1       7.098   3.362  18.501  0.00  0.00    +0.000 HD
ENDBRANCH  36  37
ENDBRANCH  28  31
ENDBRANCH  24  27
ENDBRANCH  23  24
ENDBRANCH  22  23
ENDBRANCH   3  22
TORSDOF 10
ENDMDL
MODEL 6
REMARK VINA RESULT:      -7.2      5.213      8.058
REMARK  Name = 
REMARK  10 active torsions:
REMARK  status: ('A' for Active; 'I' for Inactive)
REMARK    1  A    between atoms: N_1  and  C_2
REMARK    2  A    between atoms: N_9  and  C_10
REMARK    3  A    between atoms: C_12  and  C_13
REMARK    4  A    between atoms: C_13  and  O_14
REMARK    5  A    between atoms: O_14  and  S_15
REMARK    6  A    between atoms: S_15  and  N_18
REMARK    7  A    between atoms: C_19  and  C_21
REMARK    8  A    between atoms: C_26  and  O_27
REMARK    9  A    between atoms: C_28  and  O_29
REMARK   10  A    between atoms: C_30  and  O_31
REMARK                            x       y       z     vdW  Elec       q    Type
REMARK                         _______ _______ _______ _____ _____    ______ ____
ROOT
ATOM      1  C   UNL     1       5.985   5.162  18.767  0.00  0.00    +0.000 C 
ATOM      2  C   UNL     1       6.826   6.398  19.178  0.00  0.00    +0.000 C 
ATOM      3  C   UNL     1       7.644   6.809  17.944  0.00  0.00    +0.000 C 
ATOM      4  C   UNL     1       6.871   6.224  16.766  0.00  0.00    +0.000 C 
ATOM      5  C   UNL     1       6.331   4.891  17.290  0.00  0.00    +0.000 C 
ENDROOT
BRANCH   1  13
ATOM      6  C   UNL     1       3.858   2.965  19.887  0.00  0.00    +0.000 A 
ATOM      7  N   UNL     1       2.753   2.335  20.320  0.00  0.00    +0.000 NA
ATOM      8  C   UNL     1       1.578   2.996  20.300  0.00  0.00    +0.000 A 
ATOM      9  N   UNL     1       1.347   4.243  19.890  0.00  0.00    +0.000 NA
ATOM     10  C   UNL     1       2.461   4.862  19.472  0.00  0.00    +0.000 A 
ATOM     11  N   UNL     1       2.501   6.141  18.996  0.00  0.00    +0.000 NA
ATOM     12  C   UNL     1       3.762   6.355  18.701  0.00  0.00    +0.000 A 
ATOM     13  N   UNL     1       4.548   5.265  18.973  0.00  0.00    +0.000 N 
ATOM     14  C   UNL     1       3.719   4.275  19.454  0.00  0.00    +0.000 A 
BRANCH   6  15
ATOM     15  N   UNL     1       5.042   2.245  19.904  0.00  0.00    +0.000 N 
ATOM     16  H   UNL     1       5.089   1.685  19.056  0.00  0.00    +0.000 HD
ATOM     17  H   UNL     1       5.876   2.795  20.067  0.00  0.00    +0.000 HD
ENDBRANCH   6  15
ENDBRANCH   1  13
BRANCH   4  18
ATOM     18  O   UNL     1       7.726   6.054  15.645  0.00  0.00    +0.000 OA
ATOM     19  H   UNL     1       7.595   6.825  15.057  0.00  0.00    +0.000 HD
ENDBRANCH   4  18
BRANCH   5  20
ATOM     20  O   UNL     1       7.331   3.866  17.175  0.00  0.00    +0.000 OA
ATOM     21  H   UNL     1       6.903   2.992  17.238  0.00  0.00    +0.000 HD
ENDBRANCH   5  20
BRANCH   3  22
ATOM     22  C   UNL     1       7.832   8.321  17.792  0.00  0.00    +0.000 C 
BRANCH  22  23
ATOM     23  O   UNL     1       8.806   8.793  18.711  0.00  0.00    +0.000 OA
BRANCH  23  24
ATOM     24  S   UNL     1       9.150  10.386  18.660  0.00  0.00    +0.000 S 
ATOM     25  O   UNL     1      10.581  10.520  18.489  0.00  0.00    +0.000 OA
ATOM     26  O   UNL     1       8.245  11.023  17.726  0.00  0.00    +0.000 OA
BRANCH  24  27
ATOM     27  N   UNL     1       8.822  10.947  20.176  0.00  0.00    +0.000 N 
ATOM     28  C   UNL     1       8.985  12.274  20.563  0.00  0.00    +0.000 C 
ATOM     29  O   UNL     1       9.289  13.154  19.773  0.00  0.00    +0.000 OA
ATOM     30  H   UNL     1       8.580  10.232  20.862  0.00  0.00    +0.000 HD
BRANCH  28  31
ATOM     31  C   UNL     1       8.735  12.597  21.999  0.00  0.00    +0.000 A 
ATOM     32  C   UNL     1       8.251  11.540  22.792  0.00  0.00    +0.000 A 
ATOM     33  C   UNL     1       7.997  11.716  24.152  0.00  0.00    +0.000 A 
ATOM     34  C   UNL     1       8.226  12.955  24.741  0.00  0.00    +0.000 A 
ATOM     35  C   UNL     1       8.698  14.021  23.970  0.00  0.00    +0.000 A 
ATOM     36  C   UNL     1       8.946  13.847  22.603  0.00  0.00    +0.000 A 
BRANCH  36  37
ATOM     37  O   UNL     1       9.397  14.918  21.877  0.00  0.00    +0.000 OA
ATOM     38  H   UNL     1       9.952  14.588  21.144  0.00  0.00    +0.000 HD
ENDBRANCH  36  37
ENDBRANCH  28  31
ENDBRANCH  24  27
ENDBRANCH  23  24
ENDBRANCH  22  23
ENDBRANCH   3  22
TORSDOF 10
ENDMDL
MODEL 7
REMARK VINA RESULT:      -7.2      0.797      1.365
REMARK  Name = 
REMARK  10 active torsions:
REMARK  status: ('A' for Active; 'I' for Inactive)
REMARK    1  A    between atoms: N_1  and  C_2
REMARK    2  A    between atoms: N_9  and  C_10
REMARK    3  A    between atoms: C_12  and  C_13
REMARK    4  A    between atoms: C_13  and  O_14
REMARK    5  A    between atoms: O_14  and  S_15
REMARK    6  A    between atoms: S_15  and  N_18
REMARK    7  A    between atoms: C_19  and  C_21
REMARK    8  A    between atoms: C_26  and  O_27
REMARK    9  A    between atoms: C_28  and  O_29
REMARK   10  A    between atoms: C_30  and  O_31
REMARK                            x       y       z     vdW  Elec       q    Type
REMARK                         _______ _______ _______ _____ _____    ______ ____
ROOT
ATOM      1  C   UNL     1       2.218   5.922  19.454  0.00  0.00    +0.000 C 
ATOM      2  C   UNL     1       3.580   5.452  20.028  0.00  0.00    +0.000 C 
ATOM      3  C   UNL     1       3.878   4.082  19.398  0.00  0.00    +0.000 C 
ATOM      4  C   UNL     1       3.049   4.066  18.119  0.00  0.00    +0.000 C 
ATOM      5  C   UNL     1       1.763   4.811  18.490  0.00  0.00    +0.000 C 
ENDROOT
BRANCH   1  13
ATOM      6  C   UNL     1       1.026   8.767  20.497  0.00  0.00    +0.000 A 
ATOM      7  N   UNL     1       0.682  10.060  20.623  0.00  0.00    +0.000 NA
ATOM      8  C   UNL     1       0.971  10.910  19.617  0.00  0.00    +0.000 A 
ATOM      9  N   UNL     1       1.575  10.636  18.461  0.00  0.00    +0.000 NA
ATOM     10  C   UNL     1       1.922   9.344  18.356  0.00  0.00    +0.000 A 
ATOM     11  N   UNL     1       2.548   8.799  17.272  0.00  0.00    +0.000 NA
ATOM     12  C   UNL     1       2.704   7.530  17.571  0.00  0.00    +0.000 A 
ATOM     13  N   UNL     1       2.209   7.229  18.813  0.00  0.00    +0.000 N 
ATOM     14  C   UNL     1       1.676   8.388  19.332  0.00  0.00    +0.000 A 
BRANCH   6  15
ATOM     15  N   UNL     1       0.694   7.922  21.545  0.00  0.00    +0.000 N 
ATOM     16  H   UNL     1       1.081   8.308  22.403  0.00  0.00    +0.000 HD
ATOM     17  H   UNL     1      -0.290   7.693  21.616  0.00  0.00    +0.000 HD
ENDBRANCH   6  15
ENDBRANCH   1  13
BRANCH   4  18
ATOM     18  O   UNL     1       2.796   2.731  17.705  0.00  0.00    +0.000 OA
ATOM     19  H   UNL     1       3.140   2.138  18.403  0.00  0.00    +0.000 HD
ENDBRANCH   4  18
BRANCH   5  20
ATOM     20  O   UNL     1       0.837   3.919  19.132  0.00  0.00    +0.000 OA
ATOM     21  H   UNL     1       0.520   3.264  18.483  0.00  0.00    +0.000 HD
ENDBRANCH   5  20
BRANCH   3  22
ATOM     22  C   UNL     1       5.361   3.838  19.104  0.00  0.00    +0.000 C 
BRANCH  22  23
ATOM     23  O   UNL     1       6.145   4.920  19.584  0.00  0.00    +0.000 OA
BRANCH  23  24
ATOM     24  S   UNL     1       7.405   5.381  18.656  0.00  0.00    +0.000 S 
ATOM     25  O   UNL     1       7.353   6.822  18.533  0.00  0.00    +0.000 OA
ATOM     26  O   UNL     1       8.602   4.737  19.154  0.00  0.00    +0.000 OA
BRANCH  24  27
ATOM     27  N   UNL     1       7.074   4.787  17.154  0.00  0.00    +0.000 N 
ATOM     28  C   UNL     1       7.291   5.496  15.976  0.00  0.00    +0.000 C 
ATOM     29  O   UNL     1       7.845   6.584  15.959  0.00  0.00    +0.000 OA
ATOM     30  H   UNL     1       6.597   3.886  17.137  0.00  0.00    +0.000 HD
BRANCH  28  31
ATOM     31  C   UNL     1       6.848   4.851  14.704  0.00  0.00    +0.000 A 
ATOM     32  C   UNL     1       7.682   5.054  13.588  0.00  0.00    +0.000 A 
ATOM     33  C   UNL     1       7.380   4.486  12.350  0.00  0.00    +0.000 A 
ATOM     34  C   UNL     1       6.239   3.705  12.210  0.00  0.00    +0.000 A 
ATOM     35  C   UNL     1       5.392   3.499  13.302  0.00  0.00    +0.000 A 
ATOM     36  C   UNL     1       5.690   4.074  14.544  0.00  0.00    +0.000 A 
BRANCH  36  37
ATOM     37  O   UNL     1       4.830   3.858  15.589  0.00  0.00    +0.000 OA
ATOM     38  H   UNL     1       3.930   3.727  15.233  0.00  0.00    +0.000 HD
ENDBRANCH  36  37
ENDBRANCH  28  31
ENDBRANCH  24  27
ENDBRANCH  23  24
ENDBRANCH  22  23
ENDBRANCH   3  22
TORSDOF 10
ENDMDL
MODEL 8
REMARK VINA RESULT:      -7.2      2.382      3.364
REMARK  Name = 
REMARK  10 active torsions:
REMARK  status: ('A' for Active; 'I' for Inactive)
REMARK    1  A    between atoms: N_1  and  C_2
REMARK    2  A    between atoms: N_9  and  C_10
REMARK    3  A    between atoms: C_12  and  C_13
REMARK    4  A    between atoms: C_13  and  O_14
REMARK    5  A    between atoms: O_14  and  S_15
REMARK    6  A    between atoms: S_15  and  N_18
REMARK    7  A    between atoms: C_19  and  C_21
REMARK    8  A    between atoms: C_26  and  O_27
REMARK    9  A    between atoms: C_28  and  O_29
REMARK   10  A    between atoms: C_30  and  O_31
REMARK                            x       y       z     vdW  Elec       q    Type
REMARK                         _______ _______ _______ _____ _____    ______ ____
ROOT
ATOM      1  C   UNL     1       1.202   9.629  19.373  0.00  0.00    +0.000 C 
ATOM      2  C   UNL     1       2.191   8.978  18.371  0.00  0.00    +0.000 C 
ATOM      3  C   UNL     1       2.608   7.627  18.972  0.00  0.00    +0.000 C 
ATOM      4  C   UNL     1       1.480   7.279  19.938  0.00  0.00    +0.000 C 
ATOM      5  C   UNL     1       1.060   8.626  20.534  0.00  0.00    +0.000 C 
ENDROOT
BRANCH   1  13
ATOM      6  C   UNL     1      -1.062  11.630  20.586  0.00  0.00    +0.000 A 
ATOM      7  N   UNL     1      -2.157  12.387  20.773  0.00  0.00    +0.000 NA
ATOM      8  C   UNL     1      -3.129  12.366  19.839  0.00  0.00    +0.000 A 
ATOM      9  N   UNL     1      -3.159  11.666  18.704  0.00  0.00    +0.000 NA
ATOM     10  C   UNL     1      -2.054  10.925  18.527  0.00  0.00    +0.000 A 
ATOM     11  N   UNL     1      -1.835  10.112  17.452  0.00  0.00    +0.000 NA
ATOM     12  C   UNL     1      -0.655   9.578  17.665  0.00  0.00    +0.000 A 
ATOM     13  N   UNL     1      -0.094  10.018  18.836  0.00  0.00    +0.000 N 
ATOM     14  C   UNL     1      -0.996  10.877  19.423  0.00  0.00    +0.000 A 
BRANCH   6  15
ATOM     15  N   UNL     1      -0.096  11.664  21.579  0.00  0.00    +0.000 N 
ATOM     16  H   UNL     1       0.819  11.687  21.135  0.00  0.00    +0.000 HD
ATOM     17  H   UNL     1      -0.222  12.388  22.275  0.00  0.00    +0.000 HD
ENDBRANCH   6  15
ENDBRANCH   1  13
BRANCH   4  18
ATOM     18  O   UNL     1       1.936   6.371  20.930  0.00  0.00    +0.000 OA
ATOM     19  H   UNL     1       1.330   5.603  20.926  0.00  0.00    +0.000 HD
ENDBRANCH   4  18
BRANCH   5  20
ATOM     20  O   UNL     1       1.922   8.979  21.628  0.00  0.00    +0.000 OA
ATOM     21  H   UNL     1       1.915   9.947  21.742  0.00  0.00    +0.000 HD
ENDBRANCH   5  20
BRANCH   3  22
ATOM     22  C   UNL     1       2.817   6.519  17.936  0.00  0.00    +0.000 C 
BRANCH  22  23
ATOM     23  O   UNL     1       4.191   6.176  17.849  0.00  0.00    +0.000 OA
BRANCH  23  24
ATOM     24  S   UNL     1       4.557   4.588  17.925  0.00  0.00    +0.000 S 
ATOM     25  O   UNL     1       5.708   4.445  18.791  0.00  0.00    +0.000 OA
ATOM     26  O   UNL     1       3.343   3.850  18.202  0.00  0.00    +0.000 OA
BRANCH  24  27
ATOM     27  N   UNL     1       5.080   4.193  16.411  0.00  0.00    +0.000 N 
ATOM     28  C   UNL     1       5.891   5.015  15.633  0.00  0.00    +0.000 C 
ATOM     29  O   UNL     1       6.365   6.057  16.057  0.00  0.00    +0.000 OA
ATOM     30  H   UNL     1       4.688   3.335  16.026  0.00  0.00    +0.000 HD
BRANCH  28  31
ATOM     31  C   UNL     1       6.195   4.551  14.247  0.00  0.00    +0.000 A 
ATOM     32  C   UNL     1       5.245   3.690  13.665  0.00  0.00    +0.000 A 
ATOM     33  C   UNL     1       5.412   3.206  12.367  0.00  0.00    +0.000 A 
ATOM     34  C   UNL     1       6.531   3.577  11.632  0.00  0.00    +0.000 A 
ATOM     35  C   UNL     1       7.492   4.422  12.194  0.00  0.00    +0.000 A 
ATOM     36  C   UNL     1       7.329   4.903  13.499  0.00  0.00    +0.000 A 
BRANCH  36  37
ATOM     37  O   UNL     1       8.297   5.722  14.021  0.00  0.00    +0.000 OA
ATOM     38  H   UNL     1       9.125   5.585  13.522  0.00  0.00    +0.000 HD
ENDBRANCH  36  37
ENDBRANCH  28  31
ENDBRANCH  24  27
ENDBRANCH  23  24
ENDBRANCH  22  23
ENDBRANCH   3  22
TORSDOF 10
ENDMDL
MODEL 9
REMARK VINA RESULT:      -7.2      4.729     10.059
REMARK  Name = 
REMARK  10 active torsions:
REMARK  status: ('A' for Active; 'I' for Inactive)
REMARK    1  A    between atoms: N_1  and  C_2
REMARK    2  A    between atoms: N_9  and  C_10
REMARK    3  A    between atoms: C_12  and  C_13
REMARK    4  A    between atoms: C_13  and  O_14
REMARK    5  A    between atoms: O_14  and  S_15
REMARK    6  A    between atoms: S_15  and  N_18
REMARK    7  A    between atoms: C_19  and  C_21
REMARK    8  A    between atoms: C_26  and  O_27
REMARK    9  A    between atoms: C_28  and  O_29
REMARK   10  A    between atoms: C_30  and  O_31
REMARK                            x       y       z     vdW  Elec       q    Type
REMARK                         _______ _______ _______ _____ _____    ______ ____
ROOT
ATOM      1  C   UNL     1       2.935   6.480  17.799  0.00  0.00    +0.000 C 
ATOM      2  C   UNL     1       2.133   7.807  17.834  0.00  0.00    +0.000 C 
ATOM      3  C   UNL     1       1.566   7.946  19.255  0.00  0.00    +0.000 C 
ATOM      4  C   UNL     1       2.480   7.077  20.113  0.00  0.00    +0.000 C 
ATOM      5  C   UNL     1       2.823   5.884  19.215  0.00  0.00    +0.000 C 
ENDROOT
BRANCH   1  13
ATOM      6  C   UNL     1       4.865   4.258  16.407  0.00  0.00    +0.000 A 
ATOM      7  N   UNL     1       5.890   3.619  15.817  0.00  0.00    +0.000 NA
ATOM      8  C   UNL     1       7.051   4.280  15.635  0.00  0.00    +0.000 A 
ATOM      9  N   UNL     1       7.339   5.536  15.974  0.00  0.00    +0.000 NA
ATOM     10  C   UNL     1       6.303   6.165  16.550  0.00  0.00    +0.000 A 
ATOM     11  N   UNL     1       6.334   7.454  16.997  0.00  0.00    +0.000 NA
ATOM     12  C   UNL     1       5.135   7.675  17.484  0.00  0.00    +0.000 A 
ATOM     13  N   UNL     1       4.321   6.579  17.365  0.00  0.00    +0.000 N 
ATOM     14  C   UNL     1       5.066   5.578  16.782  0.00  0.00    +0.000 A 
BRANCH   6  15
ATOM     15  N   UNL     1       3.696   3.538  16.594  0.00  0.00    +0.000 N 
ATOM     16  H   UNL     1       3.912   2.719  17.158  0.00  0.00    +0.000 HD
ATOM     17  H   UNL     1       2.914   4.074  16.948  0.00  0.00    +0.000 HD
ENDBRANCH   6  15
ENDBRANCH   1  13
BRANCH   4  18
ATOM     18  O   UNL     1       1.816   6.679  21.304  0.00  0.00    +0.000 OA
ATOM     19  H   UNL     1       1.042   7.266  21.418  0.00  0.00    +0.000 HD
ENDBRANCH   4  18
BRANCH   5  20
ATOM     20  O   UNL     1       1.781   4.896  19.277  0.00  0.00    +0.000 OA
ATOM     21  H   UNL     1       2.141   4.075  19.660  0.00  0.00    +0.000 HD
ENDBRANCH   5  20
BRANCH   3  22
ATOM     22  C   UNL     1       1.521   9.387  19.773  0.00  0.00    +0.000 C 
BRANCH  22  23
ATOM     23  O   UNL     1       0.250   9.669  20.339  0.00  0.00    +0.000 OA
BRANCH  23  24
ATOM     24  S   UNL     1       0.052   9.302  21.916  0.00  0.00    +0.000 S 
ATOM     25  O   UNL     1      -0.689   8.061  21.986  0.00  0.00    +0.000 OA
ATOM     26  O   UNL     1       1.332   9.423  22.580  0.00  0.00    +0.000 OA
BRANCH  24  27
ATOM     27  N   UNL     1      -0.959  10.465  22.505  0.00  0.00    +0.000 N 
ATOM     28  C   UNL     1      -0.672  11.826  22.479  0.00  0.00    +0.000 C 
ATOM     29  O   UNL     1       0.315  12.276  21.919  0.00  0.00    +0.000 OA
ATOM     30  H   UNL     1      -1.785  10.118  22.991  0.00  0.00    +0.000 HD
BRANCH  28  31
ATOM     31  C   UNL     1      -1.650  12.739  23.141  0.00  0.00    +0.000 A 
ATOM     32  C   UNL     1      -2.921  12.192  23.404  0.00  0.00    +0.000 A 
ATOM     33  C   UNL     1      -3.912  12.942  24.035  0.00  0.00    +0.000 A 
ATOM     34  C   UNL     1      -3.647  14.253  24.415  0.00  0.00    +0.000 A 
ATOM     35  C   UNL     1      -2.397  14.820  24.155  0.00  0.00    +0.000 A 
ATOM     36  C   UNL     1      -1.403  14.069  23.514  0.00  0.00    +0.000 A 
BRANCH  36  37
ATOM     37  O   UNL     1      -0.192  14.662  23.266  0.00  0.00    +0.000 OA
ATOM     38  H   UNL     1       0.301  14.731  24.107  0.00  0.00    +0.000 HD
ENDBRANCH  36  37
ENDBRANCH  28  31
ENDBRANCH  24  27
ENDBRANCH  23  24
ENDBRANCH  22  23
ENDBRANCH   3  22
TORSDOF 10
ENDMDL
