MODEL 1
REMARK VINA RESULT:      -6.6      0.000      0.000
REMARK  Name = 
REMARK  10 active torsions:
REMARK  status: ('A' for Active; 'I' for Inactive)
REMARK    1  A    between atoms: C_1  and  C_2
REMARK    2  A    between atoms: C_2  and  C_3
REMARK    3  A    between atoms: C_3  and  C_4
REMARK    4  A    between atoms: N_6  and  C_7
REMARK    5  A    between atoms: C_7  and  C_8
REMARK    6  A    between atoms: C_8  and  C_9
REMARK    7  A    between atoms: C_11  and  O_12
REMARK    8  A    between atoms: O_12  and  C_13
REMARK    9  A    between atoms: C_14  and  O_15
REMARK   10  A    between atoms: O_15  and  C_16
REMARK                            x       y       z     vdW  Elec       q    Type
REMARK                         _______ _______ _______ _____ _____    ______ ____
ROOT
ATOM      1  C   UNL     1       4.115   4.650  16.941  0.00  0.00    +0.000 A 
ATOM      2  C   UNL     1       5.236   4.261  16.193  0.00  0.00    +0.000 A 
ATOM      3  C   UNL     1       6.386   5.058  16.094  0.00  0.00    +0.000 A 
ATOM      4  C   UNL     1       6.400   6.315  16.721  0.00  0.00    +0.000 A 
ATOM      5  C   UNL     1       5.275   6.725  17.456  0.00  0.00    +0.000 A 
ATOM      6  C   UNL     1       4.149   5.898  17.565  0.00  0.00    +0.000 A 
ATOM      7 BR   UNL     1       2.682   6.557  18.577  0.00  0.00    +0.000 Br
ENDROOT
BRANCH   3   8
ATOM      8  O   UNL     1       7.486   4.660  15.371  0.00  0.00    +0.000 OA
ATOM      9  C   UNL     1       7.349   4.724  13.949  0.00  0.00    +0.000 C 
ENDBRANCH   3   8
BRANCH   4  10
ATOM     10  O   UNL     1       7.535   7.079  16.583  0.00  0.00    +0.000 OA
ATOM     11  C   UNL     1       7.811   8.035  17.610  0.00  0.00    +0.000 C 
ENDBRANCH   4  10
BRANCH   1  12
ATOM     12  C   UNL     1       2.949   3.695  16.987  0.00  0.00    +0.000 C 
BRANCH  12  13
ATOM     13  C   UNL     1       3.336   2.350  17.597  0.00  0.00    +0.000 C 
BRANCH  13  16
ATOM     14  C   UNL     1       3.687   2.529  20.039  0.00  0.00    +0.000 C 
ATOM     15  O   UNL     1       4.830   2.946  19.916  0.00  0.00    +0.000 OA
ATOM     16  N   UNL     1       2.867   2.232  18.966  0.00  0.00    +0.000 N 
ATOM     17  H   UNL     1       1.893   2.023  19.127  0.00  0.00    +0.000 HD
BRANCH  14  18
ATOM     18  C   UNL     1       3.043   2.298  21.392  0.00  0.00    +0.000 C 
BRANCH  18  20
ATOM     19  C   UNL     1       1.643   4.395  21.099  0.00  0.00    +0.000 C 
ATOM     20  C   UNL     1       1.659   2.931  21.515  0.00  0.00    +0.000 C 
ENDBRANCH  18  20
ENDBRANCH  14  18
ENDBRANCH  13  16
ENDBRANCH  12  13
ENDBRANCH   1  12
TORSDOF 7
ENDMDL
MODEL 2
REMARK VINA RESULT:      -6.5      3.249      6.554
REMARK  Name = 
REMARK  10 active torsions:
REMARK  status: ('A' for Active; 'I' for Inactive)
REMARK    1  A    between atoms: C_1  and  C_2
REMARK    2  A    between atoms: C_2  and  C_3
REMARK    3  A    between atoms: C_3  and  C_4
REMARK    4  A    between atoms: N_6  and  C_7
REMARK    5  A    between atoms: C_7  and  C_8
REMARK    6  A    between atoms: C_8  and  C_9
REMARK    7  A    between atoms: C_11  and  O_12
REMARK    8  A    between atoms: O_12  and  C_13
REMARK    9  A    between atoms: C_14  and  O_15
REMARK   10  A    between atoms: O_15  and  C_16
REMARK                            x       y       z     vdW  Elec       q    Type
REMARK                         _______ _______ _______ _____ _____    ______ ____
ROOT
ATOM      1  C   UNL     1       5.709   4.624  16.564  0.00  0.00    +0.000 A 
ATOM      2  C   UNL     1       4.532   3.863  16.534  0.00  0.00    +0.000 A 
ATOM      3  C   UNL     1       3.374   4.243  17.228  0.00  0.00    +0.000 A 
ATOM      4  C   UNL     1       3.406   5.399  18.025  0.00  0.00    +0.000 A 
ATOM      5  C   UNL     1       4.586   6.160  18.079  0.00  0.00    +0.000 A 
ATOM      6  C   UNL     1       5.722   5.775  17.353  0.00  0.00    +0.000 A 
ATOM      7 BR   UNL     1       7.264   6.874  17.506  0.00  0.00    +0.000 Br
ENDROOT
BRANCH   3   8
ATOM      8  O   UNL     1       2.220   3.497  17.180  0.00  0.00    +0.000 OA
ATOM      9  C   UNL     1       2.289   2.207  17.794  0.00  0.00    +0.000 C 
ENDBRANCH   3   8
BRANCH   4  10
ATOM     10  O   UNL     1       2.260   5.729  18.710  0.00  0.00    +0.000 OA
ATOM     11  C   UNL     1       2.414   6.242  20.036  0.00  0.00    +0.000 C 
ENDBRANCH   4  10
BRANCH   1  12
ATOM     12  C   UNL     1       6.879   4.120  15.757  0.00  0.00    +0.000 C 
BRANCH  12  13
ATOM     13  C   UNL     1       6.755   4.484  14.279  0.00  0.00    +0.000 C 
BRANCH  13  16
ATOM     14  C   UNL     1       6.355   3.247  12.174  0.00  0.00    +0.000 C 
ATOM     15  O   UNL     1       7.153   3.924  11.542  0.00  0.00    +0.000 OA
ATOM     16  N   UNL     1       6.108   3.428  13.523  0.00  0.00    +0.000 N 
ATOM     17  H   UNL     1       5.543   2.755  14.020  0.00  0.00    +0.000 HD
BRANCH  14  18
ATOM     18  C   UNL     1       5.551   2.128  11.542  0.00  0.00    +0.000 C 
BRANCH  18  20
ATOM     19  C   UNL     1       6.280  -0.300  11.421  0.00  0.00    +0.000 C 
ATOM     20  C   UNL     1       6.419   1.095  10.828  0.00  0.00    +0.000 C 
ENDBRANCH  18  20
ENDBRANCH  14  18
ENDBRANCH  13  16
ENDBRANCH  12  13
ENDBRANCH   1  12
TORSDOF 7
ENDMDL
MODEL 3
REMARK VINA RESULT:      -6.4      3.043      6.678
REMARK  Name = 
REMARK  10 active torsions:
REMARK  status: ('A' for Active; 'I' for Inactive)
REMARK    1  A    between atoms: C_1  and  C_2
REMARK    2  A    between atoms: C_2  and  C_3
REMARK    3  A    between atoms: C_3  and  C_4
REMARK    4  A    between atoms: N_6  and  C_7
REMARK    5  A    between atoms: C_7  and  C_8
REMARK    6  A    between atoms: C_8  and  C_9
REMARK    7  A    between atoms: C_11  and  O_12
REMARK    8  A    between atoms: O_12  and  C_13
REMARK    9  A    between atoms: C_14  and  O_15
REMARK   10  A    between atoms: O_15  and  C_16
REMARK                            x       y       z     vdW  Elec       q    Type
REMARK                         _______ _______ _______ _____ _____    ______ ____
ROOT
ATOM      1  C   UNL     1       5.211   4.724  16.749  0.00  0.00    +0.000 A 
ATOM      2  C   UNL     1       4.099   3.869  16.746  0.00  0.00    +0.000 A 
ATOM      3  C   UNL     1       3.589   3.296  17.919  0.00  0.00    +0.000 A 
ATOM      4  C   UNL     1       4.244   3.542  19.138  0.00  0.00    +0.000 A 
ATOM      5  C   UNL     1       5.370   4.382  19.151  0.00  0.00    +0.000 A 
ATOM      6  C   UNL     1       5.844   4.966  17.969  0.00  0.00    +0.000 A 
ATOM      7 BR   UNL     1       7.380   6.077  18.104  0.00  0.00    +0.000 Br
ENDROOT
BRANCH   3   8
ATOM      8  O   UNL     1       2.489   2.472  17.906  0.00  0.00    +0.000 OA
ATOM      9  C   UNL     1       1.223   3.126  18.025  0.00  0.00    +0.000 C 
ENDBRANCH   3   8
BRANCH   4  10
ATOM     10  O   UNL     1       3.729   2.945  20.265  0.00  0.00    +0.000 OA
ATOM     11  C   UNL     1       2.824   3.715  21.060  0.00  0.00    +0.000 C 
ENDBRANCH   4  10
BRANCH   1  12
ATOM     12  C   UNL     1       5.649   5.295  15.424  0.00  0.00    +0.000 C 
BRANCH  12  13
ATOM     13  C   UNL     1       6.715   4.431  14.753  0.00  0.00    +0.000 C 
BRANCH  13  16
ATOM     14  C   UNL     1       6.402   3.471  12.495  0.00  0.00    +0.000 C 
ATOM     15  O   UNL     1       7.185   4.253  11.976  0.00  0.00    +0.000 OA
ATOM     16  N   UNL     1       6.123   3.462  13.850  0.00  0.00    +0.000 N 
ATOM     17  H   UNL     1       5.577   2.709  14.240  0.00  0.00    +0.000 HD
BRANCH  14  18
ATOM     18  C   UNL     1       5.654   2.417  11.702  0.00  0.00    +0.000 C 
BRANCH  18  20
ATOM     19  C   UNL     1       6.112  -0.037  11.240  0.00  0.00    +0.000 C 
ATOM     20  C   UNL     1       6.576   1.398  11.036  0.00  0.00    +0.000 C 
ENDBRANCH  18  20
ENDBRANCH  14  18
ENDBRANCH  13  16
ENDBRANCH  12  13
ENDBRANCH   1  12
TORSDOF 7
ENDMDL
MODEL 4
REMARK VINA RESULT:      -6.4      2.964      5.274
REMARK  Name = 
REMARK  10 active torsions:
REMARK  status: ('A' for Active; 'I' for Inactive)
REMARK    1  A    between atoms: C_1  and  C_2
REMARK    2  A    between atoms: C_2  and  C_3
REMARK    3  A    between atoms: C_3  and  C_4
REMARK    4  A    between atoms: N_6  and  C_7
REMARK    5  A    between atoms: C_7  and  C_8
REMARK    6  A    between atoms: C_8  and  C_9
REMARK    7  A    between atoms: C_11  and  O_12
REMARK    8  A    between atoms: O_12  and  C_13
REMARK    9  A    between atoms: C_14  and  O_15
REMARK   10  A    between atoms: O_15  and  C_16
REMARK                            x       y       z     vdW  Elec       q    Type
REMARK                         _______ _______ _______ _____ _____    ______ ____
ROOT
ATOM      1  C   UNL     1       2.337   4.817  18.529  0.00  0.00    +0.000 A 
ATOM      2  C   UNL     1       2.613   6.088  18.005  0.00  0.00    +0.000 A 
ATOM      3  C   UNL     1       2.460   7.260  18.758  0.00  0.00    +0.000 A 
ATOM      4  C   UNL     1       1.962   7.169  20.068  0.00  0.00    +0.000 A 
ATOM      5  C   UNL     1       1.662   5.902  20.598  0.00  0.00    +0.000 A 
ATOM      6  C   UNL     1       1.851   4.742  19.836  0.00  0.00    +0.000 A 
ATOM      7 BR   UNL     1       1.405   3.085  20.650  0.00  0.00    +0.000 Br
ENDROOT
BRANCH   3   8
ATOM      8  O   UNL     1       2.749   8.500  18.238  0.00  0.00    +0.000 OA
ATOM      9  C   UNL     1       1.641   9.214  17.684  0.00  0.00    +0.000 C 
ENDBRANCH   3   8
BRANCH   4  10
ATOM     10  O   UNL     1       1.803   8.341  20.768  0.00  0.00    +0.000 OA
ATOM     11  C   UNL     1       0.616   8.478  21.556  0.00  0.00    +0.000 C 
ENDBRANCH   4  10
BRANCH   1  12
ATOM     12  C   UNL     1       2.563   3.631  17.625  0.00  0.00    +0.000 C 
BRANCH  12  13
ATOM     13  C   UNL     1       3.839   2.873  17.985  0.00  0.00    +0.000 C 
BRANCH  13  16
ATOM     14  C   UNL     1       5.950   4.160  18.069  0.00  0.00    +0.000 C 
ATOM     15  O   UNL     1       5.899   4.300  19.282  0.00  0.00    +0.000 OA
ATOM     16  N   UNL     1       5.003   3.457  17.345  0.00  0.00    +0.000 N 
ATOM     17  H   UNL     1       5.170   3.259  16.370  0.00  0.00    +0.000 HD
BRANCH  14  18
ATOM     18  C   UNL     1       7.068   4.740  17.226  0.00  0.00    +0.000 C 
BRANCH  18  20
ATOM     19  C   UNL     1       5.985   7.031  17.086  0.00  0.00    +0.000 C 
ATOM     20  C   UNL     1       7.246   6.245  17.415  0.00  0.00    +0.000 C 
ENDBRANCH  18  20
ENDBRANCH  14  18
ENDBRANCH  13  16
ENDBRANCH  12  13
ENDBRANCH   1  12
TORSDOF 7
ENDMDL
MODEL 5
REMARK VINA RESULT:      -6.3      2.067      5.995
REMARK  Name = 
REMARK  10 active torsions:
REMARK  status: ('A' for Active; 'I' for Inactive)
REMARK    1  A    between atoms: C_1  and  C_2
REMARK    2  A    between atoms: C_2  and  C_3
REMARK    3  A    between atoms: C_3  and  C_4
REMARK    4  A    between atoms: N_6  and  C_7
REMARK    5  A    between atoms: C_7  and  C_8
REMARK    6  A    between atoms: C_8  and  C_9
REMARK    7  A    between atoms: C_11  and  O_12
REMARK    8  A    between atoms: O_12  and  C_13
REMARK    9  A    between atoms: C_14  and  O_15
REMARK   10  A    between atoms: O_15  and  C_16
REMARK                            x       y       z     vdW  Elec       q    Type
REMARK                         _______ _______ _______ _____ _____    ______ ____
ROOT
ATOM      1  C   UNL     1       3.881   6.133  18.083  0.00  0.00    +0.000 A 
ATOM      2  C   UNL     1       4.340   4.813  18.194  0.00  0.00    +0.000 A 
ATOM      3  C   UNL     1       3.661   3.843  18.943  0.00  0.00    +0.000 A 
ATOM      4  C   UNL     1       2.507   4.214  19.653  0.00  0.00    +0.000 A 
ATOM      5  C   UNL     1       2.048   5.539  19.566  0.00  0.00    +0.000 A 
ATOM      6  C   UNL     1       2.728   6.484  18.787  0.00  0.00    +0.000 A 
ATOM      7 BR   UNL     1       2.022   8.248  18.748  0.00  0.00    +0.000 Br
ENDROOT
BRANCH   3   8
ATOM      8  O   UNL     1       4.111   2.546  19.033  0.00  0.00    +0.000 OA
ATOM      9  C   UNL     1       3.529   1.623  18.109  0.00  0.00    +0.000 C 
ENDBRANCH   3   8
BRANCH   4  10
ATOM     10  O   UNL     1       1.880   3.242  20.397  0.00  0.00    +0.000 OA
ATOM     11  C   UNL     1       2.075   3.272  21.814  0.00  0.00    +0.000 C 
ENDBRANCH   4  10
BRANCH   1  12
ATOM     12  C   UNL     1       4.689   7.077  17.228  0.00  0.00    +0.000 C 
BRANCH  12  13
ATOM     13  C   UNL     1       6.080   6.526  16.924  0.00  0.00    +0.000 C 
BRANCH  13  16
ATOM     14  C   UNL     1       7.064   4.953  15.288  0.00  0.00    +0.000 C 
ATOM     15  O   UNL     1       7.851   4.490  16.101  0.00  0.00    +0.000 OA
ATOM     16  N   UNL     1       6.141   5.935  15.600  0.00  0.00    +0.000 N 
ATOM     17  H   UNL     1       5.429   6.180  14.929  0.00  0.00    +0.000 HD
BRANCH  14  18
ATOM     18  C   UNL     1       7.012   4.492  13.845  0.00  0.00    +0.000 C 
BRANCH  18  20
ATOM     19  C   UNL     1       5.690   3.279  12.050  0.00  0.00    +0.000 C 
ATOM     20  C   UNL     1       5.716   3.766  13.492  0.00  0.00    +0.000 C 
ENDBRANCH  18  20
ENDBRANCH  14  18
ENDBRANCH  13  16
ENDBRANCH  12  13
ENDBRANCH   1  12
TORSDOF 7
ENDMDL
MODEL 6
REMARK VINA RESULT:      -6.2      2.164      6.231
REMARK  Name = 
REMARK  10 active torsions:
REMARK  status: ('A' for Active; 'I' for Inactive)
REMARK    1  A    between atoms: C_1  and  C_2
REMARK    2  A    between atoms: C_2  and  C_3
REMARK    3  A    between atoms: C_3  and  C_4
REMARK    4  A    between atoms: N_6  and  C_7
REMARK    5  A    between atoms: C_7  and  C_8
REMARK    6  A    between atoms: C_8  and  C_9
REMARK    7  A    between atoms: C_11  and  O_12
REMARK    8  A    between atoms: O_12  and  C_13
REMARK    9  A    between atoms: C_14  and  O_15
REMARK   10  A    between atoms: O_15  and  C_16
REMARK                            x       y       z     vdW  Elec       q    Type
REMARK                         _______ _______ _______ _____ _____    ______ ____
ROOT
ATOM      1  C   UNL     1       4.555   5.663  18.097  0.00  0.00    +0.000 A 
ATOM      2  C   UNL     1       4.795   4.317  18.410  0.00  0.00    +0.000 A 
ATOM      3  C   UNL     1       3.764   3.431  18.752  0.00  0.00    +0.000 A 
ATOM      4  C   UNL     1       2.448   3.917  18.837  0.00  0.00    +0.000 A 
ATOM      5  C   UNL     1       2.198   5.268  18.545  0.00  0.00    +0.000 A 
ATOM      6  C   UNL     1       3.242   6.128  18.177  0.00  0.00    +0.000 A 
ATOM      7 BR   UNL     1       2.790   7.937  17.813  0.00  0.00    +0.000 Br
ENDROOT
BRANCH   3   8
ATOM      8  O   UNL     1       4.008   2.109  19.042  0.00  0.00    +0.000 OA
ATOM      9  C   UNL     1       4.630   1.856  20.304  0.00  0.00    +0.000 C 
ENDBRANCH   3   8
BRANCH   4  10
ATOM     10  O   UNL     1       1.466   3.025  19.198  0.00  0.00    +0.000 OA
ATOM     11  C   UNL     1       0.919   3.149  20.514  0.00  0.00    +0.000 C 
ENDBRANCH   4  10
BRANCH   1  12
ATOM     12  C   UNL     1       5.747   6.509  17.723  0.00  0.00    +0.000 C 
BRANCH  12  13
ATOM     13  C   UNL     1       5.807   6.781  16.222  0.00  0.00    +0.000 C 
BRANCH  13  16
ATOM     14  C   UNL     1       6.416   4.993  14.624  0.00  0.00    +0.000 C 
ATOM     15  O   UNL     1       7.569   5.386  14.515  0.00  0.00    +0.000 OA
ATOM     16  N   UNL     1       5.485   5.593  15.453  0.00  0.00    +0.000 N 
ATOM     17  H   UNL     1       4.594   5.145  15.606  0.00  0.00    +0.000 HD
BRANCH  14  18
ATOM     18  C   UNL     1       5.885   3.795  13.862  0.00  0.00    +0.000 C 
BRANCH  18  20
ATOM     19  C   UNL     1       5.929   2.462  11.703  0.00  0.00    +0.000 C 
ATOM     20  C   UNL     1       6.449   3.683  12.448  0.00  0.00    +0.000 C 
ENDBRANCH  18  20
ENDBRANCH  14  18
ENDBRANCH  13  16
ENDBRANCH  12  13
ENDBRANCH   1  12
TORSDOF 7
ENDMDL
MODEL 7
REMARK VINA RESULT:      -6.2      2.466      6.353
REMARK  Name = 
REMARK  10 active torsions:
REMARK  status: ('A' for Active; 'I' for Inactive)
REMARK    1  A    between atoms: C_1  and  C_2
REMARK    2  A    between atoms: C_2  and  C_3
REMARK    3  A    between atoms: C_3  and  C_4
REMARK    4  A    between atoms: N_6  and  C_7
REMARK    5  A    between atoms: C_7  and  C_8
REMARK    6  A    between atoms: C_8  and  C_9
REMARK    7  A    between atoms: C_11  and  O_12
REMARK    8  A    between atoms: O_12  and  C_13
REMARK    9  A    between atoms: C_14  and  O_15
REMARK   10  A    between atoms: O_15  and  C_16
REMARK                            x       y       z     vdW  Elec       q    Type
REMARK                         _______ _______ _______ _____ _____    ______ ____
ROOT
ATOM      1  C   UNL     1       4.277   5.582  17.703  0.00  0.00    +0.000 A 
ATOM      2  C   UNL     1       4.601   4.281  18.115  0.00  0.00    +0.000 A 
ATOM      3  C   UNL     1       3.941   3.644  19.175  0.00  0.00    +0.000 A 
ATOM      4  C   UNL     1       2.956   4.347  19.887  0.00  0.00    +0.000 A 
ATOM      5  C   UNL     1       2.636   5.659  19.496  0.00  0.00    +0.000 A 
ATOM      6  C   UNL     1       3.289   6.265  18.415  0.00  0.00    +0.000 A 
ATOM      7 BR   UNL     1       2.782   8.043  17.979  0.00  0.00    +0.000 Br
ENDROOT
BRANCH   3   8
ATOM      8  O   UNL     1       4.256   2.362  19.561  0.00  0.00    +0.000 OA
ATOM      9  C   UNL     1       3.765   1.320  18.713  0.00  0.00    +0.000 C 
ENDBRANCH   3   8
BRANCH   4  10
ATOM     10  O   UNL     1       2.347   3.699  20.936  0.00  0.00    +0.000 OA
ATOM     11  C   UNL     1       1.031   3.183  20.712  0.00  0.00    +0.000 C 
ENDBRANCH   4  10
BRANCH   1  12
ATOM     12  C   UNL     1       5.044   6.149  16.535  0.00  0.00    +0.000 C 
BRANCH  12  13
ATOM     13  C   UNL     1       6.531   6.301  16.846  0.00  0.00    +0.000 C 
BRANCH  13  16
ATOM     14  C   UNL     1       7.834   8.132  17.879  0.00  0.00    +0.000 C 
ATOM     15  O   UNL     1       8.411   7.381  18.652  0.00  0.00    +0.000 OA
ATOM     16  N   UNL     1       6.915   7.697  16.942  0.00  0.00    +0.000 N 
ATOM     17  H   UNL     1       6.574   8.340  16.243  0.00  0.00    +0.000 HD
BRANCH  14  18
ATOM     18  C   UNL     1       8.072   9.629  17.864  0.00  0.00    +0.000 C 
BRANCH  18  20
ATOM     19  C   UNL     1       9.264  10.655  19.856  0.00  0.00    +0.000 C 
ATOM     20  C   UNL     1       9.412  10.032  18.475  0.00  0.00    +0.000 C 
ENDBRANCH  18  20
ENDBRANCH  14  18
ENDBRANCH  13  16
ENDBRANCH  12  13
ENDBRANCH   1  12
TORSDOF 7
ENDMDL
MODEL 8
REMARK VINA RESULT:      -6.2      1.243      1.293
REMARK  Name = 
REMARK  10 active torsions:
REMARK  status: ('A' for Active; 'I' for Inactive)
REMARK    1  A    between atoms: C_1  and  C_2
REMARK    2  A    between atoms: C_2  and  C_3
REMARK    3  A    between atoms: C_3  and  C_4
REMARK    4  A    between atoms: N_6  and  C_7
REMARK    5  A    between atoms: C_7  and  C_8
REMARK    6  A    between atoms: C_8  and  C_9
REMARK    7  A    between atoms: C_11  and  O_12
REMARK    8  A    between atoms: O_12  and  C_13
REMARK    9  A    between atoms: C_14  and  O_15
REMARK   10  A    between atoms: O_15  and  C_16
REMARK                            x       y       z     vdW  Elec       q    Type
REMARK                         _______ _______ _______ _____ _____    ______ ____
ROOT
ATOM      1  C   UNL     1       3.983   4.474  16.922  0.00  0.00    +0.000 A 
ATOM      2  C   UNL     1       5.169   4.198  16.227  0.00  0.00    +0.000 A 
ATOM      3  C   UNL     1       6.225   5.116  16.151  0.00  0.00    +0.000 A 
ATOM      4  C   UNL     1       6.074   6.380  16.746  0.00  0.00    +0.000 A 
ATOM      5  C   UNL     1       4.882   6.676  17.428  0.00  0.00    +0.000 A 
ATOM      6  C   UNL     1       3.852   5.730  17.516  0.00  0.00    +0.000 A 
ATOM      7 BR   UNL     1       2.282   6.241  18.456  0.00  0.00    +0.000 Br
ENDROOT
BRANCH   3   8
ATOM      8  O   UNL     1       7.391   4.829  15.479  0.00  0.00    +0.000 OA
ATOM      9  C   UNL     1       7.308   4.862  14.052  0.00  0.00    +0.000 C 
ENDBRANCH   3   8
BRANCH   4  10
ATOM     10  O   UNL     1       7.122   7.263  16.630  0.00  0.00    +0.000 OA
ATOM     11  C   UNL     1       7.814   7.620  17.830  0.00  0.00    +0.000 C 
ENDBRANCH   4  10
BRANCH   1  12
ATOM     12  C   UNL     1       2.930   3.394  16.950  0.00  0.00    +0.000 C 
BRANCH  12  13
ATOM     13  C   UNL     1       3.355   2.201  17.803  0.00  0.00    +0.000 C 
BRANCH  13  16
ATOM     14  C   UNL     1       1.474   2.419  19.396  0.00  0.00    +0.000 C 
ATOM     15  O   UNL     1       0.631   2.409  18.510  0.00  0.00    +0.000 OA
ATOM     16  N   UNL     1       2.831   2.299  19.153  0.00  0.00    +0.000 N 
ATOM     17  H   UNL     1       3.466   2.177  19.928  0.00  0.00    +0.000 HD
BRANCH  14  18
ATOM     18  C   UNL     1       1.118   2.560  20.862  0.00  0.00    +0.000 C 
BRANCH  18  20
ATOM     19  C   UNL     1       2.265   4.767  21.371  0.00  0.00    +0.000 C 
ATOM     20  C   UNL     1       2.193   3.277  21.676  0.00  0.00    +0.000 C 
ENDBRANCH  18  20
ENDBRANCH  14  18
ENDBRANCH  13  16
ENDBRANCH  12  13
ENDBRANCH   1  12
TORSDOF 7
ENDMDL
MODEL 9
REMARK VINA RESULT:      -6.2      2.293      5.881
REMARK  Name = 
REMARK  10 active torsions:
REMARK  status: ('A' for Active; 'I' for Inactive)
REMARK    1  A    between atoms: C_1  and  C_2
REMARK    2  A    between atoms: C_2  and  C_3
REMARK    3  A    between atoms: C_3  and  C_4
REMARK    4  A    between atoms: N_6  and  C_7
REMARK    5  A    between atoms: C_7  and  C_8
REMARK    6  A    between atoms: C_8  and  C_9
REMARK    7  A    between atoms: C_11  and  O_12
REMARK    8  A    between atoms: O_12  and  C_13
REMARK    9  A    between atoms: C_14  and  O_15
REMARK   10  A    between atoms: O_15  and  C_16
REMARK                            x       y       z     vdW  Elec       q    Type
REMARK                         _______ _______ _______ _____ _____    ______ ____
ROOT
ATOM      1  C   UNL     1       3.841   5.132  17.241  0.00  0.00    +0.000 A 
ATOM      2  C   UNL     1       3.880   3.731  17.294  0.00  0.00    +0.000 A 
ATOM      3  C   UNL     1       3.047   2.989  18.142  0.00  0.00    +0.000 A 
ATOM      4  C   UNL     1       2.176   3.669  19.009  0.00  0.00    +0.000 A 
ATOM      5  C   UNL     1       2.142   5.074  18.980  0.00  0.00    +0.000 A 
ATOM      6  C   UNL     1       2.965   5.793  18.103  0.00  0.00    +0.000 A 
ATOM      7 BR   UNL     1       2.842   7.689  18.154  0.00  0.00    +0.000 Br
ENDROOT
BRANCH   3   8
ATOM      8  O   UNL     1       3.082   1.614  18.174  0.00  0.00    +0.000 OA
ATOM      9  C   UNL     1       4.172   1.039  18.900  0.00  0.00    +0.000 C 
ENDBRANCH   3   8
BRANCH   4  10
ATOM     10  O   UNL     1       1.390   2.909  19.843  0.00  0.00    +0.000 OA
ATOM     11  C   UNL     1       1.611   3.039  21.251  0.00  0.00    +0.000 C 
ENDBRANCH   4  10
BRANCH   1  12
ATOM     12  C   UNL     1       4.773   5.814  16.271  0.00  0.00    +0.000 C 
BRANCH  12  13
ATOM     13  C   UNL     1       6.223   5.378  16.468  0.00  0.00    +0.000 C 
BRANCH  13  16
ATOM     14  C   UNL     1       7.601   6.374  18.265  0.00  0.00    +0.000 C 
ATOM     15  O   UNL     1       7.498   5.391  18.985  0.00  0.00    +0.000 OA
ATOM     16  N   UNL     1       7.034   6.455  17.006  0.00  0.00    +0.000 N 
ATOM     17  H   UNL     1       7.266   7.232  16.405  0.00  0.00    +0.000 HD
BRANCH  14  18
ATOM     18  C   UNL     1       8.371   7.612  18.678  0.00  0.00    +0.000 C 
BRANCH  18  20
ATOM     19  C   UNL     1       8.759  10.090  18.286  0.00  0.00    +0.000 C 
ATOM     20  C   UNL     1       8.112   8.812  17.770  0.00  0.00    +0.000 C 
ENDBRANCH  18  20
ENDBRANCH  14  18
ENDBRANCH  13  16
ENDBRANCH  12  13
ENDBRANCH   1  12
TORSDOF 7
ENDMDL
