MODEL 1
REMARK VINA RESULT:      -5.6      0.000      0.000
REMARK  Name = 
REMARK  5 active torsions:
REMARK  status: ('A' for Active; 'I' for Inactive)
REMARK    1  A    between atoms: C_1  and  C_2
REMARK    2  A    between atoms: C_2  and  O_3
REMARK    3  A    between atoms: O_3  and  C_4
REMARK    4  A    between atoms: C_4  and  C_6
REMARK    5  A    between atoms: C_11  and  O_12
REMARK                            x       y       z     vdW  Elec       q    Type
REMARK                         _______ _______ _______ _____ _____    ______ ____
ROOT
ATOM      1  C   UNL     1       2.899   2.588  20.045  0.00  0.00    +0.000 A 
ATOM      2  C   UNL     1       2.083   2.326  18.912  0.00  0.00    +0.000 A 
ATOM      3  N   UNL     1       2.529   1.908  17.726  0.00  0.00    +0.000 N 
ATOM      4  N   UNL     1       0.790   2.528  19.159  0.00  0.00    +0.000 NA
ATOM      5  N   UNL     1       0.764   2.893  20.444  0.00  0.00    +0.000 N 
ATOM      6  C   UNL     1       1.998   2.952  21.035  0.00  0.00    +0.000 A 
ATOM      7  H   UNL     1       3.521   1.873  17.503  0.00  0.00    +0.000 HD
ATOM      8  H   UNL     1       1.891   1.860  16.942  0.00  0.00    +0.000 HD
ATOM      9  H   UNL     1      -0.140   3.081  20.862  0.00  0.00    +0.000 HD
ENDROOT
BRANCH   1  10
ATOM     10  C   UNL     1       4.331   2.432  20.162  0.00  0.00    +0.000 C 
ATOM     11  O   UNL     1       4.872   1.793  21.061  0.00  0.00    +0.000 OA
BRANCH  10  12
ATOM     12  O   UNL     1       5.015   3.149  19.220  0.00  0.00    +0.000 OA
BRANCH  12  14
ATOM     13  C   UNL     1       6.140   5.246  19.044  0.00  0.00    +0.000 C 
ATOM     14  C   UNL     1       4.796   4.563  19.229  0.00  0.00    +0.000 C 
ENDBRANCH  12  14
ENDBRANCH  10  12
ENDBRANCH   1  10
BRANCH   6  15
ATOM     15  O   UNL     1       2.177   3.282  22.310  0.00  0.00    +0.000 OA
ATOM     16  H   UNL     1       2.915   3.904  22.407  0.00  0.00    +0.000 HD
ENDBRANCH   6  15
TORSDOF 4
ENDMDL
MODEL 2
REMARK VINA RESULT:      -5.5      4.796      6.270
REMARK  Name = 
REMARK  5 active torsions:
REMARK  status: ('A' for Active; 'I' for Inactive)
REMARK    1  A    between atoms: C_1  and  C_2
REMARK    2  A    between atoms: C_2  and  O_3
REMARK    3  A    between atoms: O_3  and  C_4
REMARK    4  A    between atoms: C_4  and  C_6
REMARK    5  A    between atoms: C_11  and  O_12
REMARK                            x       y       z     vdW  Elec       q    Type
REMARK                         _______ _______ _______ _____ _____    ______ ____
ROOT
ATOM      1  C   UNL     1       6.486   5.747  17.315  0.00  0.00    +0.000 A 
ATOM      2  C   UNL     1       7.405   6.740  17.747  0.00  0.00    +0.000 A 
ATOM      3  N   UNL     1       7.688   7.863  17.084  0.00  0.00    +0.000 N 
ATOM      4  N   UNL     1       7.961   6.443  18.919  0.00  0.00    +0.000 NA
ATOM      5  N   UNL     1       7.392   5.282  19.257  0.00  0.00    +0.000 N 
ATOM      6  C   UNL     1       6.498   4.807  18.335  0.00  0.00    +0.000 A 
ATOM      7  H   UNL     1       7.358   8.029  16.136  0.00  0.00    +0.000 HD
ATOM      8  H   UNL     1       8.441   8.456  17.406  0.00  0.00    +0.000 HD
ATOM      9  H   UNL     1       7.656   4.869  20.145  0.00  0.00    +0.000 HD
ENDROOT
BRANCH   1  10
ATOM     10  C   UNL     1       5.665   5.755  16.125  0.00  0.00    +0.000 C 
ATOM     11  O   UNL     1       5.241   6.781  15.601  0.00  0.00    +0.000 OA
BRANCH  10  12
ATOM     12  O   UNL     1       5.338   4.495  15.706  0.00  0.00    +0.000 OA
BRANCH  12  14
ATOM     13  C   UNL     1       5.851   3.875  13.460  0.00  0.00    +0.000 C 
ATOM     14  C   UNL     1       6.318   3.829  14.904  0.00  0.00    +0.000 C 
ENDBRANCH  12  14
ENDBRANCH  10  12
ENDBRANCH   1  10
BRANCH   6  15
ATOM     15  O   UNL     1       5.820   3.676  18.498  0.00  0.00    +0.000 OA
ATOM     16  H   UNL     1       6.377   2.906  18.298  0.00  0.00    +0.000 HD
ENDBRANCH   6  15
TORSDOF 4
ENDMDL
MODEL 3
REMARK VINA RESULT:      -5.5      4.360      5.763
REMARK  Name = 
REMARK  5 active torsions:
REMARK  status: ('A' for Active; 'I' for Inactive)
REMARK    1  A    between atoms: C_1  and  C_2
REMARK    2  A    between atoms: C_2  and  O_3
REMARK    3  A    between atoms: O_3  and  C_4
REMARK    4  A    between atoms: C_4  and  C_6
REMARK    5  A    between atoms: C_11  and  O_12
REMARK                            x       y       z     vdW  Elec       q    Type
REMARK                         _______ _______ _______ _____ _____    ______ ____
ROOT
ATOM      1  C   UNL     1       6.553   4.834  17.456  0.00  0.00    +0.000 A 
ATOM      2  C   UNL     1       7.027   5.595  18.558  0.00  0.00    +0.000 A 
ATOM      3  N   UNL     1       7.957   6.550  18.487  0.00  0.00    +0.000 N 
ATOM      4  N   UNL     1       6.425   5.268  19.699  0.00  0.00    +0.000 NA
ATOM      5  N   UNL     1       5.553   4.321  19.340  0.00  0.00    +0.000 N 
ATOM      6  C   UNL     1       5.581   4.011  18.006  0.00  0.00    +0.000 A 
ATOM      7  H   UNL     1       8.501   6.713  17.642  0.00  0.00    +0.000 HD
ATOM      8  H   UNL     1       8.318   6.959  19.338  0.00  0.00    +0.000 HD
ATOM      9  H   UNL     1       4.956   3.932  20.061  0.00  0.00    +0.000 HD
ENDROOT
BRANCH   1  10
ATOM     10  C   UNL     1       6.938   4.947  16.068  0.00  0.00    +0.000 C 
ATOM     11  O   UNL     1       7.551   5.909  15.611  0.00  0.00    +0.000 OA
BRANCH  10  12
ATOM     12  O   UNL     1       6.466   3.914  15.307  0.00  0.00    +0.000 OA
BRANCH  12  14
ATOM     13  C   UNL     1       6.184   3.621  12.956  0.00  0.00    +0.000 C 
ATOM     14  C   UNL     1       5.628   4.280  14.207  0.00  0.00    +0.000 C 
ENDBRANCH  12  14
ENDBRANCH  10  12
ENDBRANCH   1  10
BRANCH   6  15
ATOM     15  O   UNL     1       4.779   3.106  17.456  0.00  0.00    +0.000 OA
ATOM     16  H   UNL     1       4.027   2.910  18.037  0.00  0.00    +0.000 HD
ENDBRANCH   6  15
TORSDOF 4
ENDMDL
MODEL 4
REMARK VINA RESULT:      -5.5      2.858      4.315
REMARK  Name = 
REMARK  5 active torsions:
REMARK  status: ('A' for Active; 'I' for Inactive)
REMARK    1  A    between atoms: C_1  and  C_2
REMARK    2  A    between atoms: C_2  and  O_3
REMARK    3  A    between atoms: O_3  and  C_4
REMARK    4  A    between atoms: C_4  and  C_6
REMARK    5  A    between atoms: C_11  and  O_12
REMARK                            x       y       z     vdW  Elec       q    Type
REMARK                         _______ _______ _______ _____ _____    ______ ____
ROOT
ATOM      1  C   UNL     1       3.558   4.028  18.609  0.00  0.00    +0.000 A 
ATOM      2  C   UNL     1       4.712   3.458  19.211  0.00  0.00    +0.000 A 
ATOM      3  N   UNL     1       4.820   2.190  19.612  0.00  0.00    +0.000 N 
ATOM      4  N   UNL     1       5.710   4.331  19.326  0.00  0.00    +0.000 NA
ATOM      5  N   UNL     1       5.219   5.450  18.783  0.00  0.00    +0.000 N 
ATOM      6  C   UNL     1       3.930   5.336  18.336  0.00  0.00    +0.000 A 
ATOM      7  H   UNL     1       4.021   1.561  19.637  0.00  0.00    +0.000 HD
ATOM      8  H   UNL     1       5.635   1.900  20.137  0.00  0.00    +0.000 HD
ATOM      9  H   UNL     1       5.828   6.259  18.741  0.00  0.00    +0.000 HD
ENDROOT
BRANCH   1  10
ATOM     10  C   UNL     1       2.312   3.373  18.284  0.00  0.00    +0.000 C 
ATOM     11  O   UNL     1       1.652   3.633  17.280  0.00  0.00    +0.000 OA
BRANCH  10  12
ATOM     12  O   UNL     1       1.905   2.506  19.259  0.00  0.00    +0.000 OA
BRANCH  12  14
ATOM     13  C   UNL     1       1.667   2.685  21.627  0.00  0.00    +0.000 C 
ATOM     14  C   UNL     1       1.071   3.061  20.281  0.00  0.00    +0.000 C 
ENDBRANCH  12  14
ENDBRANCH  10  12
ENDBRANCH   1  10
BRANCH   6  15
ATOM     15  O   UNL     1       3.275   6.334  17.753  0.00  0.00    +0.000 OA
ATOM     16  H   UNL     1       3.571   6.456  16.837  0.00  0.00    +0.000 HD
ENDBRANCH   6  15
TORSDOF 4
ENDMDL
MODEL 5
REMARK VINA RESULT:      -5.5      2.807      4.241
REMARK  Name = 
REMARK  5 active torsions:
REMARK  status: ('A' for Active; 'I' for Inactive)
REMARK    1  A    between atoms: C_1  and  C_2
REMARK    2  A    between atoms: C_2  and  O_3
REMARK    3  A    between atoms: O_3  and  C_4
REMARK    4  A    between atoms: C_4  and  C_6
REMARK    5  A    between atoms: C_11  and  O_12
REMARK                            x       y       z     vdW  Elec       q    Type
REMARK                         _______ _______ _______ _____ _____    ______ ____
ROOT
ATOM      1  C   UNL     1       3.626   3.933  18.588  0.00  0.00    +0.000 A 
ATOM      2  C   UNL     1       4.051   5.273  18.383  0.00  0.00    +0.000 A 
ATOM      3  N   UNL     1       3.309   6.237  17.835  0.00  0.00    +0.000 N 
ATOM      4  N   UNL     1       5.291   5.485  18.818  0.00  0.00    +0.000 NA
ATOM      5  N   UNL     1       5.660   4.303  19.322  0.00  0.00    +0.000 N 
ATOM      6  C   UNL     1       4.706   3.327  19.212  0.00  0.00    +0.000 A 
ATOM      7  H   UNL     1       2.413   6.045  17.394  0.00  0.00    +0.000 HD
ATOM      8  H   UNL     1       3.732   7.130  17.620  0.00  0.00    +0.000 HD
ATOM      9  H   UNL     1       6.582   4.235  19.737  0.00  0.00    +0.000 HD
ENDROOT
BRANCH   1  10
ATOM     10  C   UNL     1       2.336   3.355  18.288  0.00  0.00    +0.000 C 
ATOM     11  O   UNL     1       1.658   3.679  17.316  0.00  0.00    +0.000 OA
BRANCH  10  12
ATOM     12  O   UNL     1       1.915   2.482  19.253  0.00  0.00    +0.000 OA
BRANCH  12  14
ATOM     13  C   UNL     1       1.700   2.715  21.617  0.00  0.00    +0.000 C 
ATOM     14  C   UNL     1       1.074   3.033  20.271  0.00  0.00    +0.000 C 
ENDBRANCH  12  14
ENDBRANCH  10  12
ENDBRANCH   1  10
BRANCH   6  15
ATOM     15  O   UNL     1       4.880   2.090  19.667  0.00  0.00    +0.000 OA
ATOM     16  H   UNL     1       5.147   1.491  18.951  0.00  0.00    +0.000 HD
ENDBRANCH   6  15
TORSDOF 4
ENDMDL
MODEL 6
REMARK VINA RESULT:      -5.4      2.315      2.949
REMARK  Name = 
REMARK  5 active torsions:
REMARK  status: ('A' for Active; 'I' for Inactive)
REMARK    1  A    between atoms: C_1  and  C_2
REMARK    2  A    between atoms: C_2  and  O_3
REMARK    3  A    between atoms: O_3  and  C_4
REMARK    4  A    between atoms: C_4  and  C_6
REMARK    5  A    between atoms: C_11  and  O_12
REMARK                            x       y       z     vdW  Elec       q    Type
REMARK                         _______ _______ _______ _____ _____    ______ ____
ROOT
ATOM      1  C   UNL     1       3.594   3.189  18.271  0.00  0.00    +0.000 A 
ATOM      2  C   UNL     1       2.282   3.696  18.067  0.00  0.00    +0.000 A 
ATOM      3  N   UNL     1       1.976   4.983  17.895  0.00  0.00    +0.000 N 
ATOM      4  N   UNL     1       1.363   2.734  18.047  0.00  0.00    +0.000 NA
ATOM      5  N   UNL     1       2.071   1.612  18.212  0.00  0.00    +0.000 N 
ATOM      6  C   UNL     1       3.417   1.816  18.356  0.00  0.00    +0.000 A 
ATOM      7  H   UNL     1       2.659   5.725  18.033  0.00  0.00    +0.000 HD
ATOM      8  H   UNL     1       1.005   5.266  17.874  0.00  0.00    +0.000 HD
ATOM      9  H   UNL     1       1.568   0.732  18.207  0.00  0.00    +0.000 HD
ENDROOT
BRANCH   1  10
ATOM     10  C   UNL     1       4.836   3.928  18.303  0.00  0.00    +0.000 C 
ATOM     11  O   UNL     1       5.669   3.814  19.198  0.00  0.00    +0.000 OA
BRANCH  10  12
ATOM     12  O   UNL     1       4.934   4.831  17.280  0.00  0.00    +0.000 OA
BRANCH  12  14
ATOM     13  C   UNL     1       6.818   4.516  15.850  0.00  0.00    +0.000 C 
ATOM     14  C   UNL     1       5.324   4.298  16.011  0.00  0.00    +0.000 C 
ENDBRANCH  12  14
ENDBRANCH  10  12
ENDBRANCH   1  10
BRANCH   6  15
ATOM     15  O   UNL     1       4.288   0.825  18.516  0.00  0.00    +0.000 OA
ATOM     16  H   UNL     1       3.831  -0.012  18.696  0.00  0.00    +0.000 HD
ENDBRANCH   6  15
TORSDOF 4
ENDMDL
MODEL 7
REMARK VINA RESULT:      -5.4      1.996      2.678
REMARK  Name = 
REMARK  5 active torsions:
REMARK  status: ('A' for Active; 'I' for Inactive)
REMARK    1  A    between atoms: C_1  and  C_2
REMARK    2  A    between atoms: C_2  and  O_3
REMARK    3  A    between atoms: O_3  and  C_4
REMARK    4  A    between atoms: C_4  and  C_6
REMARK    5  A    between atoms: C_11  and  O_12
REMARK                            x       y       z     vdW  Elec       q    Type
REMARK                         _______ _______ _______ _____ _____    ______ ____
ROOT
ATOM      1  C   UNL     1       3.772   3.463  18.928  0.00  0.00    +0.000 A 
ATOM      2  C   UNL     1       2.580   3.439  18.156  0.00  0.00    +0.000 A 
ATOM      3  N   UNL     1       1.957   4.516  17.673  0.00  0.00    +0.000 N 
ATOM      4  N   UNL     1       2.139   2.202  17.939  0.00  0.00    +0.000 NA
ATOM      5  N   UNL     1       3.047   1.430  18.543  0.00  0.00    +0.000 N 
ATOM      6  C   UNL     1       4.053   2.125  19.160  0.00  0.00    +0.000 A 
ATOM      7  H   UNL     1       2.224   5.461  17.941  0.00  0.00    +0.000 HD
ATOM      8  H   UNL     1       1.052   4.414  17.235  0.00  0.00    +0.000 HD
ATOM      9  H   UNL     1       2.923   0.425  18.488  0.00  0.00    +0.000 HD
ENDROOT
BRANCH   1  10
ATOM     10  C   UNL     1       4.556   4.614  19.315  0.00  0.00    +0.000 C 
ATOM     11  O   UNL     1       4.070   5.721  19.538  0.00  0.00    +0.000 OA
BRANCH  10  12
ATOM     12  O   UNL     1       5.899   4.358  19.314  0.00  0.00    +0.000 OA
BRANCH  12  14
ATOM     13  C   UNL     1       7.740   5.850  19.037  0.00  0.00    +0.000 C 
ATOM     14  C   UNL     1       6.666   5.048  18.323  0.00  0.00    +0.000 C 
ENDBRANCH  12  14
ENDBRANCH  10  12
ENDBRANCH   1  10
BRANCH   6  15
ATOM     15  O   UNL     1       5.056   1.533  19.801  0.00  0.00    +0.000 OA
ATOM     16  H   UNL     1       4.727   0.996  20.539  0.00  0.00    +0.000 HD
ENDBRANCH   6  15
TORSDOF 4
ENDMDL
MODEL 8
REMARK VINA RESULT:      -5.4      3.463      5.379
REMARK  Name = 
REMARK  5 active torsions:
REMARK  status: ('A' for Active; 'I' for Inactive)
REMARK    1  A    between atoms: C_1  and  C_2
REMARK    2  A    between atoms: C_2  and  O_3
REMARK    3  A    between atoms: O_3  and  C_4
REMARK    4  A    between atoms: C_4  and  C_6
REMARK    5  A    between atoms: C_11  and  O_12
REMARK                            x       y       z     vdW  Elec       q    Type
REMARK                         _______ _______ _______ _____ _____    ______ ____
ROOT
ATOM      1  C   UNL     1       5.791   5.339  17.917  0.00  0.00    +0.000 A 
ATOM      2  C   UNL     1       5.415   6.428  17.086  0.00  0.00    +0.000 A 
ATOM      3  N   UNL     1       4.270   7.106  17.183  0.00  0.00    +0.000 N 
ATOM      4  N   UNL     1       6.348   6.727  16.185  0.00  0.00    +0.000 NA
ATOM      5  N   UNL     1       7.330   5.858  16.443  0.00  0.00    +0.000 N 
ATOM      6  C   UNL     1       7.058   4.994  17.469  0.00  0.00    +0.000 A 
ATOM      7  H   UNL     1       3.510   6.800  17.786  0.00  0.00    +0.000 HD
ATOM      8  H   UNL     1       4.033   7.789  16.475  0.00  0.00    +0.000 HD
ATOM      9  H   UNL     1       8.171   5.917  15.879  0.00  0.00    +0.000 HD
ENDROOT
BRANCH   1  10
ATOM     10  C   UNL     1       5.058   4.774  19.026  0.00  0.00    +0.000 C 
ATOM     11  O   UNL     1       4.296   5.425  19.737  0.00  0.00    +0.000 OA
BRANCH  10  12
ATOM     12  O   UNL     1       5.376   3.463  19.252  0.00  0.00    +0.000 OA
BRANCH  12  14
ATOM     13  C   UNL     1       3.652   1.951  18.592  0.00  0.00    +0.000 C 
ATOM     14  C   UNL     1       4.323   2.643  19.766  0.00  0.00    +0.000 C 
ENDBRANCH  12  14
ENDBRANCH  10  12
ENDBRANCH   1  10
BRANCH   6  15
ATOM     15  O   UNL     1       7.917   4.067  17.884  0.00  0.00    +0.000 OA
ATOM     16  H   UNL     1       8.740   4.103  17.371  0.00  0.00    +0.000 HD
ENDBRANCH   6  15
TORSDOF 4
ENDMDL
MODEL 9
REMARK VINA RESULT:      -5.4      4.028      5.333
REMARK  Name = 
REMARK  5 active torsions:
REMARK  status: ('A' for Active; 'I' for Inactive)
REMARK    1  A    between atoms: C_1  and  C_2
REMARK    2  A    between atoms: C_2  and  O_3
REMARK    3  A    between atoms: O_3  and  C_4
REMARK    4  A    between atoms: C_4  and  C_6
REMARK    5  A    between atoms: C_11  and  O_12
REMARK                            x       y       z     vdW  Elec       q    Type
REMARK                         _______ _______ _______ _____ _____    ______ ____
ROOT
ATOM      1  C   UNL     1       5.762   5.518  18.052  0.00  0.00    +0.000 A 
ATOM      2  C   UNL     1       7.048   5.267  17.503  0.00  0.00    +0.000 A 
ATOM      3  N   UNL     1       7.877   4.301  17.903  0.00  0.00    +0.000 N 
ATOM      4  N   UNL     1       7.349   6.102  16.511  0.00  0.00    +0.000 NA
ATOM      5  N   UNL     1       6.262   6.871  16.400  0.00  0.00    +0.000 N 
ATOM      6  C   UNL     1       5.272   6.575  17.299  0.00  0.00    +0.000 A 
ATOM      7  H   UNL     1       7.699   3.747  18.737  0.00  0.00    +0.000 HD
ATOM      8  H   UNL     1       8.819   4.269  17.537  0.00  0.00    +0.000 HD
ATOM      9  H   UNL     1       6.258   7.581  15.676  0.00  0.00    +0.000 HD
ENDROOT
BRANCH   1  10
ATOM     10  C   UNL     1       5.087   4.789  19.101  0.00  0.00    +0.000 C 
ATOM     11  O   UNL     1       5.385   3.643  19.429  0.00  0.00    +0.000 OA
BRANCH  10  12
ATOM     12  O   UNL     1       4.025   5.477  19.619  0.00  0.00    +0.000 OA
BRANCH  12  14
ATOM     13  C   UNL     1       2.197   4.705  20.944  0.00  0.00    +0.000 C 
ATOM     14  C   UNL     1       2.755   4.823  19.536  0.00  0.00    +0.000 C 
ENDBRANCH  12  14
ENDBRANCH  10  12
ENDBRANCH   1  10
BRANCH   6  15
ATOM     15  O   UNL     1       4.110   7.219  17.336  0.00  0.00    +0.000 OA
ATOM     16  H   UNL     1       3.927   7.653  16.487  0.00  0.00    +0.000 HD
ENDBRANCH   6  15
TORSDOF 4
ENDMDL
