MODEL 1
REMARK VINA RESULT:      -8.1      0.000      0.000
REMARK  Name = 
REMARK  9 active torsions:
REMARK  status: ('A' for Active; 'I' for Inactive)
REMARK    1  A    between atoms: C_1  and  O_2
REMARK    2  A    between atoms: O_2  and  C_3
REMARK    3  A    between atoms: C_3  and  C_5
REMARK    4  A    between atoms: C_7  and  C_8
REMARK    5  A    between atoms: C_11  and  C_12
REMARK    6  A    between atoms: C_12  and  C_13
REMARK    7  A    between atoms: C_13  and  C_14
REMARK    8  A    between atoms: C_13  and  N_16
REMARK    9  A    between atoms: C_17  and  C_19
REMARK                            x       y       z     vdW  Elec       q    Type
REMARK                         _______ _______ _______ _____ _____    ______ ____
ROOT
ATOM      1  C   UNL     1       0.061  10.653  19.486  0.00  0.00    +0.000 C 
ENDROOT
BRANCH   1   5
ATOM      2  C   UNL     1       2.750   7.324  18.743  0.00  0.00    +0.000 A 
ATOM      3  C   UNL     1       2.489   8.272  17.745  0.00  0.00    +0.000 A 
ATOM      4  C   UNL     1       1.601   9.332  17.969  0.00  0.00    +0.000 A 
ATOM      5  C   UNL     1       0.957   9.465  19.204  0.00  0.00    +0.000 A 
ATOM      6  C   UNL     1       1.195   8.491  20.178  0.00  0.00    +0.000 A 
ATOM      7  F   UNL     1       0.584   8.577  21.368  0.00  0.00    +0.000 F 
ATOM      8  C   UNL     1       2.083   7.439  19.964  0.00  0.00    +0.000 A 
BRANCH   2  11
ATOM      9  C   UNL     1       5.423   4.971  17.519  0.00  0.00    +0.000 A 
ATOM     10  C   UNL     1       4.640   6.110  17.439  0.00  0.00    +0.000 A 
ATOM     11  C   UNL     1       3.724   6.250  18.538  0.00  0.00    +0.000 A 
ATOM     12  C   UNL     1       3.879   5.207  19.430  0.00  0.00    +0.000 A 
ATOM     13  S   UNL     1       5.068   4.082  18.937  0.00  0.00    +0.000 S 
BRANCH   9  14
ATOM     14  C   UNL     1       6.444   4.483  16.606  0.00  0.00    +0.000 C 
ATOM     15  O   UNL     1       7.646   4.686  16.687  0.00  0.00    +0.000 OA
BRANCH  14  17
ATOM     16  C   UNL     1       6.316   4.053  14.306  0.00  0.00    +0.000 C 
ATOM     17  O   UNL     1       5.857   3.740  15.621  0.00  0.00    +0.000 OA
ENDBRANCH  14  17
ENDBRANCH   9  14
ENDBRANCH   2  11
ENDBRANCH   1   5
BRANCH   1  18
ATOM     18  C   UNL     1       0.664  11.648  20.497  0.00  0.00    +0.000 C 
BRANCH  18  19
ATOM     19  N   UNL     1      -0.357  12.440  21.191  0.00  0.00    +0.000 N 
ATOM     20  C   UNL     1      -0.721  12.032  22.459  0.00  0.00    +0.000 C 
ATOM     21  O   UNL     1      -0.237  11.016  22.957  0.00  0.00    +0.000 OA
ATOM     22  H   UNL     1      -0.564  13.391  20.901  0.00  0.00    +0.000 HD
BRANCH  20  23
ATOM     23  C   UNL     1      -1.714  12.906  23.235  0.00  0.00    +0.000 C 
ATOM     24  N   UNL     1      -2.040  14.218  22.551  0.00  0.00    +0.000 NA
ATOM     25  C   UNL     1      -3.515  14.132  22.315  0.00  0.00    +0.000 C 
ATOM     26  C   UNL     1      -3.648  12.663  21.923  0.00  0.00    +0.000 C 
ATOM     27  C   UNL     1      -3.084  12.182  23.270  0.00  0.00    +0.000 C 
ATOM     28  C   UNL     1      -3.939  12.886  24.313  0.00  0.00    +0.000 C 
ATOM     29  C   UNL     1      -5.362  13.321  24.089  0.00  0.00    +0.000 C 
ATOM     30  C   UNL     1      -4.207  14.214  23.674  0.00  0.00    +0.000 C 
ATOM     31  H   UNL     1      -1.596  14.224  21.634  0.00  0.00    +0.000 HD
ENDBRANCH  20  23
ENDBRANCH  18  19
BRANCH  18  32
ATOM     32  C   UNL     1       1.736  12.508  19.847  0.00  0.00    +0.000 C 
ATOM     33  N   UNL     1       2.624  13.223  19.308  0.00  0.00    +0.000 NA
ENDBRANCH  18  32
ENDBRANCH   1  18
TORSDOF 8
ENDMDL
MODEL 2
REMARK VINA RESULT:      -8.1      7.510      9.738
REMARK  Name = 
REMARK  9 active torsions:
REMARK  status: ('A' for Active; 'I' for Inactive)
REMARK    1  A    between atoms: C_1  and  O_2
REMARK    2  A    between atoms: O_2  and  C_3
REMARK    3  A    between atoms: C_3  and  C_5
REMARK    4  A    between atoms: C_7  and  C_8
REMARK    5  A    between atoms: C_11  and  C_12
REMARK    6  A    between atoms: C_12  and  C_13
REMARK    7  A    between atoms: C_13  and  C_14
REMARK    8  A    between atoms: C_13  and  N_16
REMARK    9  A    between atoms: C_17  and  C_19
REMARK                            x       y       z     vdW  Elec       q    Type
REMARK                         _______ _______ _______ _____ _____    ______ ____
ROOT
ATOM      1  C   UNL     1       6.902   4.920  17.189  0.00  0.00    +0.000 C 
ENDROOT
BRANCH   1   5
ATOM      2  C   UNL     1       8.411   8.824  18.352  0.00  0.00    +0.000 A 
ATOM      3  C   UNL     1       7.741   8.647  17.134  0.00  0.00    +0.000 A 
ATOM      4  C   UNL     1       7.277   7.385  16.740  0.00  0.00    +0.000 A 
ATOM      5  C   UNL     1       7.473   6.272  17.565  0.00  0.00    +0.000 A 
ATOM      6  C   UNL     1       8.177   6.453  18.759  0.00  0.00    +0.000 A 
ATOM      7  F   UNL     1       8.396   5.407  19.567  0.00  0.00    +0.000 F 
ATOM      8  C   UNL     1       8.633   7.706  19.160  0.00  0.00    +0.000 A 
BRANCH   2  11
ATOM      9  C   UNL     1       9.285  12.465  18.746  0.00  0.00    +0.000 A 
ATOM     10  C   UNL     1       8.777  11.378  18.056  0.00  0.00    +0.000 A 
ATOM     11  C   UNL     1       8.843  10.149  18.799  0.00  0.00    +0.000 A 
ATOM     12  C   UNL     1       9.380  10.373  20.052  0.00  0.00    +0.000 A 
ATOM     13  S   UNL     1       9.819  12.005  20.305  0.00  0.00    +0.000 S 
BRANCH   9  14
ATOM     14  C   UNL     1       9.401  13.854  18.331  0.00  0.00    +0.000 C 
ATOM     15  O   UNL     1       8.524  14.531  17.815  0.00  0.00    +0.000 OA
BRANCH  14  17
ATOM     16  C   UNL     1      11.248  15.071  17.557  0.00  0.00    +0.000 C 
ATOM     17  O   UNL     1      10.657  14.310  18.612  0.00  0.00    +0.000 OA
ENDBRANCH  14  17
ENDBRANCH   9  14
ENDBRANCH   2  11
ENDBRANCH   1   5
BRANCH   1  18
ATOM     18  C   UNL     1       5.637   5.012  16.314  0.00  0.00    +0.000 C 
BRANCH  18  19
ATOM     19  N   UNL     1       4.454   4.440  16.965  0.00  0.00    +0.000 N 
ATOM     20  C   UNL     1       3.640   5.303  17.671  0.00  0.00    +0.000 C 
ATOM     21  O   UNL     1       3.930   6.493  17.783  0.00  0.00    +0.000 OA
ATOM     22  H   UNL     1       4.083   3.540  16.673  0.00  0.00    +0.000 HD
BRANCH  20  23
ATOM     23  C   UNL     1       2.347   4.737  18.274  0.00  0.00    +0.000 C 
ATOM     24  N   UNL     1       1.875   3.456  17.618  0.00  0.00    +0.000 NA
ATOM     25  C   UNL     1       1.899   2.461  18.735  0.00  0.00    +0.000 C 
ATOM     26  C   UNL     1       3.177   2.882  19.454  0.00  0.00    +0.000 C 
ATOM     27  C   UNL     1       2.637   4.295  19.731  0.00  0.00    +0.000 C 
ATOM     28  C   UNL     1       1.294   4.063  20.406  0.00  0.00    +0.000 C 
ATOM     29  C   UNL     1       0.955   2.844  21.220  0.00  0.00    +0.000 C 
ATOM     30  C   UNL     1       0.787   2.836  19.712  0.00  0.00    +0.000 C 
ATOM     31  H   UNL     1       2.580   3.158  16.944  0.00  0.00    +0.000 HD
ENDBRANCH  20  23
ENDBRANCH  18  19
BRANCH  18  32
ATOM     32  C   UNL     1       5.884   4.435  14.929  0.00  0.00    +0.000 C 
ATOM     33  N   UNL     1       6.088   3.957  13.781  0.00  0.00    +0.000 NA
ENDBRANCH  18  32
ENDBRANCH   1  18
TORSDOF 8
ENDMDL
MODEL 3
REMARK VINA RESULT:      -7.8      3.143      3.965
REMARK  Name = 
REMARK  9 active torsions:
REMARK  status: ('A' for Active; 'I' for Inactive)
REMARK    1  A    between atoms: C_1  and  O_2
REMARK    2  A    between atoms: O_2  and  C_3
REMARK    3  A    between atoms: C_3  and  C_5
REMARK    4  A    between atoms: C_7  and  C_8
REMARK    5  A    between atoms: C_11  and  C_12
REMARK    6  A    between atoms: C_12  and  C_13
REMARK    7  A    between atoms: C_13  and  C_14
REMARK    8  A    between atoms: C_13  and  N_16
REMARK    9  A    between atoms: C_17  and  C_19
REMARK                            x       y       z     vdW  Elec       q    Type
REMARK                         _______ _______ _______ _____ _____    ______ ____
ROOT
ATOM      1  C   UNL     1       0.397  10.364  20.071  0.00  0.00    +0.000 C 
ENDROOT
BRANCH   1   5
ATOM      2  C   UNL     1       2.861   7.209  18.386  0.00  0.00    +0.000 A 
ATOM      3  C   UNL     1       2.484   8.314  17.612  0.00  0.00    +0.000 A 
ATOM      4  C   UNL     1       1.665   9.322  18.141  0.00  0.00    +0.000 A 
ATOM      5  C   UNL     1       1.212   9.241  19.462  0.00  0.00    +0.000 A 
ATOM      6  C   UNL     1       1.563   8.114  20.212  0.00  0.00    +0.000 A 
ATOM      7  F   UNL     1       1.134   7.996  21.476  0.00  0.00    +0.000 F 
ATOM      8  C   UNL     1       2.382   7.114  19.694  0.00  0.00    +0.000 A 
BRANCH   2  11
ATOM      9  C   UNL     1       5.730   5.199  17.004  0.00  0.00    +0.000 A 
ATOM     10  C   UNL     1       5.145   6.356  17.489  0.00  0.00    +0.000 A 
ATOM     11  C   UNL     1       3.767   6.185  17.861  0.00  0.00    +0.000 A 
ATOM     12  C   UNL     1       3.375   4.875  17.664  0.00  0.00    +0.000 A 
ATOM     13  S   UNL     1       4.620   3.897  17.022  0.00  0.00    +0.000 S 
BRANCH   9  14
ATOM     14  C   UNL     1       7.085   4.978  16.523  0.00  0.00    +0.000 C 
ATOM     15  O   UNL     1       7.953   4.323  17.080  0.00  0.00    +0.000 OA
BRANCH  14  17
ATOM     16  C   UNL     1       6.955   4.803  14.190  0.00  0.00    +0.000 C 
ATOM     17  O   UNL     1       7.254   5.615  15.327  0.00  0.00    +0.000 OA
ENDBRANCH  14  17
ENDBRANCH   9  14
ENDBRANCH   2  11
ENDBRANCH   1   5
BRANCH   1  18
ATOM     18  C   UNL     1       0.079  11.498  19.076  0.00  0.00    +0.000 C 
BRANCH  18  19
ATOM     19  N   UNL     1       0.447  12.822  19.589  0.00  0.00    +0.000 N 
ATOM     20  C   UNL     1       1.552  13.432  19.031  0.00  0.00    +0.000 C 
ATOM     21  O   UNL     1       2.223  12.859  18.173  0.00  0.00    +0.000 OA
ATOM     22  H   UNL     1      -0.227  13.389  20.095  0.00  0.00    +0.000 HD
BRANCH  20  23
ATOM     23  C   UNL     1       1.890  14.857  19.487  0.00  0.00    +0.000 C 
ATOM     24  N   UNL     1       2.320  15.775  18.361  0.00  0.00    +0.000 NA
ATOM     25  C   UNL     1       1.289  16.859  18.381  0.00  0.00    +0.000 C 
ATOM     26  C   UNL     1       0.033  16.043  18.672  0.00  0.00    +0.000 C 
ATOM     27  C   UNL     1       0.594  15.528  20.007  0.00  0.00    +0.000 C 
ATOM     28  C   UNL     1       1.006  16.786  20.756  0.00  0.00    +0.000 C 
ATOM     29  C   UNL     1       0.371  18.136  20.559  0.00  0.00    +0.000 C 
ATOM     30  C   UNL     1       1.499  17.675  19.656  0.00  0.00    +0.000 C 
ATOM     31  H   UNL     1       2.206  15.279  17.478  0.00  0.00    +0.000 HD
ENDBRANCH  20  23
ENDBRANCH  18  19
BRANCH  18  32
ATOM     32  C   UNL     1      -1.365  11.427  18.607  0.00  0.00    +0.000 C 
ATOM     33  N   UNL     1      -2.564  11.369  18.220  0.00  0.00    +0.000 NA
ENDBRANCH  18  32
ENDBRANCH   1  18
TORSDOF 8
ENDMDL
MODEL 4
REMARK VINA RESULT:      -7.4      2.931      3.829
REMARK  Name = 
REMARK  9 active torsions:
REMARK  status: ('A' for Active; 'I' for Inactive)
REMARK    1  A    between atoms: C_1  and  O_2
REMARK    2  A    between atoms: O_2  and  C_3
REMARK    3  A    between atoms: C_3  and  C_5
REMARK    4  A    between atoms: C_7  and  C_8
REMARK    5  A    between atoms: C_11  and  C_12
REMARK    6  A    between atoms: C_12  and  C_13
REMARK    7  A    between atoms: C_13  and  C_14
REMARK    8  A    between atoms: C_13  and  N_16
REMARK    9  A    between atoms: C_17  and  C_19
REMARK                            x       y       z     vdW  Elec       q    Type
REMARK                         _______ _______ _______ _____ _____    ______ ____
ROOT
ATOM      1  C   UNL     1      -0.238  10.750  19.762  0.00  0.00    +0.000 C 
ENDROOT
BRANCH   1   5
ATOM      2  C   UNL     1       2.536   7.614  18.609  0.00  0.00    +0.000 A 
ATOM      3  C   UNL     1       2.103   8.566  17.677  0.00  0.00    +0.000 A 
ATOM      4  C   UNL     1       1.186   9.563  18.036  0.00  0.00    +0.000 A 
ATOM      5  C   UNL     1       0.687   9.628  19.341  0.00  0.00    +0.000 A 
ATOM      6  C   UNL     1       1.097   8.649  20.252  0.00  0.00    +0.000 A 
ATOM      7  F   UNL     1       0.629   8.670  21.507  0.00  0.00    +0.000 F 
ATOM      8  C   UNL     1       2.014   7.660  19.904  0.00  0.00    +0.000 A 
BRANCH   2  11
ATOM      9  C   UNL     1       5.403   5.616  17.206  0.00  0.00    +0.000 A 
ATOM     10  C   UNL     1       4.635   6.759  17.339  0.00  0.00    +0.000 A 
ATOM     11  C   UNL     1       3.541   6.607  18.260  0.00  0.00    +0.000 A 
ATOM     12  C   UNL     1       3.550   5.341  18.812  0.00  0.00    +0.000 A 
ATOM     13  S   UNL     1       4.816   4.363  18.213  0.00  0.00    +0.000 S 
BRANCH   9  14
ATOM     14  C   UNL     1       6.571   5.376  16.373  0.00  0.00    +0.000 C 
ATOM     15  O   UNL     1       7.465   6.174  16.132  0.00  0.00    +0.000 OA
BRANCH  14  17
ATOM     16  C   UNL     1       6.171   4.009  14.513  0.00  0.00    +0.000 C 
ATOM     17  O   UNL     1       6.533   4.099  15.891  0.00  0.00    +0.000 OA
ENDBRANCH  14  17
ENDBRANCH   9  14
ENDBRANCH   2  11
ENDBRANCH   1   5
BRANCH   1  18
ATOM     18  C   UNL     1      -0.898  11.477  18.573  0.00  0.00    +0.000 C 
BRANCH  18  19
ATOM     19  N   UNL     1      -1.091  12.910  18.821  0.00  0.00    +0.000 N 
ATOM     20  C   UNL     1      -0.026  13.748  18.557  0.00  0.00    +0.000 C 
ATOM     21  O   UNL     1       1.052  13.295  18.175  0.00  0.00    +0.000 OA
ATOM     22  H   UNL     1      -2.025  13.305  18.888  0.00  0.00    +0.000 HD
BRANCH  20  23
ATOM     23  C   UNL     1      -0.245  15.258  18.717  0.00  0.00    +0.000 C 
ATOM     24  N   UNL     1      -1.368  15.615  19.670  0.00  0.00    +0.000 NA
ATOM     25  C   UNL     1      -0.680  16.400  20.742  0.00  0.00    +0.000 C 
ATOM     26  C   UNL     1       0.619  15.610  20.874  0.00  0.00    +0.000 C 
ATOM     27  C   UNL     1       1.002  15.865  19.406  0.00  0.00    +0.000 C 
ATOM     28  C   UNL     1       0.914  17.376  19.247  0.00  0.00    +0.000 C 
ATOM     29  C   UNL     1       1.120  18.358  20.368  0.00  0.00    +0.000 C 
ATOM     30  C   UNL     1      -0.241  17.730  20.133  0.00  0.00    +0.000 C 
ATOM     31  H   UNL     1      -1.708  14.759  20.106  0.00  0.00    +0.000 HD
ENDBRANCH  20  23
ENDBRANCH  18  19
BRANCH  18  32
ATOM     32  C   UNL     1      -2.176  10.776  18.142  0.00  0.00    +0.000 C 
ATOM     33  N   UNL     1      -3.236  10.194  17.786  0.00  0.00    +0.000 NA
ENDBRANCH  18  32
ENDBRANCH   1  18
TORSDOF 8
ENDMDL
MODEL 5
REMARK VINA RESULT:      -7.4      2.891      4.649
REMARK  Name = 
REMARK  9 active torsions:
REMARK  status: ('A' for Active; 'I' for Inactive)
REMARK    1  A    between atoms: C_1  and  O_2
REMARK    2  A    between atoms: O_2  and  C_3
REMARK    3  A    between atoms: C_3  and  C_5
REMARK    4  A    between atoms: C_7  and  C_8
REMARK    5  A    between atoms: C_11  and  C_12
REMARK    6  A    between atoms: C_12  and  C_13
REMARK    7  A    between atoms: C_13  and  C_14
REMARK    8  A    between atoms: C_13  and  N_16
REMARK    9  A    between atoms: C_17  and  C_19
REMARK                            x       y       z     vdW  Elec       q    Type
REMARK                         _______ _______ _______ _____ _____    ______ ____
ROOT
ATOM      1  C   UNL     1       0.496  10.335  20.390  0.00  0.00    +0.000 C 
ENDROOT
BRANCH   1   5
ATOM      2  C   UNL     1       2.656   7.118  18.426  0.00  0.00    +0.000 A 
ATOM      3  C   UNL     1       2.248   8.250  17.709  0.00  0.00    +0.000 A 
ATOM      4  C   UNL     1       1.526   9.278  18.330  0.00  0.00    +0.000 A 
ATOM      5  C   UNL     1       1.202   9.193  19.688  0.00  0.00    +0.000 A 
ATOM      6  C   UNL     1       1.580   8.040  20.384  0.00  0.00    +0.000 A 
ATOM      7  F   UNL     1       1.274   7.917  21.683  0.00  0.00    +0.000 F 
ATOM      8  C   UNL     1       2.305   7.019  19.775  0.00  0.00    +0.000 A 
BRANCH   2  11
ATOM      9  C   UNL     1       5.211   5.056  16.583  0.00  0.00    +0.000 A 
ATOM     10  C   UNL     1       4.693   6.241  17.074  0.00  0.00    +0.000 A 
ATOM     11  C   UNL     1       3.465   6.070  17.801  0.00  0.00    +0.000 A 
ATOM     12  C   UNL     1       3.118   4.733  17.851  0.00  0.00    +0.000 A 
ATOM     13  S   UNL     1       4.223   3.729  17.021  0.00  0.00    +0.000 S 
BRANCH   9  14
ATOM     14  C   UNL     1       6.414   4.824  15.800  0.00  0.00    +0.000 C 
ATOM     15  O   UNL     1       6.471   4.309  14.693  0.00  0.00    +0.000 OA
BRANCH  14  17
ATOM     16  C   UNL     1       7.722   4.616  17.733  0.00  0.00    +0.000 C 
ATOM     17  O   UNL     1       7.502   5.281  16.489  0.00  0.00    +0.000 OA
ENDBRANCH  14  17
ENDBRANCH   9  14
ENDBRANCH   2  11
ENDBRANCH   1   5
BRANCH   1  18
ATOM     18  C   UNL     1       0.399  11.612  19.532  0.00  0.00    +0.000 C 
BRANCH  18  19
ATOM     19  N   UNL     1       1.293  12.677  19.999  0.00  0.00    +0.000 N 
ATOM     20  C   UNL     1       2.330  13.045  19.165  0.00  0.00    +0.000 C 
ATOM     21  O   UNL     1       2.516  12.463  18.097  0.00  0.00    +0.000 OA
ATOM     22  H   UNL     1       1.004  13.313  20.736  0.00  0.00    +0.000 HD
BRANCH  20  23
ATOM     23  C   UNL     1       3.213  14.224  19.596  0.00  0.00    +0.000 C 
ATOM     24  N   UNL     1       4.015  14.833  18.464  0.00  0.00    +0.000 NA
ATOM     25  C   UNL     1       3.523  16.245  18.409  0.00  0.00    +0.000 C 
ATOM     26  C   UNL     1       2.034  16.031  18.666  0.00  0.00    +0.000 C 
ATOM     27  C   UNL     1       2.294  15.390  20.039  0.00  0.00    +0.000 C 
ATOM     28  C   UNL     1       3.167  16.399  20.770  0.00  0.00    +0.000 C 
ATOM     29  C   UNL     1       3.151  17.880  20.507  0.00  0.00    +0.000 C 
ATOM     30  C   UNL     1       4.014  16.957  19.668  0.00  0.00    +0.000 C 
ATOM     31  H   UNL     1       3.732  14.390  17.591  0.00  0.00    +0.000 HD
ENDBRANCH  20  23
ENDBRANCH  18  19
BRANCH  18  32
ATOM     32  C   UNL     1      -1.043  12.072  19.394  0.00  0.00    +0.000 C 
ATOM     33  N   UNL     1      -2.239  12.455  19.278  0.00  0.00    +0.000 NA
ENDBRANCH  18  32
ENDBRANCH   1  18
TORSDOF 8
ENDMDL
MODEL 6
REMARK VINA RESULT:      -7.4      3.147      4.782
REMARK  Name = 
REMARK  9 active torsions:
REMARK  status: ('A' for Active; 'I' for Inactive)
REMARK    1  A    between atoms: C_1  and  O_2
REMARK    2  A    between atoms: O_2  and  C_3
REMARK    3  A    between atoms: C_3  and  C_5
REMARK    4  A    between atoms: C_7  and  C_8
REMARK    5  A    between atoms: C_11  and  C_12
REMARK    6  A    between atoms: C_12  and  C_13
REMARK    7  A    between atoms: C_13  and  C_14
REMARK    8  A    between atoms: C_13  and  N_16
REMARK    9  A    between atoms: C_17  and  C_19
REMARK                            x       y       z     vdW  Elec       q    Type
REMARK                         _______ _______ _______ _____ _____    ______ ____
ROOT
ATOM      1  C   UNL     1       0.512  10.674  19.981  0.00  0.00    +0.000 C 
ENDROOT
BRANCH   1   5
ATOM      2  C   UNL     1       2.602   7.209  18.403  0.00  0.00    +0.000 A 
ATOM      3  C   UNL     1       2.241   8.272  17.564  0.00  0.00    +0.000 A 
ATOM      4  C   UNL     1       1.542   9.380  18.062  0.00  0.00    +0.000 A 
ATOM      5  C   UNL     1       1.192   9.445  19.415  0.00  0.00    +0.000 A 
ATOM      6  C   UNL     1       1.523   8.360  20.233  0.00  0.00    +0.000 A 
ATOM      7  F   UNL     1       1.192   8.381  21.531  0.00  0.00    +0.000 F 
ATOM      8  C   UNL     1       2.225   7.260  19.746  0.00  0.00    +0.000 A 
BRANCH   2  11
ATOM      9  C   UNL     1       5.064   4.889  16.748  0.00  0.00    +0.000 A 
ATOM     10  C   UNL     1       4.555   6.136  17.070  0.00  0.00    +0.000 A 
ATOM     11  C   UNL     1       3.387   6.078  17.904  0.00  0.00    +0.000 A 
ATOM     12  C   UNL     1       3.075   4.766  18.205  0.00  0.00    +0.000 A 
ATOM     13  S   UNL     1       4.140   3.646  17.477  0.00  0.00    +0.000 S 
BRANCH   9  14
ATOM     14  C   UNL     1       6.213   4.540  15.928  0.00  0.00    +0.000 C 
ATOM     15  O   UNL     1       6.201   3.846  14.923  0.00  0.00    +0.000 OA
BRANCH  14  17
ATOM     16  C   UNL     1       7.746   4.570  17.699  0.00  0.00    +0.000 C 
ATOM     17  O   UNL     1       7.336   5.119  16.447  0.00  0.00    +0.000 OA
ENDBRANCH  14  17
ENDBRANCH   9  14
ENDBRANCH   2  11
ENDBRANCH   1   5
BRANCH   1  18
ATOM     18  C   UNL     1       0.116  11.704  18.905  0.00  0.00    +0.000 C 
BRANCH  18  19
ATOM     19  N   UNL     1       0.581  13.060  19.219  0.00  0.00    +0.000 N 
ATOM     20  C   UNL     1       1.744  13.488  18.611  0.00  0.00    +0.000 C 
ATOM     21  O   UNL     1       2.383  12.737  17.875  0.00  0.00    +0.000 OA
ATOM     22  H   UNL     1      -0.055  13.749  19.609  0.00  0.00    +0.000 HD
BRANCH  20  23
ATOM     23  C   UNL     1       2.188  14.936  18.854  0.00  0.00    +0.000 C 
ATOM     24  N   UNL     1       1.658  15.531  20.142  0.00  0.00    +0.000 NA
ATOM     25  C   UNL     1       2.898  15.855  20.914  0.00  0.00    +0.000 C 
ATOM     26  C   UNL     1       3.760  14.642  20.575  0.00  0.00    +0.000 C 
ATOM     27  C   UNL     1       3.722  14.951  19.069  0.00  0.00    +0.000 C 
ATOM     28  C   UNL     1       4.178  16.399  18.966  0.00  0.00    +0.000 C 
ATOM     29  C   UNL     1       5.093  17.070  19.954  0.00  0.00    +0.000 C 
ATOM     30  C   UNL     1       3.597  17.012  20.203  0.00  0.00    +0.000 C 
ATOM     31  H   UNL     1       1.172  14.801  20.661  0.00  0.00    +0.000 HD
ENDBRANCH  20  23
ENDBRANCH  18  19
BRANCH  18  32
ATOM     32  C   UNL     1      -1.374  11.645  18.610  0.00  0.00    +0.000 C 
ATOM     33  N   UNL     1      -2.610  11.597  18.366  0.00  0.00    +0.000 NA
ENDBRANCH  18  32
ENDBRANCH   1  18
TORSDOF 8
ENDMDL
MODEL 7
REMARK VINA RESULT:      -7.4      1.168      1.450
REMARK  Name = 
REMARK  9 active torsions:
REMARK  status: ('A' for Active; 'I' for Inactive)
REMARK    1  A    between atoms: C_1  and  O_2
REMARK    2  A    between atoms: O_2  and  C_3
REMARK    3  A    between atoms: C_3  and  C_5
REMARK    4  A    between atoms: C_7  and  C_8
REMARK    5  A    between atoms: C_11  and  C_12
REMARK    6  A    between atoms: C_12  and  C_13
REMARK    7  A    between atoms: C_13  and  C_14
REMARK    8  A    between atoms: C_13  and  N_16
REMARK    9  A    between atoms: C_17  and  C_19
REMARK                            x       y       z     vdW  Elec       q    Type
REMARK                         _______ _______ _______ _____ _____    ______ ____
ROOT
ATOM      1  C   UNL     1       0.314  11.259  19.542  0.00  0.00    +0.000 C 
ENDROOT
BRANCH   1   5
ATOM      2  C   UNL     1       2.569   7.667  18.608  0.00  0.00    +0.000 A 
ATOM      3  C   UNL     1       1.819   7.756  19.788  0.00  0.00    +0.000 A 
ATOM      4  C   UNL     1       1.112   8.923  20.109  0.00  0.00    +0.000 A 
ATOM      5  C   UNL     1       1.141  10.025  19.248  0.00  0.00    +0.000 A 
ATOM      6  C   UNL     1       1.924   9.938  18.093  0.00  0.00    +0.000 A 
ATOM      7  F   UNL     1       1.988  10.980  17.252  0.00  0.00    +0.000 F 
ATOM      8  C   UNL     1       2.622   8.779  17.765  0.00  0.00    +0.000 A 
BRANCH   2  11
ATOM      9  C   UNL     1       5.015   4.968  17.654  0.00  0.00    +0.000 A 
ATOM     10  C   UNL     1       4.669   6.257  18.019  0.00  0.00    +0.000 A 
ATOM     11  C   UNL     1       3.259   6.430  18.235  0.00  0.00    +0.000 A 
ATOM     12  C   UNL     1       2.594   5.234  18.050  0.00  0.00    +0.000 A 
ATOM     13  S   UNL     1       3.635   3.957  17.598  0.00  0.00    +0.000 S 
BRANCH   9  14
ATOM     14  C   UNL     1       6.322   4.411  17.344  0.00  0.00    +0.000 C 
ATOM     15  O   UNL     1       7.285   4.362  18.094  0.00  0.00    +0.000 OA
BRANCH  14  17
ATOM     16  C   UNL     1       6.877   4.834  15.107  0.00  0.00    +0.000 C 
ATOM     17  O   UNL     1       6.322   3.932  16.065  0.00  0.00    +0.000 OA
ENDBRANCH  14  17
ENDBRANCH   9  14
ENDBRANCH   2  11
ENDBRANCH   1   5
BRANCH   1  18
ATOM     18  C   UNL     1       0.797  12.039  20.782  0.00  0.00    +0.000 C 
BRANCH  18  19
ATOM     19  N   UNL     1      -0.291  12.742  21.469  0.00  0.00    +0.000 N 
ATOM     20  C   UNL     1      -0.792  12.165  22.618  0.00  0.00    +0.000 C 
ATOM     21  O   UNL     1      -0.369  11.080  23.015  0.00  0.00    +0.000 OA
ATOM     22  H   UNL     1      -0.463  13.729  21.297  0.00  0.00    +0.000 HD
BRANCH  20  23
ATOM     23  C   UNL     1      -1.862  12.938  23.401  0.00  0.00    +0.000 C 
ATOM     24  N   UNL     1      -2.251  14.257  22.766  0.00  0.00    +0.000 NA
ATOM     25  C   UNL     1      -3.710  14.090  22.479  0.00  0.00    +0.000 C 
ATOM     26  C   UNL     1      -3.737  12.635  22.018  0.00  0.00    +0.000 C 
ATOM     27  C   UNL     1      -3.182  12.129  23.360  0.00  0.00    +0.000 C 
ATOM     28  C   UNL     1      -4.111  12.729  24.406  0.00  0.00    +0.000 C 
ATOM     29  C   UNL     1      -5.551  13.083  24.155  0.00  0.00    +0.000 C 
ATOM     30  C   UNL     1      -4.445  14.065  23.817  0.00  0.00    +0.000 C 
ATOM     31  H   UNL     1      -1.782  14.334  21.864  0.00  0.00    +0.000 HD
ENDBRANCH  20  23
ENDBRANCH  18  19
BRANCH  18  32
ATOM     32  C   UNL     1       1.963  12.950  20.436  0.00  0.00    +0.000 C 
ATOM     33  N   UNL     1       2.931  13.705  20.150  0.00  0.00    +0.000 NA
ENDBRANCH  18  32
ENDBRANCH   1  18
TORSDOF 8
ENDMDL
MODEL 8
REMARK VINA RESULT:      -7.4      3.158      4.414
REMARK  Name = 
REMARK  9 active torsions:
REMARK  status: ('A' for Active; 'I' for Inactive)
REMARK    1  A    between atoms: C_1  and  O_2
REMARK    2  A    between atoms: O_2  and  C_3
REMARK    3  A    between atoms: C_3  and  C_5
REMARK    4  A    between atoms: C_7  and  C_8
REMARK    5  A    between atoms: C_11  and  C_12
REMARK    6  A    between atoms: C_12  and  C_13
REMARK    7  A    between atoms: C_13  and  C_14
REMARK    8  A    between atoms: C_13  and  N_16
REMARK    9  A    between atoms: C_17  and  C_19
REMARK                            x       y       z     vdW  Elec       q    Type
REMARK                         _______ _______ _______ _____ _____    ______ ____
ROOT
ATOM      1  C   UNL     1       0.464  10.233  20.261  0.00  0.00    +0.000 C 
ENDROOT
BRANCH   1   5
ATOM      2  C   UNL     1       2.859   7.117  18.411  0.00  0.00    +0.000 A 
ATOM      3  C   UNL     1       2.469   8.249  17.683  0.00  0.00    +0.000 A 
ATOM      4  C   UNL     1       1.672   9.244  18.266  0.00  0.00    +0.000 A 
ATOM      5  C   UNL     1       1.253   9.125  19.596  0.00  0.00    +0.000 A 
ATOM      6  C   UNL     1       1.616   7.972  20.299  0.00  0.00    +0.000 A 
ATOM      7  F   UNL     1       1.221   7.816  21.570  0.00  0.00    +0.000 F 
ATOM      8  C   UNL     1       2.414   6.984  19.728  0.00  0.00    +0.000 A 
BRANCH   2  11
ATOM      9  C   UNL     1       5.654   5.147  16.834  0.00  0.00    +0.000 A 
ATOM     10  C   UNL     1       5.083   6.298  17.349  0.00  0.00    +0.000 A 
ATOM     11  C   UNL     1       3.742   6.105  17.830  0.00  0.00    +0.000 A 
ATOM     12  C   UNL     1       3.364   4.784  17.680  0.00  0.00    +0.000 A 
ATOM     13  S   UNL     1       4.576   3.823  16.955  0.00  0.00    +0.000 S 
BRANCH   9  14
ATOM     14  C   UNL     1       6.972   4.947  16.252  0.00  0.00    +0.000 C 
ATOM     15  O   UNL     1       7.918   4.382  16.779  0.00  0.00    +0.000 OA
BRANCH  14  17
ATOM     16  C   UNL     1       6.790   4.536  13.952  0.00  0.00    +0.000 C 
ATOM     17  O   UNL     1       7.002   5.486  14.997  0.00  0.00    +0.000 OA
ENDBRANCH  14  17
ENDBRANCH   9  14
ENDBRANCH   2  11
ENDBRANCH   1   5
BRANCH   1  18
ATOM     18  C   UNL     1       0.525  11.571  19.498  0.00  0.00    +0.000 C 
BRANCH  18  19
ATOM     19  N   UNL     1       0.956  12.688  20.346  0.00  0.00    +0.000 N 
ATOM     20  C   UNL     1       1.603  13.739  19.729  0.00  0.00    +0.000 C 
ATOM     21  O   UNL     1       1.847  13.708  18.524  0.00  0.00    +0.000 OA
ATOM     22  H   UNL     1       0.545  12.832  21.264  0.00  0.00    +0.000 HD
BRANCH  20  23
ATOM     23  C   UNL     1       1.971  14.957  20.587  0.00  0.00    +0.000 C 
ATOM     24  N   UNL     1       2.193  14.631  22.050  0.00  0.00    +0.000 NA
ATOM     25  C   UNL     1       3.617  15.027  22.283  0.00  0.00    +0.000 C 
ATOM     26  C   UNL     1       4.254  14.558  20.978  0.00  0.00    +0.000 C 
ATOM     27  C   UNL     1       3.357  15.478  20.132  0.00  0.00    +0.000 C 
ATOM     28  C   UNL     1       3.543  16.858  20.745  0.00  0.00    +0.000 C 
ATOM     29  C   UNL     1       4.786  17.304  21.467  0.00  0.00    +0.000 C 
ATOM     30  C   UNL     1       3.693  16.550  22.203  0.00  0.00    +0.000 C 
ATOM     31  H   UNL     1       2.147  13.619  22.167  0.00  0.00    +0.000 HD
ENDBRANCH  20  23
ENDBRANCH  18  19
BRANCH  18  32
ATOM     32  C   UNL     1      -0.781  11.851  18.774  0.00  0.00    +0.000 C 
ATOM     33  N   UNL     1      -1.866  12.083  18.174  0.00  0.00    +0.000 NA
ENDBRANCH  18  32
ENDBRANCH   1  18
TORSDOF 8
ENDMDL
MODEL 9
REMARK VINA RESULT:      -7.3      3.357      4.324
REMARK  Name = 
REMARK  9 active torsions:
REMARK  status: ('A' for Active; 'I' for Inactive)
REMARK    1  A    between atoms: C_1  and  O_2
REMARK    2  A    between atoms: O_2  and  C_3
REMARK    3  A    between atoms: C_3  and  C_5
REMARK    4  A    between atoms: C_7  and  C_8
REMARK    5  A    between atoms: C_11  and  C_12
REMARK    6  A    between atoms: C_12  and  C_13
REMARK    7  A    between atoms: C_13  and  C_14
REMARK    8  A    between atoms: C_13  and  N_16
REMARK    9  A    between atoms: C_17  and  C_19
REMARK                            x       y       z     vdW  Elec       q    Type
REMARK                         _______ _______ _______ _____ _____    ______ ____
ROOT
ATOM      1  C   UNL     1       0.453   9.283  19.890  0.00  0.00    +0.000 C 
ENDROOT
BRANCH   1   5
ATOM      2  C   UNL     1       3.632   6.939  18.083  0.00  0.00    +0.000 A 
ATOM      3  C   UNL     1       3.103   8.058  17.425  0.00  0.00    +0.000 A 
ATOM      4  C   UNL     1       2.058   8.801  17.990  0.00  0.00    +0.000 A 
ATOM      5  C   UNL     1       1.523   8.439  19.231  0.00  0.00    +0.000 A 
ATOM      6  C   UNL     1       2.033   7.298  19.859  0.00  0.00    +0.000 A 
ATOM      7  F   UNL     1       1.535   6.911  21.042  0.00  0.00    +0.000 F 
ATOM      8  C   UNL     1       3.077   6.560  19.307  0.00  0.00    +0.000 A 
BRANCH   2  11
ATOM      9  C   UNL     1       6.218   5.244  15.934  0.00  0.00    +0.000 A 
ATOM     10  C   UNL     1       5.091   6.021  16.141  0.00  0.00    +0.000 A 
ATOM     11  C   UNL     1       4.765   6.195  17.530  0.00  0.00    +0.000 A 
ATOM     12  C   UNL     1       5.694   5.553  18.326  0.00  0.00    +0.000 A 
ATOM     13  S   UNL     1       6.897   4.744  17.423  0.00  0.00    +0.000 S 
BRANCH   9  14
ATOM     14  C   UNL     1       6.849   4.840  14.688  0.00  0.00    +0.000 C 
ATOM     15  O   UNL     1       7.807   5.378  14.153  0.00  0.00    +0.000 OA
BRANCH  14  17
ATOM     16  C   UNL     1       6.305   3.609  12.770  0.00  0.00    +0.000 C 
ATOM     17  O   UNL     1       6.209   3.741  14.188  0.00  0.00    +0.000 OA
ENDBRANCH  14  17
ENDBRANCH   9  14
ENDBRANCH   2  11
ENDBRANCH   1   5
BRANCH   1  18
ATOM     18  C   UNL     1       0.112  10.563  19.102  0.00  0.00    +0.000 C 
BRANCH  18  19
ATOM     19  N   UNL     1       0.412  11.788  19.852  0.00  0.00    +0.000 N 
ATOM     20  C   UNL     1       1.447  12.576  19.392  0.00  0.00    +0.000 C 
ATOM     21  O   UNL     1       2.116  12.231  18.418  0.00  0.00    +0.000 OA
ATOM     22  H   UNL     1      -0.276  12.194  20.480  0.00  0.00    +0.000 HD
BRANCH  20  23
ATOM     23  C   UNL     1       1.707  13.907  20.108  0.00  0.00    +0.000 C 
ATOM     24  N   UNL     1       3.163  14.142  20.454  0.00  0.00    +0.000 NA
ATOM     25  C   UNL     1       3.506  15.387  19.698  0.00  0.00    +0.000 C 
ATOM     26  C   UNL     1       2.745  15.141  18.399  0.00  0.00    +0.000 C 
ATOM     27  C   UNL     1       1.392  15.064  19.125  0.00  0.00    +0.000 C 
ATOM     28  C   UNL     1       1.327  16.345  19.943  0.00  0.00    +0.000 C 
ATOM     29  C   UNL     1       2.025  17.624  19.571  0.00  0.00    +0.000 C 
ATOM     30  C   UNL     1       2.754  16.546  20.350  0.00  0.00    +0.000 C 
ATOM     31  H   UNL     1       3.718  13.390  20.048  0.00  0.00    +0.000 HD
ENDBRANCH  20  23
ENDBRANCH  18  19
BRANCH  18  32
ATOM     32  C   UNL     1      -1.316  10.525  18.582  0.00  0.00    +0.000 C 
ATOM     33  N   UNL     1      -2.500  10.492  18.150  0.00  0.00    +0.000 NA
ENDBRANCH  18  32
ENDBRANCH   1  18
TORSDOF 8
ENDMDL
