MODEL 1
REMARK VINA RESULT:      -7.7      0.000      0.000
REMARK  Name = 
REMARK  3 active torsions:
REMARK  status: ('A' for Active; 'I' for Inactive)
REMARK    1  A    between atoms: C_1  and  C_2
REMARK    2  A    between atoms: N_12  and  N_13
REMARK    3  A    between atoms: C_14  and  C_15
REMARK                            x       y       z     vdW  Elec       q    Type
REMARK                         _______ _______ _______ _____ _____    ______ ____
ROOT
ATOM      1  C   UNL     1       1.355   4.802  20.850  0.00  0.00    +0.000 C 
ATOM      2  C   UNL     1       2.269   5.327  19.774  0.00  0.00    +0.000 A 
ATOM      3  N   UNL     1       3.085   4.482  19.222  0.00  0.00    +0.000 NA
ATOM      4  C   UNL     1       3.885   4.901  18.150  0.00  0.00    +0.000 A 
ATOM      5  C   UNL     1       4.842   4.026  17.623  0.00  0.00    +0.000 A 
ATOM      6  C   UNL     1       5.638   4.489  16.592  0.00  0.00    +0.000 A 
ATOM      7  C   UNL     1       5.443   5.726  16.017  0.00  0.00    +0.000 A 
ATOM      8  C   UNL     1       4.484   6.591  16.472  0.00  0.00    +0.000 A 
ATOM      9  C   UNL     1       3.751   6.181  17.591  0.00  0.00    +0.000 A 
ATOM     10  C   UNL     1       2.907   7.150  18.295  0.00  0.00    +0.000 A 
ATOM     11  O   UNL     1       2.927   8.327  17.923  0.00  0.00    +0.000 OA
ATOM     12  N   UNL     1       2.194   6.663  19.400  0.00  0.00    +0.000 N 
ATOM     13  O   UNL     1       6.365   6.003  15.056  0.00  0.00    +0.000 OA
ATOM     14  C   UNL     1       7.326   4.972  15.355  0.00  0.00    +0.000 C 
ATOM     15  O   UNL     1       6.732   3.865  16.070  0.00  0.00    +0.000 OA
ENDROOT
BRANCH  12  16
ATOM     16  N   UNL     1       1.395   7.634  19.970  0.00  0.00    +0.000 NA
ATOM     17  C   UNL     1       1.593   8.067  21.170  0.00  0.00    +0.000 C 
BRANCH  17  18
ATOM     18  C   UNL     1       0.868   9.269  21.647  0.00  0.00    +0.000 A 
ATOM     19  C   UNL     1       0.056   9.198  22.776  0.00  0.00    +0.000 A 
ATOM     20  C   UNL     1      -0.698  10.317  23.115  0.00  0.00    +0.000 A 
ATOM     21  C   UNL     1      -0.606  11.459  22.329  0.00  0.00    +0.000 A 
ATOM     22  C   UNL     1       0.239  11.437  21.228  0.00  0.00    +0.000 A 
ATOM     23  N   UNL     1       0.976  10.364  20.858  0.00  0.00    +0.000 NA
ENDBRANCH  17  18
ENDBRANCH  12  16
TORSDOF 2
ENDMDL
MODEL 2
REMARK VINA RESULT:      -7.4      0.705      1.063
REMARK  Name = 
REMARK  3 active torsions:
REMARK  status: ('A' for Active; 'I' for Inactive)
REMARK    1  A    between atoms: C_1  and  C_2
REMARK    2  A    between atoms: N_12  and  N_13
REMARK    3  A    between atoms: C_14  and  C_15
REMARK                            x       y       z     vdW  Elec       q    Type
REMARK                         _______ _______ _______ _____ _____    ______ ____
ROOT
ATOM      1  C   UNL     1       1.839   4.394  21.260  0.00  0.00    +0.000 C 
ATOM      2  C   UNL     1       2.594   5.002  20.106  0.00  0.00    +0.000 A 
ATOM      3  N   UNL     1       3.494   4.265  19.530  0.00  0.00    +0.000 NA
ATOM      4  C   UNL     1       4.152   4.750  18.391  0.00  0.00    +0.000 A 
ATOM      5  C   UNL     1       5.198   4.007  17.832  0.00  0.00    +0.000 A 
ATOM      6  C   UNL     1       5.848   4.537  16.733  0.00  0.00    +0.000 A 
ATOM      7  C   UNL     1       5.430   5.702  16.129  0.00  0.00    +0.000 A 
ATOM      8  C   UNL     1       4.380   6.433  16.617  0.00  0.00    +0.000 A 
ATOM      9  C   UNL     1       3.789   5.969  17.797  0.00  0.00    +0.000 A 
ATOM     10  C   UNL     1       2.852   6.831  18.522  0.00  0.00    +0.000 A 
ATOM     11  O   UNL     1       2.667   7.978  18.107  0.00  0.00    +0.000 OA
ATOM     12  N   UNL     1       2.291   6.293  19.689  0.00  0.00    +0.000 N 
ATOM     13  O   UNL     1       6.237   6.071  15.097  0.00  0.00    +0.000 OA
ATOM     14  C   UNL     1       7.361   5.212  15.368  0.00  0.00    +0.000 C 
ATOM     15  O   UNL     1       6.990   4.062  16.161  0.00  0.00    +0.000 OA
ENDROOT
BRANCH  12  16
ATOM     16  N   UNL     1       1.390   7.157  20.278  0.00  0.00    +0.000 NA
ATOM     17  C   UNL     1       1.762   8.085  21.095  0.00  0.00    +0.000 C 
BRANCH  17  18
ATOM     18  C   UNL     1       0.797   9.131  21.509  0.00  0.00    +0.000 A 
ATOM     19  C   UNL     1       0.514  10.200  20.663  0.00  0.00    +0.000 A 
ATOM     20  C   UNL     1      -0.303  11.219  21.141  0.00  0.00    +0.000 A 
ATOM     21  C   UNL     1      -0.812  11.129  22.431  0.00  0.00    +0.000 A 
ATOM     22  C   UNL     1      -0.481  10.020  23.196  0.00  0.00    +0.000 A 
ATOM     23  N   UNL     1       0.322   9.017  22.772  0.00  0.00    +0.000 NA
ENDBRANCH  17  18
ENDBRANCH  12  16
TORSDOF 2
ENDMDL
MODEL 3
REMARK VINA RESULT:      -7.4      2.375      7.821
REMARK  Name = 
REMARK  3 active torsions:
REMARK  status: ('A' for Active; 'I' for Inactive)
REMARK    1  A    between atoms: C_1  and  C_2
REMARK    2  A    between atoms: N_12  and  N_13
REMARK    3  A    between atoms: C_14  and  C_15
REMARK                            x       y       z     vdW  Elec       q    Type
REMARK                         _______ _______ _______ _____ _____    ______ ____
ROOT
ATOM      1  C   UNL     1       2.626   5.225  20.364  0.00  0.00    +0.000 C 
ATOM      2  C   UNL     1       2.107   6.592  19.999  0.00  0.00    +0.000 A 
ATOM      3  N   UNL     1       1.454   7.243  20.912  0.00  0.00    +0.000 NA
ATOM      4  C   UNL     1       1.038   8.556  20.653  0.00  0.00    +0.000 A 
ATOM      5  C   UNL     1       0.240   9.223  21.591  0.00  0.00    +0.000 A 
ATOM      6  C   UNL     1      -0.183  10.502  21.282  0.00  0.00    +0.000 A 
ATOM      7  C   UNL     1       0.239  11.157  20.145  0.00  0.00    +0.000 A 
ATOM      8  C   UNL     1       1.059  10.555  19.228  0.00  0.00    +0.000 A 
ATOM      9  C   UNL     1       1.399   9.221  19.471  0.00  0.00    +0.000 A 
ATOM     10  C   UNL     1       2.039   8.435  18.413  0.00  0.00    +0.000 A 
ATOM     11  O   UNL     1       2.193   8.955  17.305  0.00  0.00    +0.000 OA
ATOM     12  N   UNL     1       2.360   7.108  18.734  0.00  0.00    +0.000 N 
ATOM     13  O   UNL     1      -0.334  12.383  20.009  0.00  0.00    +0.000 OA
ATOM     14  C   UNL     1      -1.392  12.250  20.978  0.00  0.00    +0.000 C 
ATOM     15  O   UNL     1      -1.099  11.241  21.970  0.00  0.00    +0.000 OA
ENDROOT
BRANCH  12  16
ATOM     16  N   UNL     1       2.998   6.462  17.694  0.00  0.00    +0.000 NA
ATOM     17  C   UNL     1       4.279   6.512  17.538  0.00  0.00    +0.000 C 
BRANCH  17  18
ATOM     18  C   UNL     1       4.935   5.614  16.558  0.00  0.00    +0.000 A 
ATOM     19  C   UNL     1       4.914   4.235  16.746  0.00  0.00    +0.000 A 
ATOM     20  C   UNL     1       5.646   3.439  15.869  0.00  0.00    +0.000 A 
ATOM     21  C   UNL     1       6.355   4.045  14.840  0.00  0.00    +0.000 A 
ATOM     22  C   UNL     1       6.308   5.428  14.728  0.00  0.00    +0.000 A 
ATOM     23  N   UNL     1       5.621   6.235  15.569  0.00  0.00    +0.000 NA
ENDBRANCH  17  18
ENDBRANCH  12  16
TORSDOF 2
ENDMDL
MODEL 4
REMARK VINA RESULT:      -7.3      2.343      7.874
REMARK  Name = 
REMARK  3 active torsions:
REMARK  status: ('A' for Active; 'I' for Inactive)
REMARK    1  A    between atoms: C_1  and  C_2
REMARK    2  A    between atoms: N_12  and  N_13
REMARK    3  A    between atoms: C_14  and  C_15
REMARK                            x       y       z     vdW  Elec       q    Type
REMARK                         _______ _______ _______ _____ _____    ______ ____
ROOT
ATOM      1  C   UNL     1       2.636   5.201  20.391  0.00  0.00    +0.000 C 
ATOM      2  C   UNL     1       2.104   6.568  20.046  0.00  0.00    +0.000 A 
ATOM      3  N   UNL     1       1.413   7.184  20.956  0.00  0.00    +0.000 NA
ATOM      4  C   UNL     1       0.981   8.496  20.718  0.00  0.00    +0.000 A 
ATOM      5  C   UNL     1       0.147   9.126  21.650  0.00  0.00    +0.000 A 
ATOM      6  C   UNL     1      -0.291  10.404  21.361  0.00  0.00    +0.000 A 
ATOM      7  C   UNL     1       0.151  11.095  20.254  0.00  0.00    +0.000 A 
ATOM      8  C   UNL     1       1.007  10.531  19.345  0.00  0.00    +0.000 A 
ATOM      9  C   UNL     1       1.363   9.197  19.564  0.00  0.00    +0.000 A 
ATOM     10  C   UNL     1       2.046   8.450  18.505  0.00  0.00    +0.000 A 
ATOM     11  O   UNL     1       2.221   9.001  17.415  0.00  0.00    +0.000 OA
ATOM     12  N   UNL     1       2.382   7.121  18.802  0.00  0.00    +0.000 N 
ATOM     13  O   UNL     1      -0.440  12.314  20.132  0.00  0.00    +0.000 OA
ATOM     14  C   UNL     1      -1.522  12.139  21.067  0.00  0.00    +0.000 C 
ATOM     15  O   UNL     1      -1.238  11.110  22.042  0.00  0.00    +0.000 OA
ENDROOT
BRANCH  12  16
ATOM     16  N   UNL     1       3.060   6.512  17.764  0.00  0.00    +0.000 NA
ATOM     17  C   UNL     1       4.349   6.473  17.717  0.00  0.00    +0.000 C 
BRANCH  17  18
ATOM     18  C   UNL     1       5.022   5.608  16.719  0.00  0.00    +0.000 A 
ATOM     19  C   UNL     1       5.341   6.105  15.458  0.00  0.00    +0.000 A 
ATOM     20  C   UNL     1       5.860   5.225  14.515  0.00  0.00    +0.000 A 
ATOM     21  C   UNL     1       6.052   3.894  14.866  0.00  0.00    +0.000 A 
ATOM     22  C   UNL     1       5.713   3.493  16.150  0.00  0.00    +0.000 A 
ATOM     23  N   UNL     1       5.191   4.316  17.090  0.00  0.00    +0.000 NA
ENDBRANCH  17  18
ENDBRANCH  12  16
TORSDOF 2
ENDMDL
MODEL 5
REMARK VINA RESULT:      -7.2      2.159      3.299
REMARK  Name = 
REMARK  3 active torsions:
REMARK  status: ('A' for Active; 'I' for Inactive)
REMARK    1  A    between atoms: C_1  and  C_2
REMARK    2  A    between atoms: N_12  and  N_13
REMARK    3  A    between atoms: C_14  and  C_15
REMARK                            x       y       z     vdW  Elec       q    Type
REMARK                         _______ _______ _______ _____ _____    ______ ____
ROOT
ATOM      1  C   UNL     1       1.978  10.099  17.855  0.00  0.00    +0.000 C 
ATOM      2  C   UNL     1       2.086   8.710  18.428  0.00  0.00    +0.000 A 
ATOM      3  N   UNL     1       2.806   7.851  17.773  0.00  0.00    +0.000 NA
ATOM      4  C   UNL     1       3.017   6.576  18.317  0.00  0.00    +0.000 A 
ATOM      5  C   UNL     1       3.700   5.612  17.567  0.00  0.00    +0.000 A 
ATOM      6  C   UNL     1       3.854   4.356  18.121  0.00  0.00    +0.000 A 
ATOM      7  C   UNL     1       3.450   4.070  19.407  0.00  0.00    +0.000 A 
ATOM      8  C   UNL     1       2.822   5.001  20.190  0.00  0.00    +0.000 A 
ATOM      9  C   UNL     1       2.555   6.240  19.599  0.00  0.00    +0.000 A 
ATOM     10  C   UNL     1       1.656   7.181  20.271  0.00  0.00    +0.000 A 
ATOM     11  O   UNL     1       1.096   6.821  21.310  0.00  0.00    +0.000 OA
ATOM     12  N   UNL     1       1.446   8.408  19.623  0.00  0.00    +0.000 N 
ATOM     13  O   UNL     1       3.649   2.765  19.736  0.00  0.00    +0.000 OA
ATOM     14  C   UNL     1       3.881   2.229  18.419  0.00  0.00    +0.000 C 
ATOM     15  O   UNL     1       4.324   3.243  17.488  0.00  0.00    +0.000 OA
ENDROOT
BRANCH  12  16
ATOM     16  N   UNL     1       0.623   9.244  20.350  0.00  0.00    +0.000 NA
ATOM     17  C   UNL     1       1.040   9.880  21.394  0.00  0.00    +0.000 C 
BRANCH  17  18
ATOM     18  C   UNL     1       0.197  10.943  21.993  0.00  0.00    +0.000 A 
ATOM     19  C   UNL     1      -0.872  10.608  22.819  0.00  0.00    +0.000 A 
ATOM     20  C   UNL     1      -1.708  11.630  23.260  0.00  0.00    +0.000 A 
ATOM     21  C   UNL     1      -1.440  12.937  22.872  0.00  0.00    +0.000 A 
ATOM     22  C   UNL     1      -0.344  13.173  22.054  0.00  0.00    +0.000 A 
ATOM     23  N   UNL     1       0.481  12.205  21.592  0.00  0.00    +0.000 NA
ENDBRANCH  17  18
ENDBRANCH  12  16
TORSDOF 2
ENDMDL
MODEL 6
REMARK VINA RESULT:      -7.0      2.511      3.764
REMARK  Name = 
REMARK  3 active torsions:
REMARK  status: ('A' for Active; 'I' for Inactive)
REMARK    1  A    between atoms: C_1  and  C_2
REMARK    2  A    between atoms: N_12  and  N_13
REMARK    3  A    between atoms: C_14  and  C_15
REMARK                            x       y       z     vdW  Elec       q    Type
REMARK                         _______ _______ _______ _____ _____    ______ ____
ROOT
ATOM      1  C   UNL     1       2.163  10.111  17.722  0.00  0.00    +0.000 C 
ATOM      2  C   UNL     1       2.100   8.780  18.425  0.00  0.00    +0.000 A 
ATOM      3  N   UNL     1       2.604   7.756  17.806  0.00  0.00    +0.000 NA
ATOM      4  C   UNL     1       2.658   6.518  18.460  0.00  0.00    +0.000 A 
ATOM      5  C   UNL     1       3.100   5.389  17.760  0.00  0.00    +0.000 A 
ATOM      6  C   UNL     1       3.101   4.178  18.427  0.00  0.00    +0.000 A 
ATOM      7  C   UNL     1       2.784   4.080  19.764  0.00  0.00    +0.000 A 
ATOM      8  C   UNL     1       2.394   5.171  20.496  0.00  0.00    +0.000 A 
ATOM      9  C   UNL     1       2.275   6.380  19.803  0.00  0.00    +0.000 A 
ATOM     10  C   UNL     1       1.610   7.516  20.445  0.00  0.00    +0.000 A 
ATOM     11  O   UNL     1       1.104   7.350  21.558  0.00  0.00    +0.000 OA
ATOM     12  N   UNL     1       1.539   8.698  19.693  0.00  0.00    +0.000 N 
ATOM     13  O   UNL     1       2.800   2.795  20.209  0.00  0.00    +0.000 OA
ATOM     14  C   UNL     1       2.813   2.113  18.940  0.00  0.00    +0.000 C 
ATOM     15  O   UNL     1       3.321   2.950  17.877  0.00  0.00    +0.000 OA
ENDROOT
BRANCH  12  16
ATOM     16  N   UNL     1       0.937   9.724  20.395  0.00  0.00    +0.000 NA
ATOM     17  C   UNL     1      -0.217  10.198  20.061  0.00  0.00    +0.000 C 
BRANCH  17  18
ATOM     18  C   UNL     1      -0.925  11.123  20.978  0.00  0.00    +0.000 A 
ATOM     19  C   UNL     1      -0.776  10.996  22.356  0.00  0.00    +0.000 A 
ATOM     20  C   UNL     1      -1.552  11.806  23.179  0.00  0.00    +0.000 A 
ATOM     21  C   UNL     1      -2.432  12.713  22.600  0.00  0.00    +0.000 A 
ATOM     22  C   UNL     1      -2.503  12.773  21.215  0.00  0.00    +0.000 A 
ATOM     23  N   UNL     1      -1.776  11.992  20.383  0.00  0.00    +0.000 NA
ENDBRANCH  17  18
ENDBRANCH  12  16
TORSDOF 2
ENDMDL
MODEL 7
REMARK VINA RESULT:      -6.9      2.747      4.807
REMARK  Name = 
REMARK  3 active torsions:
REMARK  status: ('A' for Active; 'I' for Inactive)
REMARK    1  A    between atoms: C_1  and  C_2
REMARK    2  A    between atoms: N_12  and  N_13
REMARK    3  A    between atoms: C_14  and  C_15
REMARK                            x       y       z     vdW  Elec       q    Type
REMARK                         _______ _______ _______ _____ _____    ______ ____
ROOT
ATOM      1  C   UNL     1       0.246  12.314  18.779  0.00  0.00    +0.000 C 
ATOM      2  C   UNL     1       0.577  10.899  19.174  0.00  0.00    +0.000 A 
ATOM      3  N   UNL     1       1.361  10.229  18.385  0.00  0.00    +0.000 NA
ATOM      4  C   UNL     1       1.777   8.943  18.760  0.00  0.00    +0.000 A 
ATOM      5  C   UNL     1       2.532   8.176  17.865  0.00  0.00    +0.000 A 
ATOM      6  C   UNL     1       2.889   6.900  18.255  0.00  0.00    +0.000 A 
ATOM      7  C   UNL     1       2.614   6.417  19.516  0.00  0.00    +0.000 A 
ATOM      8  C   UNL     1       1.919   7.155  20.436  0.00  0.00    +0.000 A 
ATOM      9  C   UNL     1       1.450   8.403  20.013  0.00  0.00    +0.000 A 
ATOM     10  C   UNL     1       0.479   9.126  20.838  0.00  0.00    +0.000 A 
ATOM     11  O   UNL     1       0.043   8.576  21.852  0.00  0.00    +0.000 OA
ATOM     12  N   UNL     1       0.064  10.376  20.355  0.00  0.00    +0.000 N 
ATOM     13  O   UNL     1       3.007   5.124  19.674  0.00  0.00    +0.000 OA
ATOM     14  C   UNL     1       3.222   4.778  18.293  0.00  0.00    +0.000 C 
ATOM     15  O   UNL     1       3.462   5.943  17.471  0.00  0.00    +0.000 OA
ENDROOT
BRANCH  12  16
ATOM     16  N   UNL     1      -0.814  11.000  21.217  0.00  0.00    +0.000 NA
ATOM     17  C   UNL     1      -0.413  11.612  22.281  0.00  0.00    +0.000 C 
BRANCH  17  18
ATOM     18  C   UNL     1      -1.358  12.465  23.040  0.00  0.00    +0.000 A 
ATOM     19  C   UNL     1      -2.692  12.091  23.171  0.00  0.00    +0.000 A 
ATOM     20  C   UNL     1      -3.568  12.980  23.786  0.00  0.00    +0.000 A 
ATOM     21  C   UNL     1      -3.081  14.194  24.254  0.00  0.00    +0.000 A 
ATOM     22  C   UNL     1      -1.732  14.474  24.086  0.00  0.00    +0.000 A 
ATOM     23  N   UNL     1      -0.853  13.642  23.480  0.00  0.00    +0.000 NA
ENDBRANCH  17  18
ENDBRANCH  12  16
TORSDOF 2
ENDMDL
MODEL 8
REMARK VINA RESULT:      -6.9      2.876      5.146
REMARK  Name = 
REMARK  3 active torsions:
REMARK  status: ('A' for Active; 'I' for Inactive)
REMARK    1  A    between atoms: C_1  and  C_2
REMARK    2  A    between atoms: N_12  and  N_13
REMARK    3  A    between atoms: C_14  and  C_15
REMARK                            x       y       z     vdW  Elec       q    Type
REMARK                         _______ _______ _______ _____ _____    ______ ____
ROOT
ATOM      1  C   UNL     1      -0.284  12.441  18.801  0.00  0.00    +0.000 C 
ATOM      2  C   UNL     1       0.152  11.062  19.224  0.00  0.00    +0.000 A 
ATOM      3  N   UNL     1       0.967  10.429  18.438  0.00  0.00    +0.000 NA
ATOM      4  C   UNL     1       1.478   9.185  18.837  0.00  0.00    +0.000 A 
ATOM      5  C   UNL     1       2.270   8.450  17.947  0.00  0.00    +0.000 A 
ATOM      6  C   UNL     1       2.722   7.211  18.361  0.00  0.00    +0.000 A 
ATOM      7  C   UNL     1       2.501   6.742  19.638  0.00  0.00    +0.000 A 
ATOM      8  C   UNL     1       1.771   7.454  20.553  0.00  0.00    +0.000 A 
ATOM      9  C   UNL     1       1.210   8.655  20.108  0.00  0.00    +0.000 A 
ATOM     10  C   UNL     1       0.204   9.330  20.933  0.00  0.00    +0.000 A 
ATOM     11  O   UNL     1      -0.176   8.777  21.968  0.00  0.00    +0.000 OA
ATOM     12  N   UNL     1      -0.305  10.536  20.426  0.00  0.00    +0.000 N 
ATOM     13  O   UNL     1       2.986   5.485  19.821  0.00  0.00    +0.000 OA
ATOM     14  C   UNL     1       3.201   5.120  18.444  0.00  0.00    +0.000 C 
ATOM     15  O   UNL     1       3.347   6.277  17.590  0.00  0.00    +0.000 OA
ENDROOT
BRANCH  12  16
ATOM     16  N   UNL     1      -1.210  11.119  21.290  0.00  0.00    +0.000 NA
ATOM     17  C   UNL     1      -0.835  11.793  22.325  0.00  0.00    +0.000 C 
BRANCH  17  18
ATOM     18  C   UNL     1      -1.826  12.597  23.079  0.00  0.00    +0.000 A 
ATOM     19  C   UNL     1      -1.502  13.875  23.525  0.00  0.00    +0.000 A 
ATOM     20  C   UNL     1      -2.418  14.543  24.331  0.00  0.00    +0.000 A 
ATOM     21  C   UNL     1      -3.618  13.921  24.650  0.00  0.00    +0.000 A 
ATOM     22  C   UNL     1      -3.856  12.648  24.150  0.00  0.00    +0.000 A 
ATOM     23  N   UNL     1      -2.984  11.960  23.376  0.00  0.00    +0.000 NA
ENDBRANCH  17  18
ENDBRANCH  12  16
TORSDOF 2
ENDMDL
MODEL 9
REMARK VINA RESULT:      -6.9      2.367      3.711
REMARK  Name = 
REMARK  3 active torsions:
REMARK  status: ('A' for Active; 'I' for Inactive)
REMARK    1  A    between atoms: C_1  and  C_2
REMARK    2  A    between atoms: N_12  and  N_13
REMARK    3  A    between atoms: C_14  and  C_15
REMARK                            x       y       z     vdW  Elec       q    Type
REMARK                         _______ _______ _______ _____ _____    ______ ____
ROOT
ATOM      1  C   UNL     1      -0.040   8.971  21.807  0.00  0.00    +0.000 C 
ATOM      2  C   UNL     1       0.911   8.580  20.707  0.00  0.00    +0.000 A 
ATOM      3  N   UNL     1       1.487   7.421  20.802  0.00  0.00    +0.000 NA
ATOM      4  C   UNL     1       2.303   6.972  19.754  0.00  0.00    +0.000 A 
ATOM      5  C   UNL     1       3.011   5.772  19.899  0.00  0.00    +0.000 A 
ATOM      6  C   UNL     1       3.836   5.383  18.861  0.00  0.00    +0.000 A 
ATOM      7  C   UNL     1       3.894   6.080  17.673  0.00  0.00    +0.000 A 
ATOM      8  C   UNL     1       3.179   7.231  17.475  0.00  0.00    +0.000 A 
ATOM      9  C   UNL     1       2.432   7.699  18.561  0.00  0.00    +0.000 A 
ATOM     10  C   UNL     1       1.865   9.049  18.518  0.00  0.00    +0.000 A 
ATOM     11  O   UNL     1       2.129   9.767  17.550  0.00  0.00    +0.000 OA
ATOM     12  N   UNL     1       1.119   9.444  19.638  0.00  0.00    +0.000 N 
ATOM     13  O   UNL     1       4.803   5.555  16.808  0.00  0.00    +0.000 OA
ATOM     14  C   UNL     1       5.522   4.702  17.719  0.00  0.00    +0.000 C 
ATOM     15  O   UNL     1       4.733   4.357  18.880  0.00  0.00    +0.000 OA
ENDROOT
BRANCH  12  16
ATOM     16  N   UNL     1       0.590  10.710  19.489  0.00  0.00    +0.000 NA
ATOM     17  C   UNL     1       1.097  11.740  20.080  0.00  0.00    +0.000 C 
BRANCH  17  18
ATOM     18  C   UNL     1       0.648  13.101  19.702  0.00  0.00    +0.000 A 
ATOM     19  C   UNL     1       1.514  13.969  19.044  0.00  0.00    +0.000 A 
ATOM     20  C   UNL     1       1.091  15.275  18.818  0.00  0.00    +0.000 A 
ATOM     21  C   UNL     1      -0.175  15.659  19.242  0.00  0.00    +0.000 A 
ATOM     22  C   UNL     1      -0.971  14.718  19.881  0.00  0.00    +0.000 A 
ATOM     23  N   UNL     1      -0.589  13.445  20.132  0.00  0.00    +0.000 NA
ENDBRANCH  17  18
ENDBRANCH  12  16
TORSDOF 2
ENDMDL
