MODEL 1
REMARK VINA RESULT:      -6.7      0.000      0.000
REMARK  Name = 
REMARK  1 active torsions:
REMARK  status: ('A' for Active; 'I' for Inactive)
REMARK    1  A    between atoms: C_5  and  N_6
REMARK                            x       y       z     vdW  Elec       q    Type
REMARK                         _______ _______ _______ _____ _____    ______ ____
ROOT
ATOM      1  N   UNL     1       5.435   5.267  17.976  0.00  0.00    +0.000 N 
ATOM      2  C   UNL     1       5.510   6.658  17.488  0.00  0.00    +0.000 C 
ATOM      3  C   UNL     1       7.049   6.823  17.262  0.00  0.00    +0.000 C 
ATOM      4  C   UNL     1       7.602   5.998  18.416  0.00  0.00    +0.000 C 
ATOM      5  C   UNL     1       6.822   4.753  17.992  0.00  0.00    +0.000 C 
ATOM      6  C   UNL     1       7.298   4.614  16.527  0.00  0.00    +0.000 C 
ATOM      7  N   UNL     1       7.515   6.026  16.084  0.00  0.00    +0.000 NA
ATOM      8  H   UNL     1       6.895   6.211  15.296  0.00  0.00    +0.000 HD
ENDROOT
BRANCH   1  13
ATOM      9 CL   UNL     1       0.435   2.207  18.836  0.00  0.00    +0.000 Cl
ATOM     10  C   UNL     1       1.887   3.091  18.579  0.00  0.00    +0.000 A 
ATOM     11  C   UNL     1       1.854   4.309  17.915  0.00  0.00    +0.000 A 
ATOM     12  C   UNL     1       3.040   5.027  17.717  0.00  0.00    +0.000 A 
ATOM     13  C   UNL     1       4.285   4.550  18.159  0.00  0.00    +0.000 A 
ATOM     14  C   UNL     1       4.278   3.315  18.826  0.00  0.00    +0.000 A 
ATOM     15  C   UNL     1       3.097   2.590  19.039  0.00  0.00    +0.000 A 
ENDBRANCH   1  13
TORSDOF 1
ENDMDL
MODEL 2
REMARK VINA RESULT:      -6.6      0.067      1.281
REMARK  Name = 
REMARK  1 active torsions:
REMARK  status: ('A' for Active; 'I' for Inactive)
REMARK    1  A    between atoms: C_5  and  N_6
REMARK                            x       y       z     vdW  Elec       q    Type
REMARK                         _______ _______ _______ _____ _____    ______ ____
ROOT
ATOM      1  N   UNL     1       5.411   5.333  17.981  0.00  0.00    +0.000 N 
ATOM      2  C   UNL     1       5.488   6.697  17.423  0.00  0.00    +0.000 C 
ATOM      3  C   UNL     1       7.029   6.855  17.205  0.00  0.00    +0.000 C 
ATOM      4  C   UNL     1       7.572   6.092  18.405  0.00  0.00    +0.000 C 
ATOM      5  C   UNL     1       6.801   4.825  18.037  0.00  0.00    +0.000 C 
ATOM      6  C   UNL     1       7.292   4.612  16.587  0.00  0.00    +0.000 C 
ATOM      7  N   UNL     1       7.509   6.000  16.074  0.00  0.00    +0.000 NA
ATOM      8  H   UNL     1       6.897   6.143  15.271  0.00  0.00    +0.000 HD
ENDROOT
BRANCH   1  13
ATOM      9 CL   UNL     1       0.450   2.204  18.813  0.00  0.00    +0.000 Cl
ATOM     10  C   UNL     1       1.888   3.116  18.579  0.00  0.00    +0.000 A 
ATOM     11  C   UNL     1       3.109   2.613  19.004  0.00  0.00    +0.000 A 
ATOM     12  C   UNL     1       4.278   3.358  18.802  0.00  0.00    +0.000 A 
ATOM     13  C   UNL     1       4.263   4.621  18.188  0.00  0.00    +0.000 A 
ATOM     14  C   UNL     1       3.008   5.096  17.773  0.00  0.00    +0.000 A 
ATOM     15  C   UNL     1       1.832   4.357  17.960  0.00  0.00    +0.000 A 
ENDBRANCH   1  13
TORSDOF 1
ENDMDL
MODEL 3
REMARK VINA RESULT:      -6.6      1.389      1.389
REMARK  Name = 
REMARK  1 active torsions:
REMARK  status: ('A' for Active; 'I' for Inactive)
REMARK    1  A    between atoms: C_5  and  N_6
REMARK                            x       y       z     vdW  Elec       q    Type
REMARK                         _______ _______ _______ _____ _____    ______ ____
ROOT
ATOM      1  N   UNL     1       5.622   5.622  18.505  0.00  0.00    +0.000 N 
ATOM      2  C   UNL     1       5.451   6.692  17.503  0.00  0.00    +0.000 C 
ATOM      3  C   UNL     1       6.918   6.877  16.996  0.00  0.00    +0.000 C 
ATOM      4  C   UNL     1       7.702   6.647  18.281  0.00  0.00    +0.000 C 
ATOM      5  C   UNL     1       7.062   5.278  18.508  0.00  0.00    +0.000 C 
ATOM      6  C   UNL     1       7.392   4.590  17.163  0.00  0.00    +0.000 C 
ATOM      7  N   UNL     1       7.361   5.710  16.170  0.00  0.00    +0.000 NA
ATOM      8  H   UNL     1       6.640   5.503  15.479  0.00  0.00    +0.000 HD
ENDROOT
BRANCH   1  13
ATOM      9 CL   UNL     1       1.269   2.732  21.296  0.00  0.00    +0.000 Cl
ATOM     10  C   UNL     1       2.528   3.569  20.479  0.00  0.00    +0.000 A 
ATOM     11  C   UNL     1       2.447   4.942  20.293  0.00  0.00    +0.000 A 
ATOM     12  C   UNL     1       3.481   5.618  19.634  0.00  0.00    +0.000 A 
ATOM     13  C   UNL     1       4.610   4.950  19.132  0.00  0.00    +0.000 A 
ATOM     14  C   UNL     1       4.656   3.562  19.339  0.00  0.00    +0.000 A 
ATOM     15  C   UNL     1       3.633   2.874  20.006  0.00  0.00    +0.000 A 
ENDBRANCH   1  13
TORSDOF 1
ENDMDL
MODEL 4
REMARK VINA RESULT:      -6.5      3.128      5.534
REMARK  Name = 
REMARK  1 active torsions:
REMARK  status: ('A' for Active; 'I' for Inactive)
REMARK    1  A    between atoms: C_5  and  N_6
REMARK                            x       y       z     vdW  Elec       q    Type
REMARK                         _______ _______ _______ _____ _____    ______ ____
ROOT
ATOM      1  N   UNL     1       3.014   3.916  18.700  0.00  0.00    +0.000 N 
ATOM      2  C   UNL     1       1.664   4.052  18.120  0.00  0.00    +0.000 C 
ATOM      3  C   UNL     1       0.854   3.029  18.981  0.00  0.00    +0.000 C 
ATOM      4  C   UNL     1       1.892   1.933  19.185  0.00  0.00    +0.000 C 
ATOM      5  C   UNL     1       2.907   2.910  19.780  0.00  0.00    +0.000 C 
ATOM      6  C   UNL     1       2.065   3.522  20.923  0.00  0.00    +0.000 C 
ATOM      7  N   UNL     1       0.671   3.521  20.383  0.00  0.00    +0.000 NA
ATOM      8  H   UNL     1       0.340   4.485  20.352  0.00  0.00    +0.000 HD
ENDROOT
BRANCH   1  13
ATOM      9 CL   UNL     1       7.664   7.370  17.455  0.00  0.00    +0.000 Cl
ATOM     10  C   UNL     1       6.312   6.374  17.822  0.00  0.00    +0.000 A 
ATOM     11  C   UNL     1       5.146   6.480  17.078  0.00  0.00    +0.000 A 
ATOM     12  C   UNL     1       4.051   5.658  17.377  0.00  0.00    +0.000 A 
ATOM     13  C   UNL     1       4.082   4.725  18.427  0.00  0.00    +0.000 A 
ATOM     14  C   UNL     1       5.279   4.648  19.156  0.00  0.00    +0.000 A 
ATOM     15  C   UNL     1       6.385   5.457  18.862  0.00  0.00    +0.000 A 
ENDBRANCH   1  13
TORSDOF 1
ENDMDL
MODEL 5
REMARK VINA RESULT:      -6.5      3.128      5.665
REMARK  Name = 
REMARK  1 active torsions:
REMARK  status: ('A' for Active; 'I' for Inactive)
REMARK    1  A    between atoms: C_5  and  N_6
REMARK                            x       y       z     vdW  Elec       q    Type
REMARK                         _______ _______ _______ _____ _____    ______ ____
ROOT
ATOM      1  N   UNL     1       3.019   3.905  18.686  0.00  0.00    +0.000 N 
ATOM      2  C   UNL     1       1.676   4.018  18.083  0.00  0.00    +0.000 C 
ATOM      3  C   UNL     1       0.852   3.036  18.979  0.00  0.00    +0.000 C 
ATOM      4  C   UNL     1       1.884   1.949  19.245  0.00  0.00    +0.000 C 
ATOM      5  C   UNL     1       2.894   2.949  19.808  0.00  0.00    +0.000 C 
ATOM      6  C   UNL     1       2.040   3.614  20.912  0.00  0.00    +0.000 C 
ATOM      7  N   UNL     1       0.652   3.592  20.355  0.00  0.00    +0.000 NA
ATOM      8  H   UNL     1       0.325   4.554  20.276  0.00  0.00    +0.000 HD
ENDROOT
BRANCH   1  13
ATOM      9 CL   UNL     1       7.649   7.395  17.469  0.00  0.00    +0.000 Cl
ATOM     10  C   UNL     1       6.309   6.376  17.816  0.00  0.00    +0.000 A 
ATOM     11  C   UNL     1       6.377   5.466  18.861  0.00  0.00    +0.000 A 
ATOM     12  C   UNL     1       5.277   4.646  19.143  0.00  0.00    +0.000 A 
ATOM     13  C   UNL     1       4.092   4.698  18.390  0.00  0.00    +0.000 A 
ATOM     14  C   UNL     1       4.062   5.631  17.342  0.00  0.00    +0.000 A 
ATOM     15  C   UNL     1       5.151   6.465  17.054  0.00  0.00    +0.000 A 
ENDBRANCH   1  13
TORSDOF 1
ENDMDL
MODEL 6
REMARK VINA RESULT:      -6.5      1.393      1.805
REMARK  Name = 
REMARK  1 active torsions:
REMARK  status: ('A' for Active; 'I' for Inactive)
REMARK    1  A    between atoms: C_5  and  N_6
REMARK                            x       y       z     vdW  Elec       q    Type
REMARK                         _______ _______ _______ _____ _____    ______ ____
ROOT
ATOM      1  N   UNL     1       5.643   5.630  18.520  0.00  0.00    +0.000 N 
ATOM      2  C   UNL     1       5.460   6.675  17.493  0.00  0.00    +0.000 C 
ATOM      3  C   UNL     1       6.924   6.860  16.976  0.00  0.00    +0.000 C 
ATOM      4  C   UNL     1       7.714   6.666  18.263  0.00  0.00    +0.000 C 
ATOM      5  C   UNL     1       7.085   5.297  18.525  0.00  0.00    +0.000 C 
ATOM      6  C   UNL     1       7.416   4.581  17.195  0.00  0.00    +0.000 C 
ATOM      7  N   UNL     1       7.373   5.677  16.177  0.00  0.00    +0.000 NA
ATOM      8  H   UNL     1       6.651   5.449  15.493  0.00  0.00    +0.000 HD
ENDROOT
BRANCH   1  13
ATOM      9 CL   UNL     1       1.258   2.724  21.244  0.00  0.00    +0.000 Cl
ATOM     10  C   UNL     1       2.534   3.568  20.461  0.00  0.00    +0.000 A 
ATOM     11  C   UNL     1       3.635   2.876  19.977  0.00  0.00    +0.000 A 
ATOM     12  C   UNL     1       4.667   3.570  19.333  0.00  0.00    +0.000 A 
ATOM     13  C   UNL     1       4.639   4.965  19.165  0.00  0.00    +0.000 A 
ATOM     14  C   UNL     1       3.509   5.629  19.668  0.00  0.00    +0.000 A 
ATOM     15  C   UNL     1       2.465   4.947  20.307  0.00  0.00    +0.000 A 
ENDBRANCH   1  13
TORSDOF 1
ENDMDL
MODEL 7
REMARK VINA RESULT:      -6.3      1.394      2.052
REMARK  Name = 
REMARK  1 active torsions:
REMARK  status: ('A' for Active; 'I' for Inactive)
REMARK    1  A    between atoms: C_5  and  N_6
REMARK                            x       y       z     vdW  Elec       q    Type
REMARK                         _______ _______ _______ _____ _____    ______ ____
ROOT
ATOM      1  N   UNL     1       4.772   4.738  16.936  0.00  0.00    +0.000 N 
ATOM      2  C   UNL     1       5.827   3.958  16.262  0.00  0.00    +0.000 C 
ATOM      3  C   UNL     1       6.561   5.072  15.446  0.00  0.00    +0.000 C 
ATOM      4  C   UNL     1       5.391   5.965  15.056  0.00  0.00    +0.000 C 
ATOM      5  C   UNL     1       4.953   6.144  16.509  0.00  0.00    +0.000 C 
ATOM      6  C   UNL     1       6.266   6.668  17.134  0.00  0.00    +0.000 C 
ATOM      7  N   UNL     1       7.337   5.983  16.345  0.00  0.00    +0.000 NA
ATOM      8  H   UNL     1       7.893   5.418  16.986  0.00  0.00    +0.000 HD
ENDROOT
BRANCH   1  13
ATOM      9 CL   UNL     1       1.198   2.798  21.245  0.00  0.00    +0.000 Cl
ATOM     10  C   UNL     1       2.233   3.353  19.990  0.00  0.00    +0.000 A 
ATOM     11  C   UNL     1       1.733   4.165  18.982  0.00  0.00    +0.000 A 
ATOM     12  C   UNL     1       2.585   4.622  17.968  0.00  0.00    +0.000 A 
ATOM     13  C   UNL     1       3.945   4.273  17.921  0.00  0.00    +0.000 A 
ATOM     14  C   UNL     1       4.413   3.450  18.958  0.00  0.00    +0.000 A 
ATOM     15  C   UNL     1       3.574   2.994  19.984  0.00  0.00    +0.000 A 
ENDBRANCH   1  13
TORSDOF 1
ENDMDL
MODEL 8
REMARK VINA RESULT:      -6.3      3.203      5.486
REMARK  Name = 
REMARK  1 active torsions:
REMARK  status: ('A' for Active; 'I' for Inactive)
REMARK    1  A    between atoms: C_5  and  N_6
REMARK                            x       y       z     vdW  Elec       q    Type
REMARK                         _______ _______ _______ _____ _____    ______ ____
ROOT
ATOM      1  N   UNL     1       3.221   3.409  19.431  0.00  0.00    +0.000 N 
ATOM      2  C   UNL     1       2.233   2.327  19.253  0.00  0.00    +0.000 C 
ATOM      3  C   UNL     1       1.327   2.526  20.512  0.00  0.00    +0.000 C 
ATOM      4  C   UNL     1       2.358   2.956  21.547  0.00  0.00    +0.000 C 
ATOM      5  C   UNL     1       2.849   4.114  20.678  0.00  0.00    +0.000 C 
ATOM      6  C   UNL     1       1.517   4.858  20.428  0.00  0.00    +0.000 C 
ATOM      7  N   UNL     1       0.496   3.765  20.395  0.00  0.00    +0.000 NA
ATOM      8  H   UNL     1       0.048   3.775  19.479  0.00  0.00    +0.000 HD
ENDROOT
BRANCH   1  13
ATOM      9 CL   UNL     1       7.268   5.019  15.415  0.00  0.00    +0.000 Cl
ATOM     10  C   UNL     1       6.090   4.560  16.580  0.00  0.00    +0.000 A 
ATOM     11  C   UNL     1       4.878   4.022  16.172  0.00  0.00    +0.000 A 
ATOM     12  C   UNL     1       3.928   3.642  17.128  0.00  0.00    +0.000 A 
ATOM     13  C   UNL     1       4.149   3.799  18.506  0.00  0.00    +0.000 A 
ATOM     14  C   UNL     1       5.387   4.347  18.879  0.00  0.00    +0.000 A 
ATOM     15  C   UNL     1       6.351   4.722  17.934  0.00  0.00    +0.000 A 
ENDBRANCH   1  13
TORSDOF 1
ENDMDL
MODEL 9
REMARK VINA RESULT:      -6.3      3.202      5.553
REMARK  Name = 
REMARK  1 active torsions:
REMARK  status: ('A' for Active; 'I' for Inactive)
REMARK    1  A    between atoms: C_5  and  N_6
REMARK                            x       y       z     vdW  Elec       q    Type
REMARK                         _______ _______ _______ _____ _____    ______ ____
ROOT
ATOM      1  N   UNL     1       3.223   3.383  19.433  0.00  0.00    +0.000 N 
ATOM      2  C   UNL     1       2.235   2.299  19.273  0.00  0.00    +0.000 C 
ATOM      3  C   UNL     1       1.327   2.521  20.526  0.00  0.00    +0.000 C 
ATOM      4  C   UNL     1       2.355   2.970  21.555  0.00  0.00    +0.000 C 
ATOM      5  C   UNL     1       2.849   4.111  20.666  0.00  0.00    +0.000 C 
ATOM      6  C   UNL     1       1.518   4.851  20.400  0.00  0.00    +0.000 C 
ATOM      7  N   UNL     1       0.496   3.758  20.385  0.00  0.00    +0.000 NA
ATOM      8  H   UNL     1       0.050   3.752  19.468  0.00  0.00    +0.000 HD
ENDROOT
BRANCH   1  13
ATOM      9 CL   UNL     1       7.231   5.079  15.413  0.00  0.00    +0.000 Cl
ATOM     10  C   UNL     1       6.072   4.579  16.579  0.00  0.00    +0.000 A 
ATOM     11  C   UNL     1       6.349   4.697  17.934  0.00  0.00    +0.000 A 
ATOM     12  C   UNL     1       5.395   4.296  18.878  0.00  0.00    +0.000 A 
ATOM     13  C   UNL     1       4.153   3.756  18.504  0.00  0.00    +0.000 A 
ATOM     14  C   UNL     1       3.910   3.652  17.125  0.00  0.00    +0.000 A 
ATOM     15  C   UNL     1       4.851   4.059  16.169  0.00  0.00    +0.000 A 
ENDBRANCH   1  13
TORSDOF 1
ENDMDL
