MODEL 1
REMARK VINA RESULT:      -9.0      0.000      0.000
REMARK  Name = 
REMARK  10 active torsions:
REMARK  status: ('A' for Active; 'I' for Inactive)
REMARK    1  A    between atoms: C_1  and  O_2
REMARK    2  A    between atoms: O_2  and  C_3
REMARK    3  A    between atoms: C_6  and  N_7
REMARK    4  A    between atoms: C_8  and  C_10
REMARK    5  A    between atoms: C_10  and  C_11
REMARK    6  A    between atoms: C_10  and  N_21
REMARK    7  A    between atoms: C_11  and  C_12
REMARK    8  A    between atoms: C_22  and  C_24
REMARK    9  A    between atoms: C_24  and  C_25
REMARK   10  A    between atoms: C_25  and  C_26
REMARK                            x       y       z     vdW  Elec       q    Type
REMARK                         _______ _______ _______ _____ _____    ______ ____
ROOT
ATOM      1  C   UNL     1       6.009   6.676  17.437  0.00  0.00    +0.000 C 
ENDROOT
BRANCH   1   3
ATOM      2  N   UNL     1       5.830   5.650  15.087  0.00  0.00    +0.000 N 
ATOM      3  C   UNL     1       6.557   5.729  16.288  0.00  0.00    +0.000 C 
ATOM      4  O   UNL     1       7.526   5.023  16.557  0.00  0.00    +0.000 OA
ATOM      5  H   UNL     1       4.991   6.221  15.017  0.00  0.00    +0.000 HD
BRANCH   2   9
ATOM      6  C   UNL     1       6.815   3.110  11.753  0.00  0.00    +0.000 A 
ATOM      7  C   UNL     1       5.644   2.918  12.476  0.00  0.00    +0.000 A 
ATOM      8  C   UNL     1       5.296   3.745  13.559  0.00  0.00    +0.000 A 
ATOM      9  C   UNL     1       6.121   4.798  13.971  0.00  0.00    +0.000 A 
ATOM     10  C   UNL     1       7.301   4.995  13.229  0.00  0.00    +0.000 A 
ATOM     11  C   UNL     1       7.658   4.151  12.144  0.00  0.00    +0.000 A 
BRANCH   6  13
ATOM     12  C   UNL     1       6.586   0.864  10.982  0.00  0.00    +0.000 C 
ATOM     13  O   UNL     1       7.032   2.193  10.767  0.00  0.00    +0.000 OA
ENDBRANCH   6  13
ENDBRANCH   2   9
ENDBRANCH   1   3
BRANCH   1  14
ATOM     14  N   UNL     1       6.787   7.901  17.417  0.00  0.00    +0.000 N 
ATOM     15  C   UNL     1       7.940   8.107  18.119  0.00  0.00    +0.000 C 
ATOM     16  O   UNL     1       8.404   7.253  18.876  0.00  0.00    +0.000 OA
ATOM     17  H   UNL     1       6.555   8.522  16.656  0.00  0.00    +0.000 HD
BRANCH  15  18
ATOM     18  C   UNL     1       8.617   9.465  17.939  0.00  0.00    +0.000 C 
BRANCH  18  19
ATOM     19  C   UNL     1       9.244  10.120  19.181  0.00  0.00    +0.000 C 
BRANCH  19  20
ATOM     20  C   UNL     1      10.335  11.144  18.945  0.00  0.00    +0.000 A 
ATOM     21  C   UNL     1      11.131  11.624  19.989  0.00  0.00    +0.000 A 
ATOM     22  C   UNL     1      12.142  12.544  19.741  0.00  0.00    +0.000 A 
ATOM     23  C   UNL     1      12.309  13.092  18.475  0.00  0.00    +0.000 A 
ATOM     24  C   UNL     1      11.528  12.630  17.423  0.00  0.00    +0.000 A 
ATOM     25  C   UNL     1      10.571  11.634  17.652  0.00  0.00    +0.000 A 
ENDBRANCH  19  20
ENDBRANCH  18  19
ENDBRANCH  15  18
ENDBRANCH   1  14
BRANCH   1  26
ATOM     26  C   UNL     1       5.761   6.030  18.791  0.00  0.00    +0.000 C 
BRANCH  26  27
ATOM     27  C   UNL     1       4.764   4.892  19.014  0.00  0.00    +0.000 A 
ATOM     28  C   UNL     1       5.202   3.598  18.741  0.00  0.00    +0.000 A 
ATOM     29  N   UNL     1       4.082   2.897  18.417  0.00  0.00    +0.000 N 
ATOM     30  C   UNL     1       3.071   3.348  19.217  0.00  0.00    +0.000 A 
ATOM     31  C   UNL     1       1.932   2.667  19.660  0.00  0.00    +0.000 A 
ATOM     32  C   UNL     1       0.995   3.400  20.365  0.00  0.00    +0.000 A 
ATOM     33  C   UNL     1       1.145   4.784  20.454  0.00  0.00    +0.000 A 
ATOM     34  C   UNL     1       2.306   5.451  19.985  0.00  0.00    +0.000 A 
ATOM     35  C   UNL     1       3.371   4.703  19.434  0.00  0.00    +0.000 A 
ATOM     36  H   UNL     1       3.916   2.495  17.504  0.00  0.00    +0.000 HD
ENDBRANCH  26  27
ENDBRANCH   1  26
TORSDOF 9
ENDMDL
MODEL 2
REMARK VINA RESULT:      -8.9      1.906      8.630
REMARK  Name = 
REMARK  10 active torsions:
REMARK  status: ('A' for Active; 'I' for Inactive)
REMARK    1  A    between atoms: C_1  and  O_2
REMARK    2  A    between atoms: O_2  and  C_3
REMARK    3  A    between atoms: C_6  and  N_7
REMARK    4  A    between atoms: C_8  and  C_10
REMARK    5  A    between atoms: C_10  and  C_11
REMARK    6  A    between atoms: C_10  and  N_21
REMARK    7  A    between atoms: C_11  and  C_12
REMARK    8  A    between atoms: C_22  and  C_24
REMARK    9  A    between atoms: C_24  and  C_25
REMARK   10  A    between atoms: C_25  and  C_26
REMARK                            x       y       z     vdW  Elec       q    Type
REMARK                         _______ _______ _______ _____ _____    ______ ____
ROOT
ATOM      1  C   UNL     1       7.529   6.642  17.831  0.00  0.00    +0.000 C 
ENDROOT
BRANCH   1   3
ATOM      2  N   UNL     1       8.796   8.650  18.813  0.00  0.00    +0.000 N 
ATOM      3  C   UNL     1       7.847   8.195  17.881  0.00  0.00    +0.000 C 
ATOM      4  O   UNL     1       7.156   8.933  17.181  0.00  0.00    +0.000 OA
ATOM      5  H   UNL     1       9.240   7.949  19.400  0.00  0.00    +0.000 HD
BRANCH   2   9
ATOM      6  C   UNL     1       9.931  12.719  19.651  0.00  0.00    +0.000 A 
ATOM      7  C   UNL     1       9.794  12.270  18.343  0.00  0.00    +0.000 A 
ATOM      8  C   UNL     1       9.410  10.950  18.047  0.00  0.00    +0.000 A 
ATOM      9  C   UNL     1       9.159  10.016  19.060  0.00  0.00    +0.000 A 
ATOM     10  C   UNL     1       9.288  10.478  20.382  0.00  0.00    +0.000 A 
ATOM     11  C   UNL     1       9.688  11.808  20.680  0.00  0.00    +0.000 A 
BRANCH   6  13
ATOM     12  C   UNL     1       9.433  15.047  19.492  0.00  0.00    +0.000 C 
ATOM     13  O   UNL     1      10.359  14.008  19.768  0.00  0.00    +0.000 OA
ENDBRANCH   6  13
ENDBRANCH   2   9
ENDBRANCH   1   3
BRANCH   1  14
ATOM     14  N   UNL     1       6.889   6.356  16.560  0.00  0.00    +0.000 N 
ATOM     15  C   UNL     1       7.058   5.208  15.840  0.00  0.00    +0.000 C 
ATOM     16  O   UNL     1       7.821   4.314  16.207  0.00  0.00    +0.000 OA
ATOM     17  H   UNL     1       6.109   6.961  16.350  0.00  0.00    +0.000 HD
BRANCH  15  18
ATOM     18  C   UNL     1       6.270   5.097  14.536  0.00  0.00    +0.000 C 
BRANCH  18  19
ATOM     19  C   UNL     1       7.058   4.795  13.250  0.00  0.00    +0.000 C 
BRANCH  19  20
ATOM     20  C   UNL     1       6.592   3.620  12.414  0.00  0.00    +0.000 A 
ATOM     21  C   UNL     1       7.496   2.737  11.820  0.00  0.00    +0.000 A 
ATOM     22  C   UNL     1       7.042   1.652  11.080  0.00  0.00    +0.000 A 
ATOM     23  C   UNL     1       5.687   1.487  10.819  0.00  0.00    +0.000 A 
ATOM     24  C   UNL     1       4.771   2.355  11.400  0.00  0.00    +0.000 A 
ATOM     25  C   UNL     1       5.220   3.393  12.224  0.00  0.00    +0.000 A 
ENDBRANCH  19  20
ENDBRANCH  18  19
ENDBRANCH  15  18
ENDBRANCH   1  14
BRANCH   1  26
ATOM     26  C   UNL     1       6.905   6.034  19.078  0.00  0.00    +0.000 C 
BRANCH  26  27
ATOM     27  C   UNL     1       5.695   5.099  19.047  0.00  0.00    +0.000 A 
ATOM     28  C   UNL     1       5.856   3.830  19.600  0.00  0.00    +0.000 A 
ATOM     29  N   UNL     1       4.963   3.035  18.950  0.00  0.00    +0.000 N 
ATOM     30  C   UNL     1       3.839   3.778  18.729  0.00  0.00    +0.000 A 
ATOM     31  C   UNL     1       2.514   3.348  18.599  0.00  0.00    +0.000 A 
ATOM     32  C   UNL     1       1.574   4.301  18.253  0.00  0.00    +0.000 A 
ATOM     33  C   UNL     1       2.004   5.579  17.896  0.00  0.00    +0.000 A 
ATOM     34  C   UNL     1       3.357   5.986  18.027  0.00  0.00    +0.000 A 
ATOM     35  C   UNL     1       4.310   5.091  18.564  0.00  0.00    +0.000 A 
ATOM     36  H   UNL     1       5.229   2.262  18.356  0.00  0.00    +0.000 HD
ENDBRANCH  26  27
ENDBRANCH   1  26
TORSDOF 9
ENDMDL
MODEL 3
REMARK VINA RESULT:      -8.8      2.535      8.514
REMARK  Name = 
REMARK  10 active torsions:
REMARK  status: ('A' for Active; 'I' for Inactive)
REMARK    1  A    between atoms: C_1  and  O_2
REMARK    2  A    between atoms: O_2  and  C_3
REMARK    3  A    between atoms: C_6  and  N_7
REMARK    4  A    between atoms: C_8  and  C_10
REMARK    5  A    between atoms: C_10  and  C_11
REMARK    6  A    between atoms: C_10  and  N_21
REMARK    7  A    between atoms: C_11  and  C_12
REMARK    8  A    between atoms: C_22  and  C_24
REMARK    9  A    between atoms: C_24  and  C_25
REMARK   10  A    between atoms: C_25  and  C_26
REMARK                            x       y       z     vdW  Elec       q    Type
REMARK                         _______ _______ _______ _____ _____    ______ ____
ROOT
ATOM      1  C   UNL     1       6.947   7.147  17.293  0.00  0.00    +0.000 C 
ENDROOT
BRANCH   1   3
ATOM      2  N   UNL     1       8.114   9.384  17.781  0.00  0.00    +0.000 N 
ATOM      3  C   UNL     1       7.968   8.029  18.127  0.00  0.00    +0.000 C 
ATOM      4  O   UNL     1       8.666   7.448  18.955  0.00  0.00    +0.000 OA
ATOM      5  H   UNL     1       7.541   9.730  17.016  0.00  0.00    +0.000 HD
BRANCH   2   9
ATOM      6  C   UNL     1      10.884  12.118  19.624  0.00  0.00    +0.000 A 
ATOM      7  C   UNL     1      10.840  11.968  18.243  0.00  0.00    +0.000 A 
ATOM      8  C   UNL     1       9.934  11.092  17.620  0.00  0.00    +0.000 A 
ATOM      9  C   UNL     1       9.037  10.315  18.364  0.00  0.00    +0.000 A 
ATOM     10  C   UNL     1       9.078  10.479  19.761  0.00  0.00    +0.000 A 
ATOM     11  C   UNL     1      10.003  11.354  20.390  0.00  0.00    +0.000 A 
BRANCH   6  13
ATOM     12  C   UNL     1      11.557  14.352  20.122  0.00  0.00    +0.000 C 
ATOM     13  O   UNL     1      11.853  12.967  20.073  0.00  0.00    +0.000 OA
ENDBRANCH   6  13
ENDBRANCH   2   9
ENDBRANCH   1   3
BRANCH   1  14
ATOM     14  N   UNL     1       5.611   7.412  17.794  0.00  0.00    +0.000 N 
ATOM     15  C   UNL     1       4.469   7.342  17.051  0.00  0.00    +0.000 C 
ATOM     16  O   UNL     1       4.488   7.077  15.848  0.00  0.00    +0.000 OA
ATOM     17  H   UNL     1       5.546   7.417  18.802  0.00  0.00    +0.000 HD
BRANCH  15  18
ATOM     18  C   UNL     1       3.159   7.636  17.780  0.00  0.00    +0.000 C 
BRANCH  18  19
ATOM     19  C   UNL     1       2.963   7.017  19.175  0.00  0.00    +0.000 C 
BRANCH  19  20
ATOM     20  C   UNL     1       2.165   5.731  19.253  0.00  0.00    +0.000 A 
ATOM     21  C   UNL     1       1.790   5.173  20.477  0.00  0.00    +0.000 A 
ATOM     22  C   UNL     1       1.036   4.006  20.521  0.00  0.00    +0.000 A 
ATOM     23  C   UNL     1       0.735   3.310  19.356  0.00  0.00    +0.000 A 
ATOM     24  C   UNL     1       1.100   3.848  18.128  0.00  0.00    +0.000 A 
ATOM     25  C   UNL     1       1.778   5.071  18.077  0.00  0.00    +0.000 A 
ENDBRANCH  19  20
ENDBRANCH  18  19
ENDBRANCH  15  18
ENDBRANCH   1  14
BRANCH   1  26
ATOM     26  C   UNL     1       7.331   5.693  17.066  0.00  0.00    +0.000 C 
BRANCH  26  27
ATOM     27  C   UNL     1       6.320   4.546  17.048  0.00  0.00    +0.000 A 
ATOM     28  C   UNL     1       6.049   3.953  15.816  0.00  0.00    +0.000 A 
ATOM     29  N   UNL     1       4.787   3.458  15.921  0.00  0.00    +0.000 N 
ATOM     30  C   UNL     1       4.637   2.984  17.193  0.00  0.00    +0.000 A 
ATOM     31  C   UNL     1       3.801   1.961  17.656  0.00  0.00    +0.000 A 
ATOM     32  C   UNL     1       3.751   1.761  19.023  0.00  0.00    +0.000 A 
ATOM     33  C   UNL     1       4.388   2.672  19.865  0.00  0.00    +0.000 A 
ATOM     34  C   UNL     1       5.220   3.708  19.369  0.00  0.00    +0.000 A 
ATOM     35  C   UNL     1       5.449   3.818  17.979  0.00  0.00    +0.000 A 
ATOM     36  H   UNL     1       4.007   3.788  15.368  0.00  0.00    +0.000 HD
ENDBRANCH  26  27
ENDBRANCH   1  26
TORSDOF 9
ENDMDL
MODEL 4
REMARK VINA RESULT:      -8.7      1.145      1.410
REMARK  Name = 
REMARK  10 active torsions:
REMARK  status: ('A' for Active; 'I' for Inactive)
REMARK    1  A    between atoms: C_1  and  O_2
REMARK    2  A    between atoms: O_2  and  C_3
REMARK    3  A    between atoms: C_6  and  N_7
REMARK    4  A    between atoms: C_8  and  C_10
REMARK    5  A    between atoms: C_10  and  C_11
REMARK    6  A    between atoms: C_10  and  N_21
REMARK    7  A    between atoms: C_11  and  C_12
REMARK    8  A    between atoms: C_22  and  C_24
REMARK    9  A    between atoms: C_24  and  C_25
REMARK   10  A    between atoms: C_25  and  C_26
REMARK                            x       y       z     vdW  Elec       q    Type
REMARK                         _______ _______ _______ _____ _____    ______ ____
ROOT
ATOM      1  C   UNL     1       6.670   6.056  18.130  0.00  0.00    +0.000 C 
ENDROOT
BRANCH   1   3
ATOM      2  N   UNL     1       6.173   5.435  15.686  0.00  0.00    +0.000 N 
ATOM      3  C   UNL     1       6.985   5.227  16.815  0.00  0.00    +0.000 C 
ATOM      4  O   UNL     1       7.852   4.358  16.893  0.00  0.00    +0.000 OA
ATOM      5  H   UNL     1       5.428   6.122  15.773  0.00  0.00    +0.000 HD
BRANCH   2   9
ATOM      6  C   UNL     1       6.524   3.316  11.954  0.00  0.00    +0.000 A 
ATOM      7  C   UNL     1       5.376   3.210  12.731  0.00  0.00    +0.000 A 
ATOM      8  C   UNL     1       5.235   3.904  13.946  0.00  0.00    +0.000 A 
ATOM      9  C   UNL     1       6.252   4.730  14.440  0.00  0.00    +0.000 A 
ATOM     10  C   UNL     1       7.408   4.842  13.644  0.00  0.00    +0.000 A 
ATOM     11  C   UNL     1       7.555   4.131  12.424  0.00  0.00    +0.000 A 
BRANCH   6  13
ATOM     12  C   UNL     1       6.722   1.144  10.986  0.00  0.00    +0.000 C 
ATOM     13  O   UNL     1       6.526   2.540  10.832  0.00  0.00    +0.000 OA
ENDBRANCH   6  13
ENDBRANCH   2   9
ENDBRANCH   1   3
BRANCH   1  14
ATOM     14  N   UNL     1       7.755   6.996  18.340  0.00  0.00    +0.000 N 
ATOM     15  C   UNL     1       7.764   8.289  17.905  0.00  0.00    +0.000 C 
ATOM     16  O   UNL     1       6.837   8.763  17.247  0.00  0.00    +0.000 OA
ATOM     17  H   UNL     1       8.416   6.708  19.047  0.00  0.00    +0.000 HD
BRANCH  15  18
ATOM     18  C   UNL     1       8.999   9.120  18.253  0.00  0.00    +0.000 C 
BRANCH  18  19
ATOM     19  C   UNL     1       8.912  10.643  18.058  0.00  0.00    +0.000 C 
BRANCH  19  20
ATOM     20  C   UNL     1      10.099  11.466  18.516  0.00  0.00    +0.000 A 
ATOM     21  C   UNL     1      10.892  12.178  17.613  0.00  0.00    +0.000 A 
ATOM     22  C   UNL     1      11.960  12.946  18.063  0.00  0.00    +0.000 A 
ATOM     23  C   UNL     1      12.331  12.932  19.402  0.00  0.00    +0.000 A 
ATOM     24  C   UNL     1      11.557  12.228  20.317  0.00  0.00    +0.000 A 
ATOM     25  C   UNL     1      10.425  11.531  19.880  0.00  0.00    +0.000 A 
ENDBRANCH  19  20
ENDBRANCH  18  19
ENDBRANCH  15  18
ENDBRANCH   1  14
BRANCH   1  26
ATOM     26  C   UNL     1       6.193   5.262  19.337  0.00  0.00    +0.000 C 
BRANCH  26  27
ATOM     27  C   UNL     1       5.045   4.253  19.285  0.00  0.00    +0.000 A 
ATOM     28  C   UNL     1       5.213   3.059  19.983  0.00  0.00    +0.000 A 
ATOM     29  N   UNL     1       4.439   2.147  19.335  0.00  0.00    +0.000 N 
ATOM     30  C   UNL     1       3.306   2.791  18.924  0.00  0.00    +0.000 A 
ATOM     31  C   UNL     1       2.027   2.266  18.708  0.00  0.00    +0.000 A 
ATOM     32  C   UNL     1       1.080   3.118  18.170  0.00  0.00    +0.000 A 
ATOM     33  C   UNL     1       1.478   4.378  17.724  0.00  0.00    +0.000 A 
ATOM     34  C   UNL     1       2.785   4.882  17.946  0.00  0.00    +0.000 A 
ATOM     35  C   UNL     1       3.722   4.108  18.668  0.00  0.00    +0.000 A 
ATOM     36  H   UNL     1       4.807   1.337  18.856  0.00  0.00    +0.000 HD
ENDBRANCH  26  27
ENDBRANCH   1  26
TORSDOF 9
ENDMDL
MODEL 5
REMARK VINA RESULT:      -8.7      1.082      1.158
REMARK  Name = 
REMARK  10 active torsions:
REMARK  status: ('A' for Active; 'I' for Inactive)
REMARK    1  A    between atoms: C_1  and  O_2
REMARK    2  A    between atoms: O_2  and  C_3
REMARK    3  A    between atoms: C_6  and  N_7
REMARK    4  A    between atoms: C_8  and  C_10
REMARK    5  A    between atoms: C_10  and  C_11
REMARK    6  A    between atoms: C_10  and  N_21
REMARK    7  A    between atoms: C_11  and  C_12
REMARK    8  A    between atoms: C_22  and  C_24
REMARK    9  A    between atoms: C_24  and  C_25
REMARK   10  A    between atoms: C_25  and  C_26
REMARK                            x       y       z     vdW  Elec       q    Type
REMARK                         _______ _______ _______ _____ _____    ______ ____
ROOT
ATOM      1  C   UNL     1       6.635   6.103  18.170  0.00  0.00    +0.000 C 
ENDROOT
BRANCH   1   3
ATOM      2  N   UNL     1       6.317   5.520  15.687  0.00  0.00    +0.000 N 
ATOM      3  C   UNL     1       7.068   5.321  16.859  0.00  0.00    +0.000 C 
ATOM      4  O   UNL     1       7.967   4.490  16.973  0.00  0.00    +0.000 OA
ATOM      5  H   UNL     1       5.538   6.171  15.742  0.00  0.00    +0.000 HD
BRANCH   2   9
ATOM      6  C   UNL     1       6.991   3.538  11.925  0.00  0.00    +0.000 A 
ATOM      7  C   UNL     1       5.983   3.116  12.783  0.00  0.00    +0.000 A 
ATOM      8  C   UNL     1       5.736   3.759  14.010  0.00  0.00    +0.000 A 
ATOM      9  C   UNL     1       6.506   4.850  14.433  0.00  0.00    +0.000 A 
ATOM     10  C   UNL     1       7.518   5.278  13.555  0.00  0.00    +0.000 A 
ATOM     11  C   UNL     1       7.774   4.621  12.322  0.00  0.00    +0.000 A 
BRANCH   6  13
ATOM     12  C   UNL     1       6.850   1.392  10.890  0.00  0.00    +0.000 C 
ATOM     13  O   UNL     1       7.134   2.778  10.800  0.00  0.00    +0.000 OA
ENDBRANCH   6  13
ENDBRANCH   2   9
ENDBRANCH   1   3
BRANCH   1  14
ATOM     14  N   UNL     1       7.692   7.038  18.505  0.00  0.00    +0.000 N 
ATOM     15  C   UNL     1       7.811   8.299  17.997  0.00  0.00    +0.000 C 
ATOM     16  O   UNL     1       7.025   8.741  17.158  0.00  0.00    +0.000 OA
ATOM     17  H   UNL     1       8.213   6.788  19.334  0.00  0.00    +0.000 HD
BRANCH  15  18
ATOM     18  C   UNL     1       8.989   9.132  18.501  0.00  0.00    +0.000 C 
BRANCH  18  19
ATOM     19  C   UNL     1       9.160  10.548  17.925  0.00  0.00    +0.000 C 
BRANCH  19  20
ATOM     20  C   UNL     1       9.698  11.613  18.859  0.00  0.00    +0.000 A 
ATOM     21  C   UNL     1      10.091  11.313  20.165  0.00  0.00    +0.000 A 
ATOM     22  C   UNL     1      10.605  12.304  20.994  0.00  0.00    +0.000 A 
ATOM     23  C   UNL     1      10.633  13.631  20.581  0.00  0.00    +0.000 A 
ATOM     24  C   UNL     1      10.246  13.951  19.286  0.00  0.00    +0.000 A 
ATOM     25  C   UNL     1       9.816  12.940  18.418  0.00  0.00    +0.000 A 
ENDBRANCH  19  20
ENDBRANCH  18  19
ENDBRANCH  15  18
ENDBRANCH   1  14
BRANCH   1  26
ATOM     26  C   UNL     1       6.060   5.266  19.303  0.00  0.00    +0.000 C 
BRANCH  26  27
ATOM     27  C   UNL     1       4.819   4.385  19.157  0.00  0.00    +0.000 A 
ATOM     28  C   UNL     1       4.958   3.204  18.431  0.00  0.00    +0.000 A 
ATOM     29  N   UNL     1       3.722   2.937  17.930  0.00  0.00    +0.000 N 
ATOM     30  C   UNL     1       2.809   3.301  18.878  0.00  0.00    +0.000 A 
ATOM     31  C   UNL     1       1.526   2.790  19.104  0.00  0.00    +0.000 A 
ATOM     32  C   UNL     1       0.755   3.425  20.059  0.00  0.00    +0.000 A 
ATOM     33  C   UNL     1       1.215   4.617  20.619  0.00  0.00    +0.000 A 
ATOM     34  C   UNL     1       2.517   5.120  20.364  0.00  0.00    +0.000 A 
ATOM     35  C   UNL     1       3.403   4.387  19.542  0.00  0.00    +0.000 A 
ATOM     36  H   UNL     1       3.506   2.929  16.942  0.00  0.00    +0.000 HD
ENDBRANCH  26  27
ENDBRANCH   1  26
TORSDOF 9
ENDMDL
MODEL 6
REMARK VINA RESULT:      -8.7      1.744      8.606
REMARK  Name = 
REMARK  10 active torsions:
REMARK  status: ('A' for Active; 'I' for Inactive)
REMARK    1  A    between atoms: C_1  and  O_2
REMARK    2  A    between atoms: O_2  and  C_3
REMARK    3  A    between atoms: C_6  and  N_7
REMARK    4  A    between atoms: C_8  and  C_10
REMARK    5  A    between atoms: C_10  and  C_11
REMARK    6  A    between atoms: C_10  and  N_21
REMARK    7  A    between atoms: C_11  and  C_12
REMARK    8  A    between atoms: C_22  and  C_24
REMARK    9  A    between atoms: C_24  and  C_25
REMARK   10  A    between atoms: C_25  and  C_26
REMARK                            x       y       z     vdW  Elec       q    Type
REMARK                         _______ _______ _______ _____ _____    ______ ____
ROOT
ATOM      1  C   UNL     1       7.470   6.656  17.973  0.00  0.00    +0.000 C 
ENDROOT
BRANCH   1   3
ATOM      2  N   UNL     1       8.836   8.639  18.870  0.00  0.00    +0.000 N 
ATOM      3  C   UNL     1       7.852   8.195  17.970  0.00  0.00    +0.000 C 
ATOM      4  O   UNL     1       7.178   8.939  17.260  0.00  0.00    +0.000 OA
ATOM      5  H   UNL     1       9.262   7.938  19.471  0.00  0.00    +0.000 HD
BRANCH   2   9
ATOM      6  C   UNL     1      10.133  12.685  19.570  0.00  0.00    +0.000 A 
ATOM      7  C   UNL     1      10.136  12.145  18.289  0.00  0.00    +0.000 A 
ATOM      8  C   UNL     1       9.703  10.831  18.036  0.00  0.00    +0.000 A 
ATOM      9  C   UNL     1       9.258   9.995  19.068  0.00  0.00    +0.000 A 
ATOM     10  C   UNL     1       9.247  10.551  20.361  0.00  0.00    +0.000 A 
ATOM     11  C   UNL     1       9.697  11.873  20.617  0.00  0.00    +0.000 A 
BRANCH   6  13
ATOM     12  C   UNL     1      11.795  14.263  18.905  0.00  0.00    +0.000 C 
ATOM     13  O   UNL     1      10.632  13.952  19.654  0.00  0.00    +0.000 OA
ENDBRANCH   6  13
ENDBRANCH   2   9
ENDBRANCH   1   3
BRANCH   1  14
ATOM     14  N   UNL     1       6.849   6.344  16.698  0.00  0.00    +0.000 N 
ATOM     15  C   UNL     1       7.117   5.236  15.948  0.00  0.00    +0.000 C 
ATOM     16  O   UNL     1       7.962   4.406  16.288  0.00  0.00    +0.000 OA
ATOM     17  H   UNL     1       6.016   6.881  16.507  0.00  0.00    +0.000 HD
BRANCH  15  18
ATOM     18  C   UNL     1       6.334   5.086  14.645  0.00  0.00    +0.000 C 
BRANCH  18  19
ATOM     19  C   UNL     1       7.065   4.472  13.439  0.00  0.00    +0.000 C 
BRANCH  19  20
ATOM     20  C   UNL     1       6.255   3.580  12.521  0.00  0.00    +0.000 A 
ATOM     21  C   UNL     1       4.892   3.795  12.303  0.00  0.00    +0.000 A 
ATOM     22  C   UNL     1       4.177   2.977  11.436  0.00  0.00    +0.000 A 
ATOM     23  C   UNL     1       4.772   1.862  10.859  0.00  0.00    +0.000 A 
ATOM     24  C   UNL     1       6.127   1.629  11.064  0.00  0.00    +0.000 A 
ATOM     25  C   UNL     1       6.871   2.506  11.861  0.00  0.00    +0.000 A 
ENDBRANCH  19  20
ENDBRANCH  18  19
ENDBRANCH  15  18
ENDBRANCH   1  14
BRANCH   1  26
ATOM     26  C   UNL     1       6.791   6.125  19.226  0.00  0.00    +0.000 C 
BRANCH  26  27
ATOM     27  C   UNL     1       5.595   5.172  19.200  0.00  0.00    +0.000 A 
ATOM     28  C   UNL     1       5.848   3.840  18.881  0.00  0.00    +0.000 A 
ATOM     29  N   UNL     1       4.692   3.371  18.337  0.00  0.00    +0.000 N 
ATOM     30  C   UNL     1       3.657   3.946  19.017  0.00  0.00    +0.000 A 
ATOM     31  C   UNL     1       2.364   3.455  19.227  0.00  0.00    +0.000 A 
ATOM     32  C   UNL     1       1.463   4.299  19.850  0.00  0.00    +0.000 A 
ATOM     33  C   UNL     1       1.827   5.626  20.081  0.00  0.00    +0.000 A 
ATOM     34  C   UNL     1       3.143   6.102  19.847  0.00  0.00    +0.000 A 
ATOM     35  C   UNL     1       4.141   5.210  19.394  0.00  0.00    +0.000 A 
ATOM     36  H   UNL     1       4.609   3.062  17.378  0.00  0.00    +0.000 HD
ENDBRANCH  26  27
ENDBRANCH   1  26
TORSDOF 9
ENDMDL
MODEL 7
REMARK VINA RESULT:      -8.7      4.372      8.263
REMARK  Name = 
REMARK  10 active torsions:
REMARK  status: ('A' for Active; 'I' for Inactive)
REMARK    1  A    between atoms: C_1  and  O_2
REMARK    2  A    between atoms: O_2  and  C_3
REMARK    3  A    between atoms: C_6  and  N_7
REMARK    4  A    between atoms: C_8  and  C_10
REMARK    5  A    between atoms: C_10  and  C_11
REMARK    6  A    between atoms: C_10  and  N_21
REMARK    7  A    between atoms: C_11  and  C_12
REMARK    8  A    between atoms: C_22  and  C_24
REMARK    9  A    between atoms: C_24  and  C_25
REMARK   10  A    between atoms: C_25  and  C_26
REMARK                            x       y       z     vdW  Elec       q    Type
REMARK                         _______ _______ _______ _____ _____    ______ ____
ROOT
ATOM      1  C   UNL     1       5.391   5.130  16.955  0.00  0.00    +0.000 C 
ENDROOT
BRANCH   1   3
ATOM      2  N   UNL     1       3.362   6.374  17.925  0.00  0.00    +0.000 N 
ATOM      3  C   UNL     1       4.733   6.414  17.615  0.00  0.00    +0.000 C 
ATOM      4  O   UNL     1       5.434   7.419  17.709  0.00  0.00    +0.000 OA
ATOM      5  H   UNL     1       2.867   5.510  17.719  0.00  0.00    +0.000 HD
BRANCH   2   9
ATOM      6  C   UNL     1       0.965   9.633  19.399  0.00  0.00    +0.000 A 
ATOM      7  C   UNL     1       1.339   8.586  20.234  0.00  0.00    +0.000 A 
ATOM      8  C   UNL     1       2.133   7.519  19.776  0.00  0.00    +0.000 A 
ATOM      9  C   UNL     1       2.578   7.453  18.450  0.00  0.00    +0.000 A 
ATOM     10  C   UNL     1       2.206   8.521  17.613  0.00  0.00    +0.000 A 
ATOM     11  C   UNL     1       1.393   9.591  18.072  0.00  0.00    +0.000 A 
BRANCH   6  13
ATOM     12  C   UNL     1      -0.812  11.208  19.167  0.00  0.00    +0.000 C 
ATOM     13  O   UNL     1       0.152  10.561  19.981  0.00  0.00    +0.000 OA
ENDBRANCH   6  13
ENDBRANCH   2   9
ENDBRANCH   1   3
BRANCH   1  14
ATOM     14  N   UNL     1       5.708   5.447  15.575  0.00  0.00    +0.000 N 
ATOM     15  C   UNL     1       6.891   5.159  14.958  0.00  0.00    +0.000 C 
ATOM     16  O   UNL     1       7.826   4.624  15.556  0.00  0.00    +0.000 OA
ATOM     17  H   UNL     1       4.903   5.683  15.013  0.00  0.00    +0.000 HD
BRANCH  15  18
ATOM     18  C   UNL     1       7.012   5.559  13.488  0.00  0.00    +0.000 C 
BRANCH  18  19
ATOM     19  C   UNL     1       7.727   4.583  12.539  0.00  0.00    +0.000 C 
BRANCH  19  20
ATOM     20  C   UNL     1       6.907   3.440  11.976  0.00  0.00    +0.000 A 
ATOM     21  C   UNL     1       5.512   3.434  12.044  0.00  0.00    +0.000 A 
ATOM     22  C   UNL     1       4.781   2.386  11.498  0.00  0.00    +0.000 A 
ATOM     23  C   UNL     1       5.423   1.269  10.976  0.00  0.00    +0.000 A 
ATOM     24  C   UNL     1       6.811   1.254  10.900  0.00  0.00    +0.000 A 
ATOM     25  C   UNL     1       7.546   2.351  11.364  0.00  0.00    +0.000 A 
ENDBRANCH  19  20
ENDBRANCH  18  19
ENDBRANCH  15  18
ENDBRANCH   1  14
BRANCH   1  26
ATOM     26  C   UNL     1       4.706   3.799  17.224  0.00  0.00    +0.000 C 
BRANCH  26  27
ATOM     27  C   UNL     1       4.213   3.367  18.606  0.00  0.00    +0.000 A 
ATOM     28  C   UNL     1       5.174   2.950  19.524  0.00  0.00    +0.000 A 
ATOM     29  N   UNL     1       4.530   2.091  20.359  0.00  0.00    +0.000 N 
ATOM     30  C   UNL     1       3.265   2.573  20.546  0.00  0.00    +0.000 A 
ATOM     31  C   UNL     1       2.415   2.406  21.644  0.00  0.00    +0.000 A 
ATOM     32  C   UNL     1       1.128   2.899  21.524  0.00  0.00    +0.000 A 
ATOM     33  C   UNL     1       0.698   3.377  20.287  0.00  0.00    +0.000 A 
ATOM     34  C   UNL     1       1.580   3.525  19.185  0.00  0.00    +0.000 A 
ATOM     35  C   UNL     1       2.950   3.213  19.335  0.00  0.00    +0.000 A 
ATOM     36  H   UNL     1       4.754   1.109  20.436  0.00  0.00    +0.000 HD
ENDBRANCH  26  27
ENDBRANCH   1  26
TORSDOF 9
ENDMDL
MODEL 8
REMARK VINA RESULT:      -8.7      1.842      8.532
REMARK  Name = 
REMARK  10 active torsions:
REMARK  status: ('A' for Active; 'I' for Inactive)
REMARK    1  A    between atoms: C_1  and  O_2
REMARK    2  A    between atoms: O_2  and  C_3
REMARK    3  A    between atoms: C_6  and  N_7
REMARK    4  A    between atoms: C_8  and  C_10
REMARK    5  A    between atoms: C_10  and  C_11
REMARK    6  A    between atoms: C_10  and  N_21
REMARK    7  A    between atoms: C_11  and  C_12
REMARK    8  A    between atoms: C_22  and  C_24
REMARK    9  A    between atoms: C_24  and  C_25
REMARK   10  A    between atoms: C_25  and  C_26
REMARK                            x       y       z     vdW  Elec       q    Type
REMARK                         _______ _______ _______ _____ _____    ______ ____
ROOT
ATOM      1  C   UNL     1       6.532   6.457  17.000  0.00  0.00    +0.000 C 
ENDROOT
BRANCH   1   3
ATOM      2  N   UNL     1       7.438   8.819  17.452  0.00  0.00    +0.000 N 
ATOM      3  C   UNL     1       7.423   7.467  17.838  0.00  0.00    +0.000 C 
ATOM      4  O   UNL     1       8.147   6.988  18.708  0.00  0.00    +0.000 OA
ATOM      5  H   UNL     1       6.860   9.079  16.657  0.00  0.00    +0.000 HD
BRANCH   2   9
ATOM      6  C   UNL     1       9.903  11.867  19.234  0.00  0.00    +0.000 A 
ATOM      7  C   UNL     1       9.092  12.152  18.142  0.00  0.00    +0.000 A 
ATOM      8  C   UNL     1       8.269  11.175  17.553  0.00  0.00    +0.000 A 
ATOM      9  C   UNL     1       8.234   9.860  18.034  0.00  0.00    +0.000 A 
ATOM     10  C   UNL     1       9.049   9.580  19.147  0.00  0.00    +0.000 A 
ATOM     11  C   UNL     1       9.890  10.564  19.732  0.00  0.00    +0.000 A 
BRANCH   6  13
ATOM     12  C   UNL     1      10.218  14.226  19.405  0.00  0.00    +0.000 C 
ATOM     13  O   UNL     1      10.678  12.908  19.654  0.00  0.00    +0.000 OA
ENDBRANCH   6  13
ENDBRANCH   2   9
ENDBRANCH   1   3
BRANCH   1  14
ATOM     14  N   UNL     1       7.277   6.079  15.813  0.00  0.00    +0.000 N 
ATOM     15  C   UNL     1       7.040   4.964  15.063  0.00  0.00    +0.000 C 
ATOM     16  O   UNL     1       6.171   4.146  15.367  0.00  0.00    +0.000 OA
ATOM     17  H   UNL     1       7.837   6.825  15.426  0.00  0.00    +0.000 HD
BRANCH  15  18
ATOM     18  C   UNL     1       7.927   4.764  13.835  0.00  0.00    +0.000 C 
BRANCH  18  19
ATOM     19  C   UNL     1       7.257   4.828  12.452  0.00  0.00    +0.000 C 
BRANCH  19  20
ATOM     20  C   UNL     1       6.655   3.544  11.916  0.00  0.00    +0.000 A 
ATOM     21  C   UNL     1       5.273   3.349  11.858  0.00  0.00    +0.000 A 
ATOM     22  C   UNL     1       4.747   2.173  11.338  0.00  0.00    +0.000 A 
ATOM     23  C   UNL     1       5.580   1.122  10.972  0.00  0.00    +0.000 A 
ATOM     24  C   UNL     1       6.958   1.295  11.024  0.00  0.00    +0.000 A 
ATOM     25  C   UNL     1       7.491   2.514  11.458  0.00  0.00    +0.000 A 
ENDBRANCH  19  20
ENDBRANCH  18  19
ENDBRANCH  15  18
ENDBRANCH   1  14
BRANCH   1  26
ATOM     26  C   UNL     1       5.069   6.832  16.814  0.00  0.00    +0.000 C 
BRANCH  26  27
ATOM     27  C   UNL     1       3.923   6.158  17.569  0.00  0.00    +0.000 A 
ATOM     28  C   UNL     1       3.122   6.971  18.369  0.00  0.00    +0.000 A 
ATOM     29  N   UNL     1       2.635   6.155  19.343  0.00  0.00    +0.000 N 
ATOM     30  C   UNL     1       2.386   4.940  18.772  0.00  0.00    +0.000 A 
ATOM     31  C   UNL     1       1.448   3.970  19.144  0.00  0.00    +0.000 A 
ATOM     32  C   UNL     1       1.488   2.765  18.468  0.00  0.00    +0.000 A 
ATOM     33  C   UNL     1       2.540   2.516  17.587  0.00  0.00    +0.000 A 
ATOM     34  C   UNL     1       3.485   3.514  17.236  0.00  0.00    +0.000 A 
ATOM     35  C   UNL     1       3.356   4.819  17.762  0.00  0.00    +0.000 A 
ATOM     36  H   UNL     1       2.853   6.261  20.324  0.00  0.00    +0.000 HD
ENDBRANCH  26  27
ENDBRANCH   1  26
TORSDOF 9
ENDMDL
MODEL 9
REMARK VINA RESULT:      -8.6      7.312     11.462
REMARK  Name = 
REMARK  10 active torsions:
REMARK  status: ('A' for Active; 'I' for Inactive)
REMARK    1  A    between atoms: C_1  and  O_2
REMARK    2  A    between atoms: O_2  and  C_3
REMARK    3  A    between atoms: C_6  and  N_7
REMARK    4  A    between atoms: C_8  and  C_10
REMARK    5  A    between atoms: C_10  and  C_11
REMARK    6  A    between atoms: C_10  and  N_21
REMARK    7  A    between atoms: C_11  and  C_12
REMARK    8  A    between atoms: C_22  and  C_24
REMARK    9  A    between atoms: C_24  and  C_25
REMARK   10  A    between atoms: C_25  and  C_26
REMARK                            x       y       z     vdW  Elec       q    Type
REMARK                         _______ _______ _______ _____ _____    ______ ____
ROOT
ATOM      1  C   UNL     1      -0.143  10.278  19.046  0.00  0.00    +0.000 C 
ENDROOT
BRANCH   1   3
ATOM      2  N   UNL     1       1.046  12.432  18.303  0.00  0.00    +0.000 N 
ATOM      3  C   UNL     1       0.627  11.625  19.375  0.00  0.00    +0.000 C 
ATOM      4  O   UNL     1       0.922  11.830  20.551  0.00  0.00    +0.000 OA
ATOM      5  H   UNL     1       0.816  12.110  17.366  0.00  0.00    +0.000 HD
BRANCH   2   9
ATOM      6  C   UNL     1       3.287  16.091  18.661  0.00  0.00    +0.000 A 
ATOM      7  C   UNL     1       3.907  14.908  18.274  0.00  0.00    +0.000 A 
ATOM      8  C   UNL     1       3.191  13.705  18.137  0.00  0.00    +0.000 A 
ATOM      9  C   UNL     1       1.816  13.638  18.396  0.00  0.00    +0.000 A 
ATOM     10  C   UNL     1       1.192  14.840  18.776  0.00  0.00    +0.000 A 
ATOM     11  C   UNL     1       1.918  16.051  18.927  0.00  0.00    +0.000 A 
BRANCH   6  13
ATOM     12  C   UNL     1       4.787  17.331  20.040  0.00  0.00    +0.000 C 
ATOM     13  O   UNL     1       4.129  17.156  18.797  0.00  0.00    +0.000 OA
ENDBRANCH   6  13
ENDBRANCH   2   9
ENDBRANCH   1   3
BRANCH   1  14
ATOM     14  N   UNL     1       0.769   9.172  19.272  0.00  0.00    +0.000 N 
ATOM     15  C   UNL     1       1.796   8.823  18.443  0.00  0.00    +0.000 C 
ATOM     16  O   UNL     1       2.012   9.418  17.386  0.00  0.00    +0.000 OA
ATOM     17  H   UNL     1       0.752   8.814  20.216  0.00  0.00    +0.000 HD
BRANCH  15  18
ATOM     18  C   UNL     1       2.655   7.637  18.879  0.00  0.00    +0.000 C 
BRANCH  18  19
ATOM     19  C   UNL     1       2.562   6.345  18.049  0.00  0.00    +0.000 C 
BRANCH  19  20
ATOM     20  C   UNL     1       1.991   5.122  18.738  0.00  0.00    +0.000 A 
ATOM     21  C   UNL     1       1.903   5.037  20.130  0.00  0.00    +0.000 A 
ATOM     22  C   UNL     1       1.352   3.914  20.736  0.00  0.00    +0.000 A 
ATOM     23  C   UNL     1       0.983   2.808  19.980  0.00  0.00    +0.000 A 
ATOM     24  C   UNL     1       1.063   2.872  18.594  0.00  0.00    +0.000 A 
ATOM     25  C   UNL     1       1.530   4.038  17.976  0.00  0.00    +0.000 A 
ENDBRANCH  19  20
ENDBRANCH  18  19
ENDBRANCH  15  18
ENDBRANCH   1  14
BRANCH   1  26
ATOM     26  C   UNL     1      -0.959  10.257  17.762  0.00  0.00    +0.000 C 
BRANCH  26  27
ATOM     27  C   UNL     1      -2.429  10.674  17.689  0.00  0.00    +0.000 A 
ATOM     28  C   UNL     1      -3.188  10.152  16.644  0.00  0.00    +0.000 A 
ATOM     29  N   UNL     1      -4.172  11.064  16.418  0.00  0.00    +0.000 N 
ATOM     30  C   UNL     1      -4.547  11.570  17.630  0.00  0.00    +0.000 A 
ATOM     31  C   UNL     1      -5.785  12.096  18.017  0.00  0.00    +0.000 A 
ATOM     32  C   UNL     1      -5.862  12.659  19.278  0.00  0.00    +0.000 A 
ATOM     33  C   UNL     1      -4.692  12.824  20.019  0.00  0.00    +0.000 A 
ATOM     34  C   UNL     1      -3.447  12.291  19.598  0.00  0.00    +0.000 A 
ATOM     35  C   UNL     1      -3.374  11.538  18.404  0.00  0.00    +0.000 A 
ATOM     36  H   UNL     1      -4.266  11.587  15.558  0.00  0.00    +0.000 HD
ENDBRANCH  26  27
ENDBRANCH   1  26
TORSDOF 9
ENDMDL
