MODEL 1
REMARK VINA RESULT:      -7.3      0.000      0.000
REMARK  Name = 
REMARK  17 active torsions:
REMARK  status: ('A' for Active; 'I' for Inactive)
REMARK    1  A    between atoms: C_1  and  S_2
REMARK    2  A    between atoms: S_2  and  C_3
REMARK    3  A    between atoms: C_3  and  C_4
REMARK    4  A    between atoms: C_4  and  C_5
REMARK    5  A    between atoms: C_5  and  N_6
REMARK    6  A    between atoms: C_5  and  C_14
REMARK    7  A    between atoms: C_7  and  O_9
REMARK    8  A    between atoms: O_9  and  C_10
REMARK    9  A    between atoms: C_10  and  C_11
REMARK   10  A    between atoms: C_10  and  C_12
REMARK   11  A    between atoms: C_10  and  C_13
REMARK   12  A    between atoms: C_17  and  S_18
REMARK   13  A    between atoms: S_18  and  C_19
REMARK   14  A    between atoms: C_19  and  C_20
REMARK   15  A    between atoms: N_22  and  C_23
REMARK   16  A    between atoms: C_24  and  C_25
REMARK   17  A    between atoms: C_29  and  C_30
REMARK                            x       y       z     vdW  Elec       q    Type
REMARK                         _______ _______ _______ _____ _____    ______ ____
ROOT
ATOM      1  C   UNL     1       7.021   6.566  17.832  0.00  0.00    +0.000 A 
ATOM      2  N   UNL     1       7.906   6.352  18.783  0.00  0.00    +0.000 NA
ATOM      3  N   UNL     1       8.585   7.536  18.953  0.00  0.00    +0.000 NA
ATOM      4  C   UNL     1       8.089   8.400  18.089  0.00  0.00    +0.000 A 
ATOM      5  O   UNL     1       7.093   7.844  17.323  0.00  0.00    +0.000 OA
ENDROOT
BRANCH   1   6
ATOM      6  C   UNL     1       5.981   5.630  17.294  0.00  0.00    +0.000 C 
BRANCH   6   7
ATOM      7  N   UNL     1       5.095   5.226  18.387  0.00  0.00    +0.000 N 
ATOM      8  C   UNL     1       4.441   4.030  18.338  0.00  0.00    +0.000 C 
ATOM      9  O   UNL     1       4.604   3.216  17.439  0.00  0.00    +0.000 OA
ATOM     10  H   UNL     1       4.816   5.882  19.109  0.00  0.00    +0.000 HD
BRANCH   8  11
ATOM     11  O   UNL     1       3.601   3.885  19.395  0.00  0.00    +0.000 OA
BRANCH  11  12
ATOM     12  C   UNL     1       2.169   4.055  19.179  0.00  0.00    +0.000 C 
ATOM     13  C   UNL     1       1.433   2.710  19.278  0.00  0.00    +0.000 C 
ATOM     14  C   UNL     1       1.650   4.956  20.316  0.00  0.00    +0.000 C 
ATOM     15  C   UNL     1       1.885   4.779  17.854  0.00  0.00    +0.000 C 
ENDBRANCH  11  12
ENDBRANCH   8  11
ENDBRANCH   6   7
BRANCH   6  16
ATOM     16  C   UNL     1       5.158   6.287  16.154  0.00  0.00    +0.000 C 
BRANCH  16  17
ATOM     17  C   UNL     1       5.179   5.546  14.809  0.00  0.00    +0.000 C 
BRANCH  17  19
ATOM     18  C   UNL     1       6.310   3.739  13.034  0.00  0.00    +0.000 C 
ATOM     19  S   UNL     1       6.657   4.495  14.643  0.00  0.00    +0.000 S 
ENDBRANCH  17  19
ENDBRANCH  16  17
ENDBRANCH   6  16
ENDBRANCH   1   6
BRANCH   4  20
ATOM     20  S   UNL     1       8.666  10.041  18.016  0.00  0.00    +0.000 S 
BRANCH  20  21
ATOM     21  C   UNL     1       9.342  10.356  19.657  0.00  0.00    +0.000 C 
BRANCH  21  22
ATOM     22  C   UNL     1      10.337  11.495  19.663  0.00  0.00    +0.000 C 
ATOM     23  O   UNL     1      11.487  11.310  20.053  0.00  0.00    +0.000 OA
ATOM     24  N   UNL     1       9.814  12.723  19.262  0.00  0.00    +0.000 N 
ATOM     25  H   UNL     1       8.821  12.857  19.401  0.00  0.00    +0.000 HD
BRANCH  24  26
ATOM     26  C   UNL     1      10.614  13.885  19.156  0.00  0.00    +0.000 A 
ATOM     27  C   UNL     1      11.338  14.168  17.983  0.00  0.00    +0.000 A 
ATOM     28  C   UNL     1      11.187  13.384  16.716  0.00  0.00    +0.000 C 
ATOM     29  C   UNL     1      12.195  15.279  17.946  0.00  0.00    +0.000 A 
ATOM     30  C   UNL     1      12.292  16.140  19.033  0.00  0.00    +0.000 A 
ATOM     31  C   UNL     1      11.512  15.912  20.160  0.00  0.00    +0.000 A 
ATOM     32  C   UNL     1      10.662  14.795  20.235  0.00  0.00    +0.000 A 
ATOM     33  C   UNL     1       9.876  14.575  21.495  0.00  0.00    +0.000 C 
ENDBRANCH  24  26
ENDBRANCH  21  22
ENDBRANCH  20  21
ENDBRANCH   4  20
TORSDOF 11
ENDMDL
MODEL 2
REMARK VINA RESULT:      -7.3      1.936      2.644
REMARK  Name = 
REMARK  17 active torsions:
REMARK  status: ('A' for Active; 'I' for Inactive)
REMARK    1  A    between atoms: C_1  and  S_2
REMARK    2  A    between atoms: S_2  and  C_3
REMARK    3  A    between atoms: C_3  and  C_4
REMARK    4  A    between atoms: C_4  and  C_5
REMARK    5  A    between atoms: C_5  and  N_6
REMARK    6  A    between atoms: C_5  and  C_14
REMARK    7  A    between atoms: C_7  and  O_9
REMARK    8  A    between atoms: O_9  and  C_10
REMARK    9  A    between atoms: C_10  and  C_11
REMARK   10  A    between atoms: C_10  and  C_12
REMARK   11  A    between atoms: C_10  and  C_13
REMARK   12  A    between atoms: C_17  and  S_18
REMARK   13  A    between atoms: S_18  and  C_19
REMARK   14  A    between atoms: C_19  and  C_20
REMARK   15  A    between atoms: N_22  and  C_23
REMARK   16  A    between atoms: C_24  and  C_25
REMARK   17  A    between atoms: C_29  and  C_30
REMARK                            x       y       z     vdW  Elec       q    Type
REMARK                         _______ _______ _______ _____ _____    ______ ____
ROOT
ATOM      1  C   UNL     1       6.304   5.330  18.195  0.00  0.00    +0.000 A 
ATOM      2  N   UNL     1       7.257   5.254  19.100  0.00  0.00    +0.000 NA
ATOM      3  N   UNL     1       7.995   6.409  18.981  0.00  0.00    +0.000 NA
ATOM      4  C   UNL     1       7.463   7.116  18.003  0.00  0.00    +0.000 A 
ATOM      5  O   UNL     1       6.384   6.479  17.440  0.00  0.00    +0.000 OA
ENDROOT
BRANCH   1   6
ATOM      6  C   UNL     1       5.185   4.368  17.933  0.00  0.00    +0.000 C 
BRANCH   6   7
ATOM      7  N   UNL     1       4.607   3.952  19.211  0.00  0.00    +0.000 N 
ATOM      8  C   UNL     1       3.941   2.766  19.314  0.00  0.00    +0.000 C 
ATOM      9  O   UNL     1       3.849   1.969  18.389  0.00  0.00    +0.000 OA
ATOM     10  H   UNL     1       4.537   4.595  19.992  0.00  0.00    +0.000 HD
BRANCH   8  11
ATOM     11  O   UNL     1       3.403   2.608  20.551  0.00  0.00    +0.000 OA
BRANCH  11  12
ATOM     12  C   UNL     1       2.071   3.142  20.807  0.00  0.00    +0.000 C 
ATOM     13  C   UNL     1       1.127   2.856  19.630  0.00  0.00    +0.000 C 
ATOM     14  C   UNL     1       1.520   2.398  22.038  0.00  0.00    +0.000 C 
ATOM     15  C   UNL     1       2.126   4.636  21.161  0.00  0.00    +0.000 C 
ENDBRANCH  11  12
ENDBRANCH   8  11
ENDBRANCH   6   7
BRANCH   6  16
ATOM     16  C   UNL     1       4.090   5.000  17.032  0.00  0.00    +0.000 C 
BRANCH  16  17
ATOM     17  C   UNL     1       2.924   5.668  17.775  0.00  0.00    +0.000 C 
BRANCH  17  19
ATOM     18  C   UNL     1       2.123   7.868  19.264  0.00  0.00    +0.000 C 
ATOM     19  S   UNL     1       3.077   7.483  17.773  0.00  0.00    +0.000 S 
ENDBRANCH  17  19
ENDBRANCH  16  17
ENDBRANCH   6  16
ENDBRANCH   1   6
BRANCH   4  20
ATOM     20  S   UNL     1       8.098   8.676  17.564  0.00  0.00    +0.000 S 
BRANCH  20  21
ATOM     21  C   UNL     1       8.922   9.264  19.055  0.00  0.00    +0.000 C 
BRANCH  21  22
ATOM     22  C   UNL     1       9.226  10.745  19.003  0.00  0.00    +0.000 C 
ATOM     23  O   UNL     1       8.645  11.467  18.196  0.00  0.00    +0.000 OA
ATOM     24  N   UNL     1      10.227  11.163  19.877  0.00  0.00    +0.000 N 
ATOM     25  H   UNL     1      10.914  10.468  20.141  0.00  0.00    +0.000 HD
BRANCH  24  26
ATOM     26  C   UNL     1      10.603  12.522  20.000  0.00  0.00    +0.000 A 
ATOM     27  C   UNL     1      11.510  13.112  19.101  0.00  0.00    +0.000 A 
ATOM     28  C   UNL     1      12.003  12.428  17.863  0.00  0.00    +0.000 C 
ATOM     29  C   UNL     1      11.934  14.434  19.309  0.00  0.00    +0.000 A 
ATOM     30  C   UNL     1      11.421  15.190  20.357  0.00  0.00    +0.000 A 
ATOM     31  C   UNL     1      10.459  14.637  21.194  0.00  0.00    +0.000 A 
ATOM     32  C   UNL     1      10.033  13.308  21.025  0.00  0.00    +0.000 A 
ATOM     33  C   UNL     1       9.023  12.751  21.986  0.00  0.00    +0.000 C 
ENDBRANCH  24  26
ENDBRANCH  21  22
ENDBRANCH  20  21
ENDBRANCH   4  20
TORSDOF 11
ENDMDL
MODEL 3
REMARK VINA RESULT:      -7.2      5.936      9.496
REMARK  Name = 
REMARK  17 active torsions:
REMARK  status: ('A' for Active; 'I' for Inactive)
REMARK    1  A    between atoms: C_1  and  S_2
REMARK    2  A    between atoms: S_2  and  C_3
REMARK    3  A    between atoms: C_3  and  C_4
REMARK    4  A    between atoms: C_4  and  C_5
REMARK    5  A    between atoms: C_5  and  N_6
REMARK    6  A    between atoms: C_5  and  C_14
REMARK    7  A    between atoms: C_7  and  O_9
REMARK    8  A    between atoms: O_9  and  C_10
REMARK    9  A    between atoms: C_10  and  C_11
REMARK   10  A    between atoms: C_10  and  C_12
REMARK   11  A    between atoms: C_10  and  C_13
REMARK   12  A    between atoms: C_17  and  S_18
REMARK   13  A    between atoms: S_18  and  C_19
REMARK   14  A    between atoms: C_19  and  C_20
REMARK   15  A    between atoms: N_22  and  C_23
REMARK   16  A    between atoms: C_24  and  C_25
REMARK   17  A    between atoms: C_29  and  C_30
REMARK                            x       y       z     vdW  Elec       q    Type
REMARK                         _______ _______ _______ _____ _____    ______ ____
ROOT
ATOM      1  C   UNL     1       3.351   7.263  17.912  0.00  0.00    +0.000 A 
ATOM      2  N   UNL     1       3.293   8.198  16.987  0.00  0.00    +0.000 NA
ATOM      3  N   UNL     1       2.386   9.130  17.435  0.00  0.00    +0.000 NA
ATOM      4  C   UNL     1       1.931   8.707  18.598  0.00  0.00    +0.000 A 
ATOM      5  O   UNL     1       2.492   7.506  18.961  0.00  0.00    +0.000 OA
ENDROOT
BRANCH   1   6
ATOM      6  C   UNL     1       4.225   6.046  17.958  0.00  0.00    +0.000 C 
BRANCH   6   7
ATOM      7  N   UNL     1       3.453   4.927  18.498  0.00  0.00    +0.000 N 
ATOM      8  C   UNL     1       4.041   4.023  19.334  0.00  0.00    +0.000 C 
ATOM      9  O   UNL     1       5.195   4.129  19.727  0.00  0.00    +0.000 OA
ATOM     10  H   UNL     1       2.532   4.700  18.140  0.00  0.00    +0.000 HD
BRANCH   8  11
ATOM     11  O   UNL     1       3.187   3.015  19.649  0.00  0.00    +0.000 OA
BRANCH  11  12
ATOM     12  C   UNL     1       2.098   3.286  20.580  0.00  0.00    +0.000 C 
ATOM     13  C   UNL     1       2.169   4.728  21.104  0.00  0.00    +0.000 C 
ATOM     14  C   UNL     1       0.786   3.142  19.786  0.00  0.00    +0.000 C 
ATOM     15  C   UNL     1       2.063   2.254  21.716  0.00  0.00    +0.000 C 
ENDBRANCH  11  12
ENDBRANCH   8  11
ENDBRANCH   6   7
BRANCH   6  16
ATOM     16  C   UNL     1       4.775   5.687  16.552  0.00  0.00    +0.000 C 
BRANCH  16  17
ATOM     17  C   UNL     1       6.260   6.003  16.320  0.00  0.00    +0.000 C 
BRANCH  17  19
ATOM     18  C   UNL     1       7.572   8.109  17.561  0.00  0.00    +0.000 C 
ATOM     19  S   UNL     1       7.118   6.385  17.881  0.00  0.00    +0.000 S 
ENDBRANCH  17  19
ENDBRANCH  16  17
ENDBRANCH   6  16
ENDBRANCH   1   6
BRANCH   4  20
ATOM     20  S   UNL     1       0.779   9.637  19.513  0.00  0.00    +0.000 S 
BRANCH  20  21
ATOM     21  C   UNL     1       0.902  11.302  18.834  0.00  0.00    +0.000 C 
BRANCH  21  22
ATOM     22  C   UNL     1      -0.452  11.896  18.511  0.00  0.00    +0.000 C 
ATOM     23  O   UNL     1      -0.536  13.043  18.079  0.00  0.00    +0.000 OA
ATOM     24  N   UNL     1      -1.533  11.067  18.802  0.00  0.00    +0.000 N 
ATOM     25  H   UNL     1      -1.392  10.382  19.533  0.00  0.00    +0.000 HD
BRANCH  24  26
ATOM     26  C   UNL     1      -2.868  11.438  18.514  0.00  0.00    +0.000 A 
ATOM     27  C   UNL     1      -3.640  12.160  19.443  0.00  0.00    +0.000 A 
ATOM     28  C   UNL     1      -3.079  12.739  20.704  0.00  0.00    +0.000 C 
ATOM     29  C   UNL     1      -4.990  12.429  19.164  0.00  0.00    +0.000 A 
ATOM     30  C   UNL     1      -5.557  12.045  17.954  0.00  0.00    +0.000 A 
ATOM     31  C   UNL     1      -4.771  11.410  17.000  0.00  0.00    +0.000 A 
ATOM     32  C   UNL     1      -3.424  11.107  17.259  0.00  0.00    +0.000 A 
ATOM     33  C   UNL     1      -2.636  10.381  16.207  0.00  0.00    +0.000 C 
ENDBRANCH  24  26
ENDBRANCH  21  22
ENDBRANCH  20  21
ENDBRANCH   4  20
TORSDOF 11
ENDMDL
MODEL 4
REMARK VINA RESULT:      -7.0      6.147      9.972
REMARK  Name = 
REMARK  17 active torsions:
REMARK  status: ('A' for Active; 'I' for Inactive)
REMARK    1  A    between atoms: C_1  and  S_2
REMARK    2  A    between atoms: S_2  and  C_3
REMARK    3  A    between atoms: C_3  and  C_4
REMARK    4  A    between atoms: C_4  and  C_5
REMARK    5  A    between atoms: C_5  and  N_6
REMARK    6  A    between atoms: C_5  and  C_14
REMARK    7  A    between atoms: C_7  and  O_9
REMARK    8  A    between atoms: O_9  and  C_10
REMARK    9  A    between atoms: C_10  and  C_11
REMARK   10  A    between atoms: C_10  and  C_12
REMARK   11  A    between atoms: C_10  and  C_13
REMARK   12  A    between atoms: C_17  and  S_18
REMARK   13  A    between atoms: S_18  and  C_19
REMARK   14  A    between atoms: C_19  and  C_20
REMARK   15  A    between atoms: N_22  and  C_23
REMARK   16  A    between atoms: C_24  and  C_25
REMARK   17  A    between atoms: C_29  and  C_30
REMARK                            x       y       z     vdW  Elec       q    Type
REMARK                         _______ _______ _______ _____ _____    ______ ____
ROOT
ATOM      1  C   UNL     1       2.104   7.245  19.075  0.00  0.00    +0.000 A 
ATOM      2  N   UNL     1       2.207   7.961  17.975  0.00  0.00    +0.000 NA
ATOM      3  N   UNL     1       1.759   9.223  18.292  0.00  0.00    +0.000 NA
ATOM      4  C   UNL     1       1.395   9.203  19.559  0.00  0.00    +0.000 A 
ATOM      5  O   UNL     1       1.572   7.963  20.123  0.00  0.00    +0.000 OA
ENDROOT
BRANCH   1   6
ATOM      6  C   UNL     1       2.511   5.821  19.305  0.00  0.00    +0.000 C 
BRANCH   6   7
ATOM      7  N   UNL     1       3.904   5.791  19.751  0.00  0.00    +0.000 N 
ATOM      8  C   UNL     1       4.904   5.496  18.872  0.00  0.00    +0.000 C 
ATOM      9  O   UNL     1       4.711   5.313  17.677  0.00  0.00    +0.000 OA
ATOM     10  H   UNL     1       4.143   5.817  20.737  0.00  0.00    +0.000 HD
BRANCH   8  11
ATOM     11  O   UNL     1       6.108   5.428  19.498  0.00  0.00    +0.000 OA
BRANCH  11  12
ATOM     12  C   UNL     1       7.316   5.678  18.719  0.00  0.00    +0.000 C 
ATOM     13  C   UNL     1       8.568   5.592  19.604  0.00  0.00    +0.000 C 
ATOM     14  C   UNL     1       7.409   4.557  17.667  0.00  0.00    +0.000 C 
ATOM     15  C   UNL     1       7.227   7.011  17.962  0.00  0.00    +0.000 C 
ENDBRANCH  11  12
ENDBRANCH   8  11
ENDBRANCH   6   7
BRANCH   6  16
ATOM     16  C   UNL     1       1.599   5.131  20.355  0.00  0.00    +0.000 C 
BRANCH  16  17
ATOM     17  C   UNL     1       2.180   3.870  21.012  0.00  0.00    +0.000 C 
BRANCH  17  19
ATOM     18  C   UNL     1       0.767   2.628  18.973  0.00  0.00    +0.000 C 
ATOM     19  S   UNL     1       2.368   2.512  19.812  0.00  0.00    +0.000 S 
ENDBRANCH  17  19
ENDBRANCH  16  17
ENDBRANCH   6  16
ENDBRANCH   1   6
BRANCH   4  20
ATOM     20  S   UNL     1       0.800  10.633  20.353  0.00  0.00    +0.000 S 
BRANCH  20  21
ATOM     21  C   UNL     1       0.843  11.908  19.079  0.00  0.00    +0.000 C 
BRANCH  21  22
ATOM     22  C   UNL     1      -0.535  12.244  18.551  0.00  0.00    +0.000 C 
ATOM     23  O   UNL     1      -0.702  13.239  17.851  0.00  0.00    +0.000 OA
ATOM     24  N   UNL     1      -1.544  11.384  18.978  0.00  0.00    +0.000 N 
ATOM     25  H   UNL     1      -1.392  10.912  19.860  0.00  0.00    +0.000 HD
BRANCH  24  26
ATOM     26  C   UNL     1      -2.883  11.516  18.539  0.00  0.00    +0.000 A 
ATOM     27  C   UNL     1      -3.311  10.953  17.322  0.00  0.00    +0.000 A 
ATOM     28  C   UNL     1      -2.460  10.039  16.497  0.00  0.00    +0.000 C 
ATOM     29  C   UNL     1      -4.620  11.184  16.872  0.00  0.00    +0.000 A 
ATOM     30  C   UNL     1      -5.521  11.910  17.643  0.00  0.00    +0.000 A 
ATOM     31  C   UNL     1      -5.127  12.391  18.886  0.00  0.00    +0.000 A 
ATOM     32  C   UNL     1      -3.816  12.196  19.353  0.00  0.00    +0.000 A 
ATOM     33  C   UNL     1      -3.434  12.777  20.684  0.00  0.00    +0.000 C 
ENDBRANCH  24  26
ENDBRANCH  21  22
ENDBRANCH  20  21
ENDBRANCH   4  20
TORSDOF 11
ENDMDL
MODEL 5
REMARK VINA RESULT:      -7.0      6.165      9.959
REMARK  Name = 
REMARK  17 active torsions:
REMARK  status: ('A' for Active; 'I' for Inactive)
REMARK    1  A    between atoms: C_1  and  S_2
REMARK    2  A    between atoms: S_2  and  C_3
REMARK    3  A    between atoms: C_3  and  C_4
REMARK    4  A    between atoms: C_4  and  C_5
REMARK    5  A    between atoms: C_5  and  N_6
REMARK    6  A    between atoms: C_5  and  C_14
REMARK    7  A    between atoms: C_7  and  O_9
REMARK    8  A    between atoms: O_9  and  C_10
REMARK    9  A    between atoms: C_10  and  C_11
REMARK   10  A    between atoms: C_10  and  C_12
REMARK   11  A    between atoms: C_10  and  C_13
REMARK   12  A    between atoms: C_17  and  S_18
REMARK   13  A    between atoms: S_18  and  C_19
REMARK   14  A    between atoms: C_19  and  C_20
REMARK   15  A    between atoms: N_22  and  C_23
REMARK   16  A    between atoms: C_24  and  C_25
REMARK   17  A    between atoms: C_29  and  C_30
REMARK                            x       y       z     vdW  Elec       q    Type
REMARK                         _______ _______ _______ _____ _____    ______ ____
ROOT
ATOM      1  C   UNL     1       1.934   7.306  19.750  0.00  0.00    +0.000 A 
ATOM      2  N   UNL     1       1.632   7.090  21.013  0.00  0.00    +0.000 NA
ATOM      3  N   UNL     1       1.139   8.278  21.501  0.00  0.00    +0.000 NA
ATOM      4  C   UNL     1       1.182   9.155  20.516  0.00  0.00    +0.000 A 
ATOM      5  O   UNL     1       1.697   8.607  19.367  0.00  0.00    +0.000 OA
ENDROOT
BRANCH   1   6
ATOM      6  C   UNL     1       2.451   6.334  18.733  0.00  0.00    +0.000 C 
BRANCH   6   7
ATOM      7  N   UNL     1       3.791   6.748  18.317  0.00  0.00    +0.000 N 
ATOM      8  C   UNL     1       4.482   6.021  17.393  0.00  0.00    +0.000 C 
ATOM      9  O   UNL     1       4.011   5.047  16.821  0.00  0.00    +0.000 OA
ATOM     10  H   UNL     1       4.299   7.470  18.817  0.00  0.00    +0.000 HD
BRANCH   8  11
ATOM     11  O   UNL     1       5.734   6.516  17.213  0.00  0.00    +0.000 OA
BRANCH  11  12
ATOM     12  C   UNL     1       6.843   5.884  17.919  0.00  0.00    +0.000 C 
ATOM     13  C   UNL     1       7.499   4.797  17.055  0.00  0.00    +0.000 C 
ATOM     14  C   UNL     1       7.896   6.981  18.168  0.00  0.00    +0.000 C 
ATOM     15  C   UNL     1       6.402   5.352  19.291  0.00  0.00    +0.000 C 
ENDBRANCH  11  12
ENDBRANCH   8  11
ENDBRANCH   6   7
BRANCH   6  16
ATOM     16  C   UNL     1       2.490   4.888  19.297  0.00  0.00    +0.000 C 
BRANCH  16  17
ATOM     17  C   UNL     1       1.366   3.958  18.817  0.00  0.00    +0.000 C 
BRANCH  17  19
ATOM     18  C   UNL     1       3.639   2.420  19.224  0.00  0.00    +0.000 C 
ATOM     19  S   UNL     1       1.879   2.210  18.850  0.00  0.00    +0.000 S 
ENDBRANCH  17  19
ENDBRANCH  16  17
ENDBRANCH   6  16
ENDBRANCH   1   6
BRANCH   4  20
ATOM     20  S   UNL     1       0.606  10.783  20.728  0.00  0.00    +0.000 S 
BRANCH  20  21
ATOM     21  C   UNL     1       0.746  11.528  19.092  0.00  0.00    +0.000 C 
BRANCH  21  22
ATOM     22  C   UNL     1      -0.590  11.985  18.548  0.00  0.00    +0.000 C 
ATOM     23  O   UNL     1      -0.675  13.037  17.921  0.00  0.00    +0.000 OA
ATOM     24  N   UNL     1      -1.662  11.158  18.875  0.00  0.00    +0.000 N 
ATOM     25  H   UNL     1      -1.569  10.613  19.723  0.00  0.00    +0.000 HD
BRANCH  24  26
ATOM     26  C   UNL     1      -2.974  11.402  18.406  0.00  0.00    +0.000 A 
ATOM     27  C   UNL     1      -3.409  10.903  17.163  0.00  0.00    +0.000 A 
ATOM     28  C   UNL     1      -2.606   9.947  16.336  0.00  0.00    +0.000 C 
ATOM     29  C   UNL     1      -4.684  11.244  16.685  0.00  0.00    +0.000 A 
ATOM     30  C   UNL     1      -5.548  12.017  17.452  0.00  0.00    +0.000 A 
ATOM     31  C   UNL     1      -5.154  12.436  18.717  0.00  0.00    +0.000 A 
ATOM     32  C   UNL     1      -3.875  12.130  19.212  0.00  0.00    +0.000 A 
ATOM     33  C   UNL     1      -3.488  12.647  20.568  0.00  0.00    +0.000 C 
ENDBRANCH  24  26
ENDBRANCH  21  22
ENDBRANCH  20  21
ENDBRANCH   4  20
TORSDOF 11
ENDMDL
MODEL 6
REMARK VINA RESULT:      -6.9      6.191      9.985
REMARK  Name = 
REMARK  17 active torsions:
REMARK  status: ('A' for Active; 'I' for Inactive)
REMARK    1  A    between atoms: C_1  and  S_2
REMARK    2  A    between atoms: S_2  and  C_3
REMARK    3  A    between atoms: C_3  and  C_4
REMARK    4  A    between atoms: C_4  and  C_5
REMARK    5  A    between atoms: C_5  and  N_6
REMARK    6  A    between atoms: C_5  and  C_14
REMARK    7  A    between atoms: C_7  and  O_9
REMARK    8  A    between atoms: O_9  and  C_10
REMARK    9  A    between atoms: C_10  and  C_11
REMARK   10  A    between atoms: C_10  and  C_12
REMARK   11  A    between atoms: C_10  and  C_13
REMARK   12  A    between atoms: C_17  and  S_18
REMARK   13  A    between atoms: S_18  and  C_19
REMARK   14  A    between atoms: C_19  and  C_20
REMARK   15  A    between atoms: N_22  and  C_23
REMARK   16  A    between atoms: C_24  and  C_25
REMARK   17  A    between atoms: C_29  and  C_30
REMARK                            x       y       z     vdW  Elec       q    Type
REMARK                         _______ _______ _______ _____ _____    ______ ____
ROOT
ATOM      1  C   UNL     1       2.120   7.373  18.783  0.00  0.00    +0.000 A 
ATOM      2  N   UNL     1       2.183   8.175  17.740  0.00  0.00    +0.000 NA
ATOM      3  N   UNL     1       1.723   9.400  18.166  0.00  0.00    +0.000 NA
ATOM      4  C   UNL     1       1.392   9.275  19.437  0.00  0.00    +0.000 A 
ATOM      5  O   UNL     1       1.602   7.997  19.897  0.00  0.00    +0.000 OA
ENDROOT
BRANCH   1   6
ATOM      6  C   UNL     1       2.555   5.943  18.890  0.00  0.00    +0.000 C 
BRANCH   6   7
ATOM      7  N   UNL     1       3.895   5.897  19.475  0.00  0.00    +0.000 N 
ATOM      8  C   UNL     1       4.982   5.646  18.690  0.00  0.00    +0.000 C 
ATOM      9  O   UNL     1       4.913   5.519  17.475  0.00  0.00    +0.000 OA
ATOM     10  H   UNL     1       4.031   5.878  20.480  0.00  0.00    +0.000 HD
BRANCH   8  11
ATOM     11  O   UNL     1       6.115   5.553  19.433  0.00  0.00    +0.000 OA
BRANCH  11  12
ATOM     12  C   UNL     1       7.404   5.669  18.760  0.00  0.00    +0.000 C 
ATOM     13  C   UNL     1       7.595   7.077  18.177  0.00  0.00    +0.000 C 
ATOM     14  C   UNL     1       8.489   5.456  19.833  0.00  0.00    +0.000 C 
ATOM     15  C   UNL     1       7.583   4.571  17.701  0.00  0.00    +0.000 C 
ENDBRANCH  11  12
ENDBRANCH   8  11
ENDBRANCH   6   7
BRANCH   6  16
ATOM     16  C   UNL     1       1.566   5.111  19.751  0.00  0.00    +0.000 C 
BRANCH  16  17
ATOM     17  C   UNL     1       1.218   3.720  19.201  0.00  0.00    +0.000 C 
BRANCH  17  19
ATOM     18  C   UNL     1       2.291   3.021  21.662  0.00  0.00    +0.000 C 
ATOM     19  S   UNL     1       2.251   2.421  19.953  0.00  0.00    +0.000 S 
ENDBRANCH  17  19
ENDBRANCH  16  17
ENDBRANCH   6  16
ENDBRANCH   1   6
BRANCH   4  20
ATOM     20  S   UNL     1       0.794  10.627  20.354  0.00  0.00    +0.000 S 
BRANCH  20  21
ATOM     21  C   UNL     1       0.831  12.009  19.198  0.00  0.00    +0.000 C 
BRANCH  21  22
ATOM     22  C   UNL     1      -0.537  12.331  18.638  0.00  0.00    +0.000 C 
ATOM     23  O   UNL     1      -0.714  13.360  17.991  0.00  0.00    +0.000 OA
ATOM     24  N   UNL     1      -1.531  11.414  18.974  0.00  0.00    +0.000 N 
ATOM     25  H   UNL     1      -1.394  10.895  19.831  0.00  0.00    +0.000 HD
BRANCH  24  26
ATOM     26  C   UNL     1      -2.857  11.528  18.492  0.00  0.00    +0.000 A 
ATOM     27  C   UNL     1      -3.229  10.986  17.247  0.00  0.00    +0.000 A 
ATOM     28  C   UNL     1      -2.330  10.112  16.430  0.00  0.00    +0.000 C 
ATOM     29  C   UNL     1      -4.527  11.200  16.757  0.00  0.00    +0.000 A 
ATOM     30  C   UNL     1      -5.470  11.886  17.514  0.00  0.00    +0.000 A 
ATOM     31  C   UNL     1      -5.130  12.344  18.780  0.00  0.00    +0.000 A 
ATOM     32  C   UNL     1      -3.831  12.167  19.288  0.00  0.00    +0.000 A 
ATOM     33  C   UNL     1      -3.509  12.722  20.646  0.00  0.00    +0.000 C 
ENDBRANCH  24  26
ENDBRANCH  21  22
ENDBRANCH  20  21
ENDBRANCH   4  20
TORSDOF 11
ENDMDL
MODEL 7
REMARK VINA RESULT:      -6.9      6.240     10.272
REMARK  Name = 
REMARK  17 active torsions:
REMARK  status: ('A' for Active; 'I' for Inactive)
REMARK    1  A    between atoms: C_1  and  S_2
REMARK    2  A    between atoms: S_2  and  C_3
REMARK    3  A    between atoms: C_3  and  C_4
REMARK    4  A    between atoms: C_4  and  C_5
REMARK    5  A    between atoms: C_5  and  N_6
REMARK    6  A    between atoms: C_5  and  C_14
REMARK    7  A    between atoms: C_7  and  O_9
REMARK    8  A    between atoms: O_9  and  C_10
REMARK    9  A    between atoms: C_10  and  C_11
REMARK   10  A    between atoms: C_10  and  C_12
REMARK   11  A    between atoms: C_10  and  C_13
REMARK   12  A    between atoms: C_17  and  S_18
REMARK   13  A    between atoms: S_18  and  C_19
REMARK   14  A    between atoms: C_19  and  C_20
REMARK   15  A    between atoms: N_22  and  C_23
REMARK   16  A    between atoms: C_24  and  C_25
REMARK   17  A    between atoms: C_29  and  C_30
REMARK                            x       y       z     vdW  Elec       q    Type
REMARK                         _______ _______ _______ _____ _____    ______ ____
ROOT
ATOM      1  C   UNL     1       2.065   7.233  19.684  0.00  0.00    +0.000 A 
ATOM      2  N   UNL     1       1.615   7.771  20.798  0.00  0.00    +0.000 NA
ATOM      3  N   UNL     1       1.350   9.090  20.511  0.00  0.00    +0.000 NA
ATOM      4  C   UNL     1       1.666   9.287  19.245  0.00  0.00    +0.000 A 
ATOM      5  O   UNL     1       2.148   8.144  18.655  0.00  0.00    +0.000 OA
ENDROOT
BRANCH   1   6
ATOM      6  C   UNL     1       2.446   5.807  19.422  0.00  0.00    +0.000 C 
BRANCH   6   7
ATOM      7  N   UNL     1       3.857   5.754  19.041  0.00  0.00    +0.000 N 
ATOM      8  C   UNL     1       4.258   4.991  17.983  0.00  0.00    +0.000 C 
ATOM      9  O   UNL     1       3.477   4.379  17.267  0.00  0.00    +0.000 OA
ATOM     10  H   UNL     1       4.580   6.135  19.642  0.00  0.00    +0.000 HD
BRANCH   8  11
ATOM     11  O   UNL     1       5.610   5.003  17.851  0.00  0.00    +0.000 OA
BRANCH  11  12
ATOM     12  C   UNL     1       6.194   5.681  16.699  0.00  0.00    +0.000 C 
ATOM     13  C   UNL     1       5.146   6.542  15.978  0.00  0.00    +0.000 C 
ATOM     14  C   UNL     1       7.282   6.628  17.242  0.00  0.00    +0.000 C 
ATOM     15  C   UNL     1       6.882   4.685  15.754  0.00  0.00    +0.000 C 
ENDBRANCH  11  12
ENDBRANCH   8  11
ENDBRANCH   6   7
BRANCH   6  16
ATOM     16  C   UNL     1       2.194   4.913  20.665  0.00  0.00    +0.000 C 
BRANCH  16  17
ATOM     17  C   UNL     1       1.121   3.827  20.495  0.00  0.00    +0.000 C 
BRANCH  17  19
ATOM     18  C   UNL     1       3.475   2.363  20.407  0.00  0.00    +0.000 C 
ATOM     19  S   UNL     1       1.800   2.326  19.718  0.00  0.00    +0.000 S 
ENDBRANCH  17  19
ENDBRANCH  16  17
ENDBRANCH   6  16
ENDBRANCH   1   6
BRANCH   4  20
ATOM     20  S   UNL     1       1.439  10.836  18.486  0.00  0.00    +0.000 S 
BRANCH  20  21
ATOM     21  C   UNL     1       0.272  11.697  19.556  0.00  0.00    +0.000 C 
BRANCH  21  22
ATOM     22  C   UNL     1      -1.158  11.262  19.322  0.00  0.00    +0.000 C 
ATOM     23  O   UNL     1      -1.520  10.132  19.640  0.00  0.00    +0.000 OA
ATOM     24  N   UNL     1      -1.955  12.209  18.683  0.00  0.00    +0.000 N 
ATOM     25  H   UNL     1      -1.477  12.874  18.088  0.00  0.00    +0.000 HD
BRANCH  24  26
ATOM     26  C   UNL     1      -3.331  11.993  18.432  0.00  0.00    +0.000 A 
ATOM     27  C   UNL     1      -4.309  12.348  19.380  0.00  0.00    +0.000 A 
ATOM     28  C   UNL     1      -4.005  13.129  20.621  0.00  0.00    +0.000 C 
ATOM     29  C   UNL     1      -5.656  12.033  19.140  0.00  0.00    +0.000 A 
ATOM     30  C   UNL     1      -6.045  11.430  17.949  0.00  0.00    +0.000 A 
ATOM     31  C   UNL     1      -5.091  11.159  16.975  0.00  0.00    +0.000 A 
ATOM     32  C   UNL     1      -3.732  11.441  17.196  0.00  0.00    +0.000 A 
ATOM     33  C   UNL     1      -2.742  11.086  16.125  0.00  0.00    +0.000 C 
ENDBRANCH  24  26
ENDBRANCH  21  22
ENDBRANCH  20  21
ENDBRANCH   4  20
TORSDOF 11
ENDMDL
MODEL 8
REMARK VINA RESULT:      -6.9      6.540      9.462
REMARK  Name = 
REMARK  17 active torsions:
REMARK  status: ('A' for Active; 'I' for Inactive)
REMARK    1  A    between atoms: C_1  and  S_2
REMARK    2  A    between atoms: S_2  and  C_3
REMARK    3  A    between atoms: C_3  and  C_4
REMARK    4  A    between atoms: C_4  and  C_5
REMARK    5  A    between atoms: C_5  and  N_6
REMARK    6  A    between atoms: C_5  and  C_14
REMARK    7  A    between atoms: C_7  and  O_9
REMARK    8  A    between atoms: O_9  and  C_10
REMARK    9  A    between atoms: C_10  and  C_11
REMARK   10  A    between atoms: C_10  and  C_12
REMARK   11  A    between atoms: C_10  and  C_13
REMARK   12  A    between atoms: C_17  and  S_18
REMARK   13  A    between atoms: S_18  and  C_19
REMARK   14  A    between atoms: C_19  and  C_20
REMARK   15  A    between atoms: N_22  and  C_23
REMARK   16  A    between atoms: C_24  and  C_25
REMARK   17  A    between atoms: C_29  and  C_30
REMARK                            x       y       z     vdW  Elec       q    Type
REMARK                         _______ _______ _______ _____ _____    ______ ____
ROOT
ATOM      1  C   UNL     1       3.024   7.659  18.214  0.00  0.00    +0.000 A 
ATOM      2  N   UNL     1       2.427   8.313  17.240  0.00  0.00    +0.000 NA
ATOM      3  N   UNL     1       1.450   9.081  17.831  0.00  0.00    +0.000 NA
ATOM      4  C   UNL     1       1.495   8.843  19.128  0.00  0.00    +0.000 A 
ATOM      5  O   UNL     1       2.469   7.927  19.446  0.00  0.00    +0.000 OA
ENDROOT
BRANCH   1   6
ATOM      6  C   UNL     1       4.197   6.730  18.135  0.00  0.00    +0.000 C 
BRANCH   6   7
ATOM      7  N   UNL     1       3.963   5.591  19.023  0.00  0.00    +0.000 N 
ATOM      8  C   UNL     1       3.166   4.558  18.625  0.00  0.00    +0.000 C 
ATOM      9  O   UNL     1       2.670   4.489  17.508  0.00  0.00    +0.000 OA
ATOM     10  H   UNL     1       4.238   5.618  19.999  0.00  0.00    +0.000 HD
BRANCH   8  11
ATOM     11  O   UNL     1       3.001   3.651  19.622  0.00  0.00    +0.000 OA
BRANCH  11  12
ATOM     12  C   UNL     1       1.707   3.576  20.292  0.00  0.00    +0.000 C 
ATOM     13  C   UNL     1       1.107   4.976  20.488  0.00  0.00    +0.000 C 
ATOM     14  C   UNL     1       0.766   2.791  19.358  0.00  0.00    +0.000 C 
ATOM     15  C   UNL     1       1.804   2.792  21.609  0.00  0.00    +0.000 C 
ENDBRANCH  11  12
ENDBRANCH   8  11
ENDBRANCH   6   7
BRANCH   6  16
ATOM     16  C   UNL     1       4.434   6.235  16.683  0.00  0.00    +0.000 C 
BRANCH  16  17
ATOM     17  C   UNL     1       5.903   6.142  16.246  0.00  0.00    +0.000 C 
BRANCH  17  19
ATOM     18  C   UNL     1       7.673   4.610  17.735  0.00  0.00    +0.000 C 
ATOM     19  S   UNL     1       6.526   4.433  16.344  0.00  0.00    +0.000 S 
ENDBRANCH  17  19
ENDBRANCH  16  17
ENDBRANCH   6  16
ENDBRANCH   1   6
BRANCH   4  20
ATOM     20  S   UNL     1       0.429   9.658  20.236  0.00  0.00    +0.000 S 
BRANCH  20  21
ATOM     21  C   UNL     1       0.536  11.396  19.770  0.00  0.00    +0.000 C 
BRANCH  21  22
ATOM     22  C   UNL     1      -0.669  11.859  18.981  0.00  0.00    +0.000 C 
ATOM     23  O   UNL     1      -0.588  12.840  18.247  0.00  0.00    +0.000 OA
ATOM     24  N   UNL     1      -1.831  11.128  19.218  0.00  0.00    +0.000 N 
ATOM     25  H   UNL     1      -1.903  10.674  20.119  0.00  0.00    +0.000 HD
BRANCH  24  26
ATOM     26  C   UNL     1      -3.039  11.387  18.527  0.00  0.00    +0.000 A 
ATOM     27  C   UNL     1      -3.266  10.872  17.237  0.00  0.00    +0.000 A 
ATOM     28  C   UNL     1      -2.355   9.886  16.574  0.00  0.00    +0.000 C 
ATOM     29  C   UNL     1      -4.434  11.227  16.543  0.00  0.00    +0.000 A 
ATOM     30  C   UNL     1      -5.400  12.030  17.139  0.00  0.00    +0.000 A 
ATOM     31  C   UNL     1      -5.218  12.466  18.445  0.00  0.00    +0.000 A 
ATOM     32  C   UNL     1      -4.048  12.147  19.157  0.00  0.00    +0.000 A 
ATOM     33  C   UNL     1      -3.887  12.683  20.550  0.00  0.00    +0.000 C 
ENDBRANCH  24  26
ENDBRANCH  21  22
ENDBRANCH  20  21
ENDBRANCH   4  20
TORSDOF 11
ENDMDL
MODEL 9
REMARK VINA RESULT:      -6.8      6.330      8.236
REMARK  Name = 
REMARK  17 active torsions:
REMARK  status: ('A' for Active; 'I' for Inactive)
REMARK    1  A    between atoms: C_1  and  S_2
REMARK    2  A    between atoms: S_2  and  C_3
REMARK    3  A    between atoms: C_3  and  C_4
REMARK    4  A    between atoms: C_4  and  C_5
REMARK    5  A    between atoms: C_5  and  N_6
REMARK    6  A    between atoms: C_5  and  C_14
REMARK    7  A    between atoms: C_7  and  O_9
REMARK    8  A    between atoms: O_9  and  C_10
REMARK    9  A    between atoms: C_10  and  C_11
REMARK   10  A    between atoms: C_10  and  C_12
REMARK   11  A    between atoms: C_10  and  C_13
REMARK   12  A    between atoms: C_17  and  S_18
REMARK   13  A    between atoms: S_18  and  C_19
REMARK   14  A    between atoms: C_19  and  C_20
REMARK   15  A    between atoms: N_22  and  C_23
REMARK   16  A    between atoms: C_24  and  C_25
REMARK   17  A    between atoms: C_29  and  C_30
REMARK                            x       y       z     vdW  Elec       q    Type
REMARK                         _______ _______ _______ _____ _____    ______ ____
ROOT
ATOM      1  C   UNL     1       2.111   7.031  19.520  0.00  0.00    +0.000 A 
ATOM      2  N   UNL     1       2.207   7.860  18.502  0.00  0.00    +0.000 NA
ATOM      3  N   UNL     1       1.716   9.069  18.940  0.00  0.00    +0.000 NA
ATOM      4  C   UNL     1       1.335   8.906  20.192  0.00  0.00    +0.000 A 
ATOM      5  O   UNL     1       1.541   7.620  20.627  0.00  0.00    +0.000 OA
ENDROOT
BRANCH   1   6
ATOM      6  C   UNL     1       2.558   5.603  19.608  0.00  0.00    +0.000 C 
BRANCH   6   7
ATOM      7  N   UNL     1       4.012   5.570  19.770  0.00  0.00    +0.000 N 
ATOM      8  C   UNL     1       4.797   4.967  18.831  0.00  0.00    +0.000 C 
ATOM      9  O   UNL     1       4.354   4.494  17.794  0.00  0.00    +0.000 OA
ATOM     10  H   UNL     1       4.451   5.834  20.645  0.00  0.00    +0.000 HD
BRANCH   8  11
ATOM     11  O   UNL     1       6.101   4.961  19.210  0.00  0.00    +0.000 OA
BRANCH  11  12
ATOM     12  C   UNL     1       7.089   5.568  18.324  0.00  0.00    +0.000 C 
ATOM     13  C   UNL     1       6.481   6.745  17.547  0.00  0.00    +0.000 C 
ATOM     14  C   UNL     1       8.208   6.130  19.222  0.00  0.00    +0.000 C 
ATOM     15  C   UNL     1       7.726   4.524  17.396  0.00  0.00    +0.000 C 
ENDBRANCH  11  12
ENDBRANCH   8  11
ENDBRANCH   6   7
BRANCH   6  16
ATOM     16  C   UNL     1       1.872   4.863  20.787  0.00  0.00    +0.000 C 
BRANCH  16  17
ATOM     17  C   UNL     1       0.857   3.781  20.390  0.00  0.00    +0.000 C 
BRANCH  17  19
ATOM     18  C   UNL     1       2.412   1.887  19.091  0.00  0.00    +0.000 C 
ATOM     19  S   UNL     1       1.170   3.149  18.711  0.00  0.00    +0.000 S 
ENDBRANCH  17  19
ENDBRANCH  16  17
ENDBRANCH   6  16
ENDBRANCH   1   6
BRANCH   4  20
ATOM     20  S   UNL     1       0.684  10.228  21.119  0.00  0.00    +0.000 S 
BRANCH  20  21
ATOM     21  C   UNL     1      -0.768  10.759  20.192  0.00  0.00    +0.000 C 
BRANCH  21  22
ATOM     22  C   UNL     1      -0.527  12.040  19.424  0.00  0.00    +0.000 C 
ATOM     23  O   UNL     1      -0.798  12.104  18.228  0.00  0.00    +0.000 OA
ATOM     24  N   UNL     1       0.064  13.059  20.168  0.00  0.00    +0.000 N 
ATOM     25  H   UNL     1       0.633  12.772  20.954  0.00  0.00    +0.000 HD
BRANCH  24  26
ATOM     26  C   UNL     1       0.312  14.342  19.626  0.00  0.00    +0.000 A 
ATOM     27  C   UNL     1      -0.661  15.358  19.684  0.00  0.00    +0.000 A 
ATOM     28  C   UNL     1      -1.935  15.232  20.460  0.00  0.00    +0.000 C 
ATOM     29  C   UNL     1      -0.418  16.589  19.053  0.00  0.00    +0.000 A 
ATOM     30  C   UNL     1       0.797  16.840  18.425  0.00  0.00    +0.000 A 
ATOM     31  C   UNL     1       1.791  15.869  18.444  0.00  0.00    +0.000 A 
ATOM     32  C   UNL     1       1.569  14.619  19.047  0.00  0.00    +0.000 A 
ATOM     33  C   UNL     1       2.665  13.594  18.998  0.00  0.00    +0.000 C 
ENDBRANCH  24  26
ENDBRANCH  21  22
ENDBRANCH  20  21
ENDBRANCH   4  20
TORSDOF 11
ENDMDL
