MODEL 1
REMARK VINA RESULT:      -7.9      0.000      0.000
REMARK  Name = 
REMARK  8 active torsions:
REMARK  status: ('A' for Active; 'I' for Inactive)
REMARK    1  A    between atoms: C_2  and  C_3
REMARK    2  A    between atoms: C_3  and  N_4
REMARK    3  A    between atoms: N_4  and  C_5
REMARK    4  A    between atoms: N_4  and  S_12
REMARK    5  A    between atoms: C_5  and  C_6
REMARK    6  A    between atoms: S_12  and  C_15
REMARK    7  A    between atoms: C_19  and  C_20
REMARK    8  A    between atoms: N_25  and  C_26
REMARK                            x       y       z     vdW  Elec       q    Type
REMARK                         _______ _______ _______ _____ _____    ______ ____
ROOT
ATOM      1  N   UNL     1       4.744   4.139  17.319  0.00  0.00    +0.000 NA
ENDROOT
BRANCH   1   2
ATOM      2  S   UNL     1       5.288   5.496  18.293  0.00  0.00    +0.000 S 
ATOM      3  O   UNL     1       5.493   5.103  19.664  0.00  0.00    +0.000 OA
ATOM      4  O   UNL     1       6.337   6.174  17.555  0.00  0.00    +0.000 OA
BRANCH   2   5
ATOM      5  C   UNL     1       3.869   6.573  18.338  0.00  0.00    +0.000 A 
ATOM      6  C   UNL     1       3.653   7.492  17.308  0.00  0.00    +0.000 A 
ATOM      7  C   UNL     1       2.648   8.449  17.441  0.00  0.00    +0.000 A 
ATOM      8  C   UNL     1       1.859   8.487  18.596  0.00  0.00    +0.000 A 
ATOM      9  C   UNL     1       2.068   7.567  19.637  0.00  0.00    +0.000 A 
ATOM     10  C   UNL     1       3.092   6.614  19.505  0.00  0.00    +0.000 A 
BRANCH   9  11
ATOM     11  C   UNL     1       1.224   7.603  20.888  0.00  0.00    +0.000 C 
ATOM     12  F   UNL     1       1.867   8.133  21.964  0.00  0.00    +0.000 F 
ATOM     13  F   UNL     1       0.100   8.356  20.726  0.00  0.00    +0.000 F 
ATOM     14  F   UNL     1       0.798   6.371  21.275  0.00  0.00    +0.000 F 
ENDBRANCH   9  11
ENDBRANCH   2   5
ENDBRANCH   1   2
BRANCH   1  15
ATOM     15  C   UNL     1       5.799   3.818  16.281  0.00  0.00    +0.000 C 
BRANCH  15  17
ATOM     16  O   UNL     1       5.435   5.573  14.708  0.00  0.00    +0.000 OA
ATOM     17  C   UNL     1       5.788   4.408  14.881  0.00  0.00    +0.000 C 
ATOM     18  N   UNL     1       6.103   3.568  13.835  0.00  0.00    +0.000 N 
ATOM     19  H   UNL     1       6.072   2.576  14.043  0.00  0.00    +0.000 HD
BRANCH  18  20
ATOM     20  C   UNL     1       5.942   3.972  12.425  0.00  0.00    +0.000 C 
ATOM     21  C   UNL     1       7.249   3.954  11.607  0.00  0.00    +0.000 C 
ATOM     22  C   UNL     1       7.812   2.543  11.465  0.00  0.00    +0.000 C 
ATOM     23  C   UNL     1       6.793   1.605  10.826  0.00  0.00    +0.000 C 
ATOM     24  C   UNL     1       5.444   1.640  11.542  0.00  0.00    +0.000 C 
ATOM     25  C   UNL     1       4.918   3.065  11.722  0.00  0.00    +0.000 C 
ENDBRANCH  18  20
ENDBRANCH  15  17
ENDBRANCH   1  15
BRANCH   1  26
ATOM     26  C   UNL     1       4.436   2.928  18.158  0.00  0.00    +0.000 C 
BRANCH  26  27
ATOM     27  C   UNL     1       3.175   2.996  19.000  0.00  0.00    +0.000 A 
ATOM     28  C   UNL     1       1.923   3.280  18.434  0.00  0.00    +0.000 A 
ATOM     29  C   UNL     1       0.781   3.359  19.240  0.00  0.00    +0.000 A 
ATOM     30  C   UNL     1       0.874   3.154  20.617  0.00  0.00    +0.000 A 
ATOM     31  C   UNL     1       2.109   2.867  21.191  0.00  0.00    +0.000 A 
ATOM     32  C   UNL     1       3.248   2.784  20.389  0.00  0.00    +0.000 A 
ENDBRANCH  26  27
ENDBRANCH   1  26
TORSDOF 8
ENDMDL
MODEL 2
REMARK VINA RESULT:      -7.9      0.392      1.167
REMARK  Name = 
REMARK  8 active torsions:
REMARK  status: ('A' for Active; 'I' for Inactive)
REMARK    1  A    between atoms: C_2  and  C_3
REMARK    2  A    between atoms: C_3  and  N_4
REMARK    3  A    between atoms: N_4  and  C_5
REMARK    4  A    between atoms: N_4  and  S_12
REMARK    5  A    between atoms: C_5  and  C_6
REMARK    6  A    between atoms: S_12  and  C_15
REMARK    7  A    between atoms: C_19  and  C_20
REMARK    8  A    between atoms: N_25  and  C_26
REMARK                            x       y       z     vdW  Elec       q    Type
REMARK                         _______ _______ _______ _____ _____    ______ ____
ROOT
ATOM      1  N   UNL     1       5.033   4.242  17.176  0.00  0.00    +0.000 NA
ENDROOT
BRANCH   1   2
ATOM      2  S   UNL     1       5.450   5.522  18.305  0.00  0.00    +0.000 S 
ATOM      3  O   UNL     1       5.568   5.012  19.647  0.00  0.00    +0.000 OA
ATOM      4  O   UNL     1       6.523   6.297  17.713  0.00  0.00    +0.000 OA
BRANCH   2   5
ATOM      5  C   UNL     1       3.990   6.544  18.335  0.00  0.00    +0.000 A 
ATOM      6  C   UNL     1       3.747   7.450  17.300  0.00  0.00    +0.000 A 
ATOM      7  C   UNL     1       2.704   8.368  17.421  0.00  0.00    +0.000 A 
ATOM      8  C   UNL     1       1.907   8.380  18.570  0.00  0.00    +0.000 A 
ATOM      9  C   UNL     1       2.142   7.472  19.616  0.00  0.00    +0.000 A 
ATOM     10  C   UNL     1       3.203   6.559  19.496  0.00  0.00    +0.000 A 
BRANCH   9  11
ATOM     11  C   UNL     1       1.288   7.481  20.861  0.00  0.00    +0.000 C 
ATOM     12  F   UNL     1       0.127   8.178  20.720  0.00  0.00    +0.000 F 
ATOM     13  F   UNL     1       0.917   6.225  21.236  0.00  0.00    +0.000 F 
ATOM     14  F   UNL     1       1.923   8.022  21.935  0.00  0.00    +0.000 F 
ENDBRANCH   9  11
ENDBRANCH   2   5
ENDBRANCH   1   2
BRANCH   1  15
ATOM     15  C   UNL     1       6.222   3.961  16.282  0.00  0.00    +0.000 C 
BRANCH  15  17
ATOM     16  O   UNL     1       6.592   5.619  14.609  0.00  0.00    +0.000 OA
ATOM     17  C   UNL     1       6.309   4.445  14.845  0.00  0.00    +0.000 C 
ATOM     18  N   UNL     1       5.980   3.550  13.851  0.00  0.00    +0.000 N 
ATOM     19  H   UNL     1       5.470   2.727  14.152  0.00  0.00    +0.000 HD
BRANCH  18  20
ATOM     20  C   UNL     1       5.844   3.955  12.439  0.00  0.00    +0.000 C 
ATOM     21  C   UNL     1       7.173   3.997  11.659  0.00  0.00    +0.000 C 
ATOM     22  C   UNL     1       7.798   2.611  11.526  0.00  0.00    +0.000 C 
ATOM     23  C   UNL     1       6.837   1.636  10.853  0.00  0.00    +0.000 C 
ATOM     24  C   UNL     1       5.468   1.611  11.530  0.00  0.00    +0.000 C 
ATOM     25  C   UNL     1       4.878   3.012  11.703  0.00  0.00    +0.000 C 
ENDBRANCH  18  20
ENDBRANCH  15  17
ENDBRANCH   1  15
BRANCH   1  26
ATOM     26  C   UNL     1       4.588   2.989  17.881  0.00  0.00    +0.000 C 
BRANCH  26  27
ATOM     27  C   UNL     1       3.243   3.052  18.582  0.00  0.00    +0.000 A 
ATOM     28  C   UNL     1       3.096   2.702  19.933  0.00  0.00    +0.000 A 
ATOM     29  C   UNL     1       1.838   2.748  20.546  0.00  0.00    +0.000 A 
ATOM     30  C   UNL     1       0.715   3.144  19.820  0.00  0.00    +0.000 A 
ATOM     31  C   UNL     1       0.847   3.497  18.481  0.00  0.00    +0.000 A 
ATOM     32  C   UNL     1       2.101   3.456  17.868  0.00  0.00    +0.000 A 
ENDBRANCH  26  27
ENDBRANCH   1  26
TORSDOF 8
ENDMDL
MODEL 3
REMARK VINA RESULT:      -7.9      1.455      2.009
REMARK  Name = 
REMARK  8 active torsions:
REMARK  status: ('A' for Active; 'I' for Inactive)
REMARK    1  A    between atoms: C_2  and  C_3
REMARK    2  A    between atoms: C_3  and  N_4
REMARK    3  A    between atoms: N_4  and  C_5
REMARK    4  A    between atoms: N_4  and  S_12
REMARK    5  A    between atoms: C_5  and  C_6
REMARK    6  A    between atoms: S_12  and  C_15
REMARK    7  A    between atoms: C_19  and  C_20
REMARK    8  A    between atoms: N_25  and  C_26
REMARK                            x       y       z     vdW  Elec       q    Type
REMARK                         _______ _______ _______ _____ _____    ______ ____
ROOT
ATOM      1  N   UNL     1       5.036   4.186  17.105  0.00  0.00    +0.000 NA
ENDROOT
BRANCH   1   2
ATOM      2  S   UNL     1       5.498   4.594  18.750  0.00  0.00    +0.000 S 
ATOM      3  O   UNL     1       5.587   3.415  19.573  0.00  0.00    +0.000 OA
ATOM      4  O   UNL     1       6.606   5.527  18.676  0.00  0.00    +0.000 OA
BRANCH   2   5
ATOM      5  C   UNL     1       4.082   5.477  19.375  0.00  0.00    +0.000 A 
ATOM      6  C   UNL     1       3.314   4.930  20.405  0.00  0.00    +0.000 A 
ATOM      7  C   UNL     1       2.110   5.538  20.762  0.00  0.00    +0.000 A 
ATOM      8  C   UNL     1       1.678   6.689  20.094  0.00  0.00    +0.000 A 
ATOM      9  C   UNL     1       2.443   7.247  19.058  0.00  0.00    +0.000 A 
ATOM     10  C   UNL     1       3.648   6.622  18.691  0.00  0.00    +0.000 A 
BRANCH   9  11
ATOM     11  C   UNL     1       1.981   8.487  18.330  0.00  0.00    +0.000 C 
ATOM     12  F   UNL     1       1.278   9.348  19.114  0.00  0.00    +0.000 F 
ATOM     13  F   UNL     1       3.025   9.209  17.836  0.00  0.00    +0.000 F 
ATOM     14  F   UNL     1       1.181   8.208  17.266  0.00  0.00    +0.000 F 
ENDBRANCH   9  11
ENDBRANCH   2   5
ENDBRANCH   1   2
BRANCH   1  15
ATOM     15  C   UNL     1       6.274   4.158  16.233  0.00  0.00    +0.000 C 
BRANCH  15  17
ATOM     16  O   UNL     1       6.299   5.843  14.546  0.00  0.00    +0.000 OA
ATOM     17  C   UNL     1       6.280   4.639  14.792  0.00  0.00    +0.000 C 
ATOM     18  N   UNL     1       6.179   3.684  13.803  0.00  0.00    +0.000 N 
ATOM     19  H   UNL     1       5.859   2.771  14.105  0.00  0.00    +0.000 HD
BRANCH  18  20
ATOM     20  C   UNL     1       5.985   4.038  12.384  0.00  0.00    +0.000 C 
ATOM     21  C   UNL     1       7.260   3.934  11.523  0.00  0.00    +0.000 C 
ATOM     22  C   UNL     1       7.761   2.497  11.421  0.00  0.00    +0.000 C 
ATOM     23  C   UNL     1       6.684   1.577  10.855  0.00  0.00    +0.000 C 
ATOM     24  C   UNL     1       5.364   1.695  11.615  0.00  0.00    +0.000 C 
ATOM     25  C   UNL     1       4.901   3.147  11.754  0.00  0.00    +0.000 C 
ENDBRANCH  18  20
ENDBRANCH  15  17
ENDBRANCH   1  15
BRANCH   1  26
ATOM     26  C   UNL     1       4.305   2.872  17.033  0.00  0.00    +0.000 C 
BRANCH  26  27
ATOM     27  C   UNL     1       2.951   2.817  17.718  0.00  0.00    +0.000 A 
ATOM     28  C   UNL     1       1.919   3.707  17.387  0.00  0.00    +0.000 A 
ATOM     29  C   UNL     1       0.688   3.647  18.053  0.00  0.00    +0.000 A 
ATOM     30  C   UNL     1       0.473   2.699  19.053  0.00  0.00    +0.000 A 
ATOM     31  C   UNL     1       1.488   1.807  19.389  0.00  0.00    +0.000 A 
ATOM     32  C   UNL     1       2.714   1.863  18.724  0.00  0.00    +0.000 A 
ENDBRANCH  26  27
ENDBRANCH   1  26
TORSDOF 8
ENDMDL
MODEL 4
REMARK VINA RESULT:      -7.8      0.911      1.062
REMARK  Name = 
REMARK  8 active torsions:
REMARK  status: ('A' for Active; 'I' for Inactive)
REMARK    1  A    between atoms: C_2  and  C_3
REMARK    2  A    between atoms: C_3  and  N_4
REMARK    3  A    between atoms: N_4  and  C_5
REMARK    4  A    between atoms: N_4  and  S_12
REMARK    5  A    between atoms: C_5  and  C_6
REMARK    6  A    between atoms: S_12  and  C_15
REMARK    7  A    between atoms: C_19  and  C_20
REMARK    8  A    between atoms: N_25  and  C_26
REMARK                            x       y       z     vdW  Elec       q    Type
REMARK                         _______ _______ _______ _____ _____    ______ ____
ROOT
ATOM      1  N   UNL     1       5.509   4.398  16.903  0.00  0.00    +0.000 NA
ENDROOT
BRANCH   1   2
ATOM      2  S   UNL     1       5.867   5.858  17.811  0.00  0.00    +0.000 S 
ATOM      3  O   UNL     1       6.392   5.543  19.115  0.00  0.00    +0.000 OA
ATOM      4  O   UNL     1       6.579   6.762  16.928  0.00  0.00    +0.000 OA
BRANCH   2   5
ATOM      5  C   UNL     1       4.258   6.557  18.127  0.00  0.00    +0.000 A 
ATOM      6  C   UNL     1       3.797   7.628  17.359  0.00  0.00    +0.000 A 
ATOM      7  C   UNL     1       2.622   8.283  17.728  0.00  0.00    +0.000 A 
ATOM      8  C   UNL     1       1.910   7.867  18.858  0.00  0.00    +0.000 A 
ATOM      9  C   UNL     1       2.365   6.791  19.637  0.00  0.00    +0.000 A 
ATOM     10  C   UNL     1       3.558   6.144  19.269  0.00  0.00    +0.000 A 
BRANCH   9  11
ATOM     11  C   UNL     1       1.604   6.338  20.860  0.00  0.00    +0.000 C 
ATOM     12  F   UNL     1       1.320   7.347  21.729  0.00  0.00    +0.000 F 
ATOM     13  F   UNL     1       0.403   5.782  20.539  0.00  0.00    +0.000 F 
ATOM     14  F   UNL     1       2.273   5.399  21.582  0.00  0.00    +0.000 F 
ENDBRANCH   9  11
ENDBRANCH   2   5
ENDBRANCH   1   2
BRANCH   1  15
ATOM     15  C   UNL     1       6.688   4.066  16.011  0.00  0.00    +0.000 C 
BRANCH  15  17
ATOM     16  O   UNL     1       7.179   5.518  14.185  0.00  0.00    +0.000 OA
ATOM     17  C   UNL     1       6.735   4.427  14.536  0.00  0.00    +0.000 C 
ATOM     18  N   UNL     1       6.193   3.527  13.644  0.00  0.00    +0.000 N 
ATOM     19  H   UNL     1       5.585   2.822  14.046  0.00  0.00    +0.000 HD
BRANCH  18  20
ATOM     20  C   UNL     1       6.009   3.848  12.216  0.00  0.00    +0.000 C 
ATOM     21  C   UNL     1       7.289   3.716  11.366  0.00  0.00    +0.000 C 
ATOM     22  C   UNL     1       7.782   2.273  11.302  0.00  0.00    +0.000 C 
ATOM     23  C   UNL     1       6.702   1.347  10.752  0.00  0.00    +0.000 C 
ATOM     24  C   UNL     1       5.378   1.492  11.499  0.00  0.00    +0.000 C 
ATOM     25  C   UNL     1       4.924   2.949  11.601  0.00  0.00    +0.000 C 
ENDBRANCH  18  20
ENDBRANCH  15  17
ENDBRANCH   1  15
BRANCH   1  26
ATOM     26  C   UNL     1       5.181   3.237  17.804  0.00  0.00    +0.000 C 
BRANCH  26  27
ATOM     27  C   UNL     1       3.728   3.102  18.224  0.00  0.00    +0.000 A 
ATOM     28  C   UNL     1       2.676   3.493  17.382  0.00  0.00    +0.000 A 
ATOM     29  C   UNL     1       1.347   3.378  17.807  0.00  0.00    +0.000 A 
ATOM     30  C   UNL     1       1.052   2.872  19.073  0.00  0.00    +0.000 A 
ATOM     31  C   UNL     1       2.087   2.478  19.917  0.00  0.00    +0.000 A 
ATOM     32  C   UNL     1       3.413   2.588  19.494  0.00  0.00    +0.000 A 
ENDBRANCH  26  27
ENDBRANCH   1  26
TORSDOF 8
ENDMDL
MODEL 5
REMARK VINA RESULT:      -7.5      2.175      7.345
REMARK  Name = 
REMARK  8 active torsions:
REMARK  status: ('A' for Active; 'I' for Inactive)
REMARK    1  A    between atoms: C_2  and  C_3
REMARK    2  A    between atoms: C_3  and  N_4
REMARK    3  A    between atoms: N_4  and  C_5
REMARK    4  A    between atoms: N_4  and  S_12
REMARK    5  A    between atoms: C_5  and  C_6
REMARK    6  A    between atoms: S_12  and  C_15
REMARK    7  A    between atoms: C_19  and  C_20
REMARK    8  A    between atoms: N_25  and  C_26
REMARK                            x       y       z     vdW  Elec       q    Type
REMARK                         _______ _______ _______ _____ _____    ______ ____
ROOT
ATOM      1  N   UNL     1       5.112   5.771  17.078  0.00  0.00    +0.000 NA
ENDROOT
BRANCH   1   2
ATOM      2  S   UNL     1       5.689   4.812  18.430  0.00  0.00    +0.000 S 
ATOM      3  O   UNL     1       6.840   4.029  18.058  0.00  0.00    +0.000 OA
ATOM      4  O   UNL     1       5.730   5.675  19.596  0.00  0.00    +0.000 OA
BRANCH   2   5
ATOM      5  C   UNL     1       4.390   3.617  18.680  0.00  0.00    +0.000 A 
ATOM      6  C   UNL     1       3.929   2.850  17.608  0.00  0.00    +0.000 A 
ATOM      7  C   UNL     1       2.796   2.053  17.772  0.00  0.00    +0.000 A 
ATOM      8  C   UNL     1       2.129   2.020  19.001  0.00  0.00    +0.000 A 
ATOM      9  C   UNL     1       2.586   2.787  20.085  0.00  0.00    +0.000 A 
ATOM     10  C   UNL     1       3.719   3.601  19.911  0.00  0.00    +0.000 A 
BRANCH   9  11
ATOM     11  C   UNL     1       1.870   2.760  21.414  0.00  0.00    +0.000 C 
ATOM     12  F   UNL     1       0.516   2.842  21.305  0.00  0.00    +0.000 F 
ATOM     13  F   UNL     1       2.113   1.611  22.103  0.00  0.00    +0.000 F 
ATOM     14  F   UNL     1       2.242   3.778  22.236  0.00  0.00    +0.000 F 
ENDBRANCH   9  11
ENDBRANCH   2   5
ENDBRANCH   1   2
BRANCH   1  15
ATOM     15  C   UNL     1       4.476   7.041  17.604  0.00  0.00    +0.000 C 
BRANCH  15  17
ATOM     16  O   UNL     1       2.297   6.132  17.941  0.00  0.00    +0.000 OA
ATOM     17  C   UNL     1       3.028   7.114  18.059  0.00  0.00    +0.000 C 
ATOM     18  N   UNL     1       2.566   8.328  18.518  0.00  0.00    +0.000 N 
ATOM     19  H   UNL     1       3.139   9.132  18.287  0.00  0.00    +0.000 HD
BRANCH  18  20
ATOM     20  C   UNL     1       1.139   8.570  18.805  0.00  0.00    +0.000 C 
ATOM     21  C   UNL     1       0.806   8.691  20.306  0.00  0.00    +0.000 C 
ATOM     22  C   UNL     1       1.463   9.915  20.938  0.00  0.00    +0.000 C 
ATOM     23  C   UNL     1       1.054  11.195  20.215  0.00  0.00    +0.000 C 
ATOM     24  C   UNL     1       1.281  11.107  18.707  0.00  0.00    +0.000 C 
ATOM     25  C   UNL     1       0.660   9.848  18.098  0.00  0.00    +0.000 C 
ENDBRANCH  18  20
ENDBRANCH  15  17
ENDBRANCH   1  15
BRANCH   1  26
ATOM     26  C   UNL     1       6.211   6.093  16.101  0.00  0.00    +0.000 C 
BRANCH  26  27
ATOM     27  C   UNL     1       6.256   5.250  14.839  0.00  0.00    +0.000 A 
ATOM     28  C   UNL     1       5.211   4.381  14.492  0.00  0.00    +0.000 A 
ATOM     29  C   UNL     1       5.292   3.599  13.333  0.00  0.00    +0.000 A 
ATOM     30  C   UNL     1       6.414   3.676  12.508  0.00  0.00    +0.000 A 
ATOM     31  C   UNL     1       7.457   4.536  12.839  0.00  0.00    +0.000 A 
ATOM     32  C   UNL     1       7.377   5.320  13.991  0.00  0.00    +0.000 A 
ENDBRANCH  26  27
ENDBRANCH   1  26
TORSDOF 8
ENDMDL
MODEL 6
REMARK VINA RESULT:      -7.5      4.082      5.490
REMARK  Name = 
REMARK  8 active torsions:
REMARK  status: ('A' for Active; 'I' for Inactive)
REMARK    1  A    between atoms: C_2  and  C_3
REMARK    2  A    between atoms: C_3  and  N_4
REMARK    3  A    between atoms: N_4  and  C_5
REMARK    4  A    between atoms: N_4  and  S_12
REMARK    5  A    between atoms: C_5  and  C_6
REMARK    6  A    between atoms: S_12  and  C_15
REMARK    7  A    between atoms: C_19  and  C_20
REMARK    8  A    between atoms: N_25  and  C_26
REMARK                            x       y       z     vdW  Elec       q    Type
REMARK                         _______ _______ _______ _____ _____    ______ ____
ROOT
ATOM      1  N   UNL     1       1.390   7.475  20.172  0.00  0.00    +0.000 NA
ENDROOT
BRANCH   1   2
ATOM      2  S   UNL     1       0.530   8.570  21.242  0.00  0.00    +0.000 S 
ATOM      3  O   UNL     1      -0.722   7.999  21.672  0.00  0.00    +0.000 OA
ATOM      4  O   UNL     1       1.483   9.075  22.213  0.00  0.00    +0.000 OA
BRANCH   2   5
ATOM      5  C   UNL     1       0.069   9.920  20.175  0.00  0.00    +0.000 A 
ATOM      6  C   UNL     1       0.546  11.208  20.430  0.00  0.00    +0.000 A 
ATOM      7  C   UNL     1       0.039  12.285  19.702  0.00  0.00    +0.000 A 
ATOM      8  C   UNL     1      -0.938  12.075  18.723  0.00  0.00    +0.000 A 
ATOM      9  C   UNL     1      -1.423  10.783  18.458  0.00  0.00    +0.000 A 
ATOM     10  C   UNL     1      -0.920   9.704  19.205  0.00  0.00    +0.000 A 
BRANCH   9  11
ATOM     11  C   UNL     1      -2.479  10.549  17.406  0.00  0.00    +0.000 C 
ATOM     12  F   UNL     1      -3.244  11.645  17.148  0.00  0.00    +0.000 F 
ATOM     13  F   UNL     1      -1.938  10.191  16.208  0.00  0.00    +0.000 F 
ATOM     14  F   UNL     1      -3.347   9.556  17.738  0.00  0.00    +0.000 F 
ENDBRANCH   9  11
ENDBRANCH   2   5
ENDBRANCH   1   2
BRANCH   1  15
ATOM     15  C   UNL     1       2.431   8.254  19.396  0.00  0.00    +0.000 C 
BRANCH  15  17
ATOM     16  O   UNL     1       2.461   8.163  17.013  0.00  0.00    +0.000 OA
ATOM     17  C   UNL     1       2.986   7.788  18.060  0.00  0.00    +0.000 C 
ATOM     18  N   UNL     1       4.025   6.883  18.084  0.00  0.00    +0.000 N 
ATOM     19  H   UNL     1       4.174   6.408  18.968  0.00  0.00    +0.000 HD
BRANCH  18  20
ATOM     20  C   UNL     1       4.518   6.218  16.863  0.00  0.00    +0.000 C 
ATOM     21  C   UNL     1       5.927   6.661  16.423  0.00  0.00    +0.000 C 
ATOM     22  C   UNL     1       6.992   6.269  17.444  0.00  0.00    +0.000 C 
ATOM     23  C   UNL     1       6.982   4.765  17.698  0.00  0.00    +0.000 C 
ATOM     24  C   UNL     1       5.591   4.246  18.057  0.00  0.00    +0.000 C 
ATOM     25  C   UNL     1       4.527   4.692  17.052  0.00  0.00    +0.000 C 
ENDBRANCH  18  20
ENDBRANCH  15  17
ENDBRANCH   1  15
BRANCH   1  26
ATOM     26  C   UNL     1       2.028   6.336  20.922  0.00  0.00    +0.000 C 
BRANCH  26  27
ATOM     27  C   UNL     1       1.755   4.941  20.386  0.00  0.00    +0.000 A 
ATOM     28  C   UNL     1       1.789   3.811  21.216  0.00  0.00    +0.000 A 
ATOM     29  C   UNL     1       1.555   2.535  20.689  0.00  0.00    +0.000 A 
ATOM     30  C   UNL     1       1.284   2.373  19.330  0.00  0.00    +0.000 A 
ATOM     31  C   UNL     1       1.244   3.486  18.496  0.00  0.00    +0.000 A 
ATOM     32  C   UNL     1       1.472   4.760  19.020  0.00  0.00    +0.000 A 
ENDBRANCH  26  27
ENDBRANCH   1  26
TORSDOF 8
ENDMDL
MODEL 7
REMARK VINA RESULT:      -7.5      3.920      6.652
REMARK  Name = 
REMARK  8 active torsions:
REMARK  status: ('A' for Active; 'I' for Inactive)
REMARK    1  A    between atoms: C_2  and  C_3
REMARK    2  A    between atoms: C_3  and  N_4
REMARK    3  A    between atoms: N_4  and  C_5
REMARK    4  A    between atoms: N_4  and  S_12
REMARK    5  A    between atoms: C_5  and  C_6
REMARK    6  A    between atoms: S_12  and  C_15
REMARK    7  A    between atoms: C_19  and  C_20
REMARK    8  A    between atoms: N_25  and  C_26
REMARK                            x       y       z     vdW  Elec       q    Type
REMARK                         _______ _______ _______ _____ _____    ______ ____
ROOT
ATOM      1  N   UNL     1       4.376   5.162  16.796  0.00  0.00    +0.000 NA
ENDROOT
BRANCH   1   2
ATOM      2  S   UNL     1       5.717   5.761  15.832  0.00  0.00    +0.000 S 
ATOM      3  O   UNL     1       6.367   4.688  15.124  0.00  0.00    +0.000 OA
ATOM      4  O   UNL     1       5.257   6.941  15.125  0.00  0.00    +0.000 OA
BRANCH   2   5
ATOM      5  C   UNL     1       6.906   6.285  17.052  0.00  0.00    +0.000 A 
ATOM      6  C   UNL     1       7.312   5.406  18.058  0.00  0.00    +0.000 A 
ATOM      7  C   UNL     1       8.100   5.879  19.107  0.00  0.00    +0.000 A 
ATOM      8  C   UNL     1       8.483   7.224  19.149  0.00  0.00    +0.000 A 
ATOM      9  C   UNL     1       8.081   8.116  18.142  0.00  0.00    +0.000 A 
ATOM     10  C   UNL     1       7.274   7.638  17.095  0.00  0.00    +0.000 A 
BRANCH   9  11
ATOM     11  C   UNL     1       8.487   9.569  18.182  0.00  0.00    +0.000 C 
ATOM     12  F   UNL     1       9.576   9.852  17.415  0.00  0.00    +0.000 F 
ATOM     13  F   UNL     1       7.498  10.390  17.730  0.00  0.00    +0.000 F 
ATOM     14  F   UNL     1       8.789  10.000  19.436  0.00  0.00    +0.000 F 
ENDBRANCH   9  11
ENDBRANCH   2   5
ENDBRANCH   1   2
BRANCH   1  15
ATOM     15  C   UNL     1       4.454   3.652  16.871  0.00  0.00    +0.000 C 
BRANCH  15  17
ATOM     16  O   UNL     1       2.440   2.377  16.947  0.00  0.00    +0.000 OA
ATOM     17  C   UNL     1       3.407   2.804  17.575  0.00  0.00    +0.000 C 
ATOM     18  N   UNL     1       3.550   2.615  18.933  0.00  0.00    +0.000 N 
ATOM     19  H   UNL     1       4.187   3.251  19.400  0.00  0.00    +0.000 HD
BRANCH  18  20
ATOM     20  C   UNL     1       2.503   1.976  19.753  0.00  0.00    +0.000 C 
ATOM     21  C   UNL     1       2.578   2.316  21.255  0.00  0.00    +0.000 C 
ATOM     22  C   UNL     1       2.319   3.797  21.517  0.00  0.00    +0.000 C 
ATOM     23  C   UNL     1       0.966   4.225  20.960  0.00  0.00    +0.000 C 
ATOM     24  C   UNL     1       0.794   3.841  19.492  0.00  0.00    +0.000 C 
ATOM     25  C   UNL     1       1.108   2.365  19.237  0.00  0.00    +0.000 C 
ENDBRANCH  18  20
ENDBRANCH  15  17
ENDBRANCH   1  15
BRANCH   1  26
ATOM     26  C   UNL     1       4.358   5.763  18.176  0.00  0.00    +0.000 C 
BRANCH  26  27
ATOM     27  C   UNL     1       3.339   6.862  18.418  0.00  0.00    +0.000 A 
ATOM     28  C   UNL     1       3.068   7.844  17.454  0.00  0.00    +0.000 A 
ATOM     29  C   UNL     1       2.140   8.859  17.714  0.00  0.00    +0.000 A 
ATOM     30  C   UNL     1       1.471   8.905  18.938  0.00  0.00    +0.000 A 
ATOM     31  C   UNL     1       1.728   7.935  19.902  0.00  0.00    +0.000 A 
ATOM     32  C   UNL     1       2.650   6.920  19.643  0.00  0.00    +0.000 A 
ENDBRANCH  26  27
ENDBRANCH   1  26
TORSDOF 8
ENDMDL
MODEL 8
REMARK VINA RESULT:      -7.5      4.160      6.795
REMARK  Name = 
REMARK  8 active torsions:
REMARK  status: ('A' for Active; 'I' for Inactive)
REMARK    1  A    between atoms: C_2  and  C_3
REMARK    2  A    between atoms: C_3  and  N_4
REMARK    3  A    between atoms: N_4  and  C_5
REMARK    4  A    between atoms: N_4  and  S_12
REMARK    5  A    between atoms: C_5  and  C_6
REMARK    6  A    between atoms: S_12  and  C_15
REMARK    7  A    between atoms: C_19  and  C_20
REMARK    8  A    between atoms: N_25  and  C_26
REMARK                            x       y       z     vdW  Elec       q    Type
REMARK                         _______ _______ _______ _____ _____    ______ ____
ROOT
ATOM      1  N   UNL     1       6.232   6.782  17.774  0.00  0.00    +0.000 NA
ENDROOT
BRANCH   1   2
ATOM      2  S   UNL     1       6.851   5.142  17.666  0.00  0.00    +0.000 S 
ATOM      3  O   UNL     1       7.391   4.875  16.357  0.00  0.00    +0.000 OA
ATOM      4  O   UNL     1       7.642   4.892  18.856  0.00  0.00    +0.000 OA
BRANCH   2   5
ATOM      5  C   UNL     1       5.384   4.134  17.765  0.00  0.00    +0.000 A 
ATOM      6  C   UNL     1       4.664   3.830  16.607  0.00  0.00    +0.000 A 
ATOM      7  C   UNL     1       3.426   3.198  16.715  0.00  0.00    +0.000 A 
ATOM      8  C   UNL     1       2.910   2.869  17.973  0.00  0.00    +0.000 A 
ATOM      9  C   UNL     1       3.626   3.170  19.143  0.00  0.00    +0.000 A 
ATOM     10  C   UNL     1       4.867   3.821  19.030  0.00  0.00    +0.000 A 
BRANCH   9  11
ATOM     11  C   UNL     1       3.075   2.822  20.504  0.00  0.00    +0.000 C 
ATOM     12  F   UNL     1       3.946   2.124  21.283  0.00  0.00    +0.000 F 
ATOM     13  F   UNL     1       2.749   3.932  21.223  0.00  0.00    +0.000 F 
ATOM     14  F   UNL     1       1.944   2.069  20.440  0.00  0.00    +0.000 F 
ENDBRANCH   9  11
ENDBRANCH   2   5
ENDBRANCH   1   2
BRANCH   1  15
ATOM     15  C   UNL     1       7.295   7.747  17.290  0.00  0.00    +0.000 C 
BRANCH  15  17
ATOM     16  O   UNL     1       8.807   7.843  19.132  0.00  0.00    +0.000 OA
ATOM     17  C   UNL     1       8.248   8.466  18.231  0.00  0.00    +0.000 C 
ATOM     18  N   UNL     1       8.383   9.828  18.079  0.00  0.00    +0.000 N 
ATOM     19  H   UNL     1       7.662  10.283  17.530  0.00  0.00    +0.000 HD
BRANCH  18  20
ATOM     20  C   UNL     1       9.127  10.658  19.046  0.00  0.00    +0.000 C 
ATOM     21  C   UNL     1      10.628  10.812  18.728  0.00  0.00    +0.000 C 
ATOM     22  C   UNL     1      10.858  11.570  17.424  0.00  0.00    +0.000 C 
ATOM     23  C   UNL     1      10.197  12.945  17.462  0.00  0.00    +0.000 C 
ATOM     24  C   UNL     1       8.723  12.868  17.855  0.00  0.00    +0.000 C 
ATOM     25  C   UNL     1       8.504  12.061  19.136  0.00  0.00    +0.000 C 
ENDBRANCH  18  20
ENDBRANCH  15  17
ENDBRANCH   1  15
BRANCH   1  26
ATOM     26  C   UNL     1       4.958   6.958  16.992  0.00  0.00    +0.000 C 
BRANCH  26  27
ATOM     27  C   UNL     1       3.749   7.435  17.776  0.00  0.00    +0.000 A 
ATOM     28  C   UNL     1       3.027   8.577  17.399  0.00  0.00    +0.000 A 
ATOM     29  C   UNL     1       1.929   9.006  18.156  0.00  0.00    +0.000 A 
ATOM     30  C   UNL     1       1.539   8.300  19.294  0.00  0.00    +0.000 A 
ATOM     31  C   UNL     1       2.244   7.163  19.677  0.00  0.00    +0.000 A 
ATOM     32  C   UNL     1       3.336   6.732  18.922  0.00  0.00    +0.000 A 
ENDBRANCH  26  27
ENDBRANCH   1  26
TORSDOF 8
ENDMDL
MODEL 9
REMARK VINA RESULT:      -7.4      4.385      7.509
REMARK  Name = 
REMARK  8 active torsions:
REMARK  status: ('A' for Active; 'I' for Inactive)
REMARK    1  A    between atoms: C_2  and  C_3
REMARK    2  A    between atoms: C_3  and  N_4
REMARK    3  A    between atoms: N_4  and  C_5
REMARK    4  A    between atoms: N_4  and  S_12
REMARK    5  A    between atoms: C_5  and  C_6
REMARK    6  A    between atoms: S_12  and  C_15
REMARK    7  A    between atoms: C_19  and  C_20
REMARK    8  A    between atoms: N_25  and  C_26
REMARK                            x       y       z     vdW  Elec       q    Type
REMARK                         _______ _______ _______ _____ _____    ______ ____
ROOT
ATOM      1  N   UNL     1       3.518   6.184  17.915  0.00  0.00    +0.000 NA
ENDROOT
BRANCH   1   2
ATOM      2  S   UNL     1       4.717   6.078  16.637  0.00  0.00    +0.000 S 
ATOM      3  O   UNL     1       4.836   4.728  16.147  0.00  0.00    +0.000 OA
ATOM      4  O   UNL     1       4.480   7.176  15.720  0.00  0.00    +0.000 OA
BRANCH   2   5
ATOM      5  C   UNL     1       6.255   6.392  17.479  0.00  0.00    +0.000 A 
ATOM      6  C   UNL     1       6.804   5.422  18.321  0.00  0.00    +0.000 A 
ATOM      7  C   UNL     1       7.907   5.743  19.112  0.00  0.00    +0.000 A 
ATOM      8  C   UNL     1       8.459   7.027  19.062  0.00  0.00    +0.000 A 
ATOM      9  C   UNL     1       7.915   8.010  18.219  0.00  0.00    +0.000 A 
ATOM     10  C   UNL     1       6.795   7.686  17.434  0.00  0.00    +0.000 A 
BRANCH   9  11
ATOM     11  C   UNL     1       8.504   9.399  18.162  0.00  0.00    +0.000 C 
ATOM     12  F   UNL     1       7.585  10.369  17.902  0.00  0.00    +0.000 F 
ATOM     13  F   UNL     1       9.090   9.755  19.339  0.00  0.00    +0.000 F 
ATOM     14  F   UNL     1       9.465   9.527  17.209  0.00  0.00    +0.000 F 
ENDBRANCH   9  11
ENDBRANCH   2   5
ENDBRANCH   1   2
BRANCH   1  15
ATOM     15  C   UNL     1       2.775   7.498  17.793  0.00  0.00    +0.000 C 
BRANCH  15  17
ATOM     16  O   UNL     1       2.128   7.656  20.082  0.00  0.00    +0.000 OA
ATOM     17  C   UNL     1       2.127   8.195  18.977  0.00  0.00    +0.000 C 
ATOM     18  N   UNL     1       1.482   9.389  18.738  0.00  0.00    +0.000 N 
ATOM     19  H   UNL     1       1.271   9.587  17.766  0.00  0.00    +0.000 HD
BRANCH  18  20
ATOM     20  C   UNL     1       0.659  10.059  19.762  0.00  0.00    +0.000 C 
ATOM     21  C   UNL     1       1.048  11.527  20.029  0.00  0.00    +0.000 C 
ATOM     22  C   UNL     1       0.807  12.410  18.809  0.00  0.00    +0.000 C 
ATOM     23  C   UNL     1      -0.648  12.338  18.356  0.00  0.00    +0.000 C 
ATOM     24  C   UNL     1      -1.123  10.900  18.155  0.00  0.00    +0.000 C 
ATOM     25  C   UNL     1      -0.827  10.015  19.367  0.00  0.00    +0.000 C 
ENDBRANCH  18  20
ENDBRANCH  15  17
ENDBRANCH   1  15
BRANCH   1  26
ATOM     26  C   UNL     1       2.557   5.026  17.888  0.00  0.00    +0.000 C 
BRANCH  26  27
ATOM     27  C   UNL     1       2.490   4.178  19.146  0.00  0.00    +0.000 A 
ATOM     28  C   UNL     1       3.581   3.412  19.580  0.00  0.00    +0.000 A 
ATOM     29  C   UNL     1       3.482   2.621  20.731  0.00  0.00    +0.000 A 
ATOM     30  C   UNL     1       2.294   2.587  21.462  0.00  0.00    +0.000 A 
ATOM     31  C   UNL     1       1.204   3.345  21.044  0.00  0.00    +0.000 A 
ATOM     32  C   UNL     1       1.303   4.137  19.899  0.00  0.00    +0.000 A 
ENDBRANCH  26  27
ENDBRANCH   1  26
TORSDOF 8
ENDMDL
