MODEL 1
REMARK VINA RESULT:      -7.3      0.000      0.000
REMARK  Name = 
REMARK  7 active torsions:
REMARK  status: ('A' for Active; 'I' for Inactive)
REMARK    1  A    between atoms: C_1  and  N_2
REMARK    2  A    between atoms: N_2  and  C_3
REMARK    3  A    between atoms: C_3  and  C_4
REMARK    4  A    between atoms: C_4  and  C_5
REMARK    5  A    between atoms: C_5  and  C_6
REMARK    6  A    between atoms: C_6  and  C_7
REMARK    7  A    between atoms: C_6  and  C_12
REMARK                            x       y       z     vdW  Elec       q    Type
REMARK                         _______ _______ _______ _____ _____    ______ ____
ROOT
ATOM      1  C   UNL     1       3.366   5.425  17.792  0.00  0.00    +0.000 C 
ENDROOT
BRANCH   1   2
ATOM      2  C   UNL     1       4.889   5.425  17.871  0.00  0.00    +0.000 A 
ATOM      3  C   UNL     1       5.566   5.533  19.113  0.00  0.00    +0.000 A 
ATOM      4  C   UNL     1       6.967   5.408  19.193  0.00  0.00    +0.000 A 
ATOM      5  C   UNL     1       7.728   5.167  18.042  0.00  0.00    +0.000 A 
ATOM      6  C   UNL     1       7.057   5.070  16.827  0.00  0.00    +0.000 A 
ATOM      7  N   UNL     1       7.604   4.824  15.624  0.00  0.00    +0.000 N 
ATOM      8  C   UNL     1       6.579   4.798  14.744  0.00  0.00    +0.000 A 
ATOM      9  C   UNL     1       5.375   5.026  15.395  0.00  0.00    +0.000 A 
ATOM     10  C   UNL     1       5.692   5.197  16.735  0.00  0.00    +0.000 A 
ATOM     11  H   UNL     1       8.614   4.674  15.411  0.00  0.00    +0.000 HD
ENDBRANCH   1   2
BRANCH   1  12
ATOM     12  C   UNL     1       2.672   6.632  18.400  0.00  0.00    +0.000 A 
ATOM     13  C   UNL     1       2.399   7.861  17.802  0.00  0.00    +0.000 A 
ATOM     14  C   UNL     1       1.809   8.791  18.672  0.00  0.00    +0.000 A 
ATOM     15  C   UNL     1       1.617   8.305  19.958  0.00  0.00    +0.000 A 
ATOM     16  S   UNL     1       2.176   6.720  20.009  0.00  0.00    +0.000 S 
ENDBRANCH   1  12
BRANCH   1  17
ATOM     17  C   UNL     1       2.874   4.106  18.434  0.00  0.00    +0.000 C 
BRANCH  17  18
ATOM     18  C   UNL     1       1.445   3.685  18.061  0.00  0.00    +0.000 C 
BRANCH  18  19
ATOM     19  C   UNL     1       0.796   2.684  19.035  0.00  0.00    +0.000 C 
BRANCH  19  21
ATOM     20  C   UNL     1       1.395   2.734  21.371  0.00  0.00    +0.000 C 
ATOM     21  N   UNL     1       0.522   3.300  20.342  0.00  0.00    +0.000 NA
ATOM     22  H   UNL     1       0.738   4.322  20.301  0.00  0.00    +0.000 HD
ENDBRANCH  19  21
ENDBRANCH  18  19
ENDBRANCH  17  18
ENDBRANCH   1  17
TORSDOF 6
ENDMDL
MODEL 2
REMARK VINA RESULT:      -7.0      2.125      4.401
REMARK  Name = 
REMARK  7 active torsions:
REMARK  status: ('A' for Active; 'I' for Inactive)
REMARK    1  A    between atoms: C_1  and  N_2
REMARK    2  A    between atoms: N_2  and  C_3
REMARK    3  A    between atoms: C_3  and  C_4
REMARK    4  A    between atoms: C_4  and  C_5
REMARK    5  A    between atoms: C_5  and  C_6
REMARK    6  A    between atoms: C_6  and  C_7
REMARK    7  A    between atoms: C_6  and  C_12
REMARK                            x       y       z     vdW  Elec       q    Type
REMARK                         _______ _______ _______ _____ _____    ______ ____
ROOT
ATOM      1  C   UNL     1       3.308   5.534  18.681  0.00  0.00    +0.000 C 
ENDROOT
BRANCH   1   2
ATOM      2  C   UNL     1       4.424   5.002  17.789  0.00  0.00    +0.000 A 
ATOM      3  C   UNL     1       4.159   4.509  16.486  0.00  0.00    +0.000 A 
ATOM      4  C   UNL     1       5.206   4.135  15.620  0.00  0.00    +0.000 A 
ATOM      5  C   UNL     1       6.542   4.248  16.028  0.00  0.00    +0.000 A 
ATOM      6  C   UNL     1       6.793   4.725  17.309  0.00  0.00    +0.000 A 
ATOM      7  N   UNL     1       7.997   4.922  17.872  0.00  0.00    +0.000 N 
ATOM      8  C   UNL     1       7.759   5.412  19.109  0.00  0.00    +0.000 A 
ATOM      9  C   UNL     1       6.394   5.528  19.329  0.00  0.00    +0.000 A 
ATOM     10  C   UNL     1       5.781   5.087  18.165  0.00  0.00    +0.000 A 
ATOM     11  H   UNL     1       8.930   4.743  17.441  0.00  0.00    +0.000 HD
ENDBRANCH   1   2
BRANCH   1  12
ATOM     12  C   UNL     1       2.449   4.484  19.363  0.00  0.00    +0.000 A 
ATOM     13  C   UNL     1       1.557   3.587  18.777  0.00  0.00    +0.000 A 
ATOM     14  C   UNL     1       0.862   2.797  19.706  0.00  0.00    +0.000 A 
ATOM     15  C   UNL     1       1.198   3.065  21.025  0.00  0.00    +0.000 A 
ATOM     16  S   UNL     1       2.360   4.280  21.034  0.00  0.00    +0.000 S 
ENDBRANCH   1  12
BRANCH   1  17
ATOM     17  C   UNL     1       2.452   6.493  17.821  0.00  0.00    +0.000 C 
BRANCH  17  18
ATOM     18  C   UNL     1       2.847   7.977  17.898  0.00  0.00    +0.000 C 
BRANCH  18  19
ATOM     19  C   UNL     1       1.658   8.954  17.949  0.00  0.00    +0.000 C 
BRANCH  19  21
ATOM     20  C   UNL     1       1.583  11.277  18.594  0.00  0.00    +0.000 C 
ATOM     21  N   UNL     1       2.065  10.322  17.596  0.00  0.00    +0.000 NA
ATOM     22  H   UNL     1       3.108  10.390  17.601  0.00  0.00    +0.000 HD
ENDBRANCH  19  21
ENDBRANCH  18  19
ENDBRANCH  17  18
ENDBRANCH   1  17
TORSDOF 6
ENDMDL
MODEL 3
REMARK VINA RESULT:      -7.0      1.130      5.276
REMARK  Name = 
REMARK  7 active torsions:
REMARK  status: ('A' for Active; 'I' for Inactive)
REMARK    1  A    between atoms: C_1  and  N_2
REMARK    2  A    between atoms: N_2  and  C_3
REMARK    3  A    between atoms: C_3  and  C_4
REMARK    4  A    between atoms: C_4  and  C_5
REMARK    5  A    between atoms: C_5  and  C_6
REMARK    6  A    between atoms: C_6  and  C_7
REMARK    7  A    between atoms: C_6  and  C_12
REMARK                            x       y       z     vdW  Elec       q    Type
REMARK                         _______ _______ _______ _____ _____    ______ ____
ROOT
ATOM      1  C   UNL     1       3.602   6.190  18.813  0.00  0.00    +0.000 C 
ENDROOT
BRANCH   1   2
ATOM      2  C   UNL     1       2.939   4.826  18.650  0.00  0.00    +0.000 A 
ATOM      3  C   UNL     1       2.893   4.171  17.393  0.00  0.00    +0.000 A 
ATOM      4  C   UNL     1       2.391   2.859  17.272  0.00  0.00    +0.000 A 
ATOM      5  C   UNL     1       1.927   2.168  18.399  0.00  0.00    +0.000 A 
ATOM      6  C   UNL     1       1.968   2.821  19.626  0.00  0.00    +0.000 A 
ATOM      7  N   UNL     1       1.591   2.321  20.815  0.00  0.00    +0.000 N 
ATOM      8  C   UNL     1       1.827   3.294  21.723  0.00  0.00    +0.000 A 
ATOM      9  C   UNL     1       2.359   4.416  21.104  0.00  0.00    +0.000 A 
ATOM     10  C   UNL     1       2.450   4.101  19.756  0.00  0.00    +0.000 A 
ATOM     11  H   UNL     1       1.203   1.371  21.004  0.00  0.00    +0.000 HD
ENDBRANCH   1   2
BRANCH   1  12
ATOM     12  C   UNL     1       2.675   7.390  18.735  0.00  0.00    +0.000 A 
ATOM     13  C   UNL     1       2.433   8.222  17.642  0.00  0.00    +0.000 A 
ATOM     14  C   UNL     1       1.572   9.292  17.931  0.00  0.00    +0.000 A 
ATOM     15  C   UNL     1       1.132   9.313  19.247  0.00  0.00    +0.000 A 
ATOM     16  S   UNL     1       1.811   8.000  20.048  0.00  0.00    +0.000 S 
ENDBRANCH   1  12
BRANCH   1  17
ATOM     17  C   UNL     1       4.732   6.278  17.760  0.00  0.00    +0.000 C 
BRANCH  17  18
ATOM     18  C   UNL     1       6.122   5.840  18.247  0.00  0.00    +0.000 C 
BRANCH  18  19
ATOM     19  C   UNL     1       6.701   4.614  17.517  0.00  0.00    +0.000 C 
BRANCH  19  21
ATOM     20  C   UNL     1       6.788   4.488  15.110  0.00  0.00    +0.000 C 
ATOM     21  N   UNL     1       7.446   5.004  16.310  0.00  0.00    +0.000 NA
ATOM     22  H   UNL     1       7.449   6.046  16.221  0.00  0.00    +0.000 HD
ENDBRANCH  19  21
ENDBRANCH  18  19
ENDBRANCH  17  18
ENDBRANCH   1  17
TORSDOF 6
ENDMDL
MODEL 4
REMARK VINA RESULT:      -7.0      1.236      1.251
REMARK  Name = 
REMARK  7 active torsions:
REMARK  status: ('A' for Active; 'I' for Inactive)
REMARK    1  A    between atoms: C_1  and  N_2
REMARK    2  A    between atoms: N_2  and  C_3
REMARK    3  A    between atoms: C_3  and  C_4
REMARK    4  A    between atoms: C_4  and  C_5
REMARK    5  A    between atoms: C_5  and  C_6
REMARK    6  A    between atoms: C_6  and  C_7
REMARK    7  A    between atoms: C_6  and  C_12
REMARK                            x       y       z     vdW  Elec       q    Type
REMARK                         _______ _______ _______ _____ _____    ______ ____
ROOT
ATOM      1  C   UNL     1       3.220   5.749  17.619  0.00  0.00    +0.000 C 
ENDROOT
BRANCH   1   2
ATOM      2  C   UNL     1       4.726   5.604  17.818  0.00  0.00    +0.000 A 
ATOM      3  C   UNL     1       5.304   5.590  19.113  0.00  0.00    +0.000 A 
ATOM      4  C   UNL     1       6.677   5.332  19.296  0.00  0.00    +0.000 A 
ATOM      5  C   UNL     1       7.506   5.077  18.196  0.00  0.00    +0.000 A 
ATOM      6  C   UNL     1       6.933   5.100  16.929  0.00  0.00    +0.000 A 
ATOM      7  N   UNL     1       7.554   4.861  15.761  0.00  0.00    +0.000 N 
ATOM      8  C   UNL     1       6.608   4.971  14.803  0.00  0.00    +0.000 A 
ATOM      9  C   UNL     1       5.378   5.279  15.369  0.00  0.00    +0.000 A 
ATOM     10  C   UNL     1       5.597   5.356  16.737  0.00  0.00    +0.000 A 
ATOM     11  H   UNL     1       8.561   4.629  15.620  0.00  0.00    +0.000 HD
ENDBRANCH   1   2
BRANCH   1  12
ATOM     12  C   UNL     1       2.593   7.000  18.208  0.00  0.00    +0.000 A 
ATOM     13  C   UNL     1       2.423   8.245  17.604  0.00  0.00    +0.000 A 
ATOM     14  C   UNL     1       1.872   9.213  18.458  0.00  0.00    +0.000 A 
ATOM     15  C   UNL     1       1.609   8.742  19.736  0.00  0.00    +0.000 A 
ATOM     16  S   UNL     1       2.055   7.123  19.802  0.00  0.00    +0.000 S 
ENDBRANCH   1  12
BRANCH   1  17
ATOM     17  C   UNL     1       2.560   4.467  18.180  0.00  0.00    +0.000 C 
BRANCH  17  18
ATOM     18  C   UNL     1       2.814   3.187  17.368  0.00  0.00    +0.000 C 
BRANCH  18  19
ATOM     19  C   UNL     1       3.086   1.932  18.219  0.00  0.00    +0.000 C 
BRANCH  19  21
ATOM     20  C   UNL     1       4.524   2.091  20.148  0.00  0.00    +0.000 C 
ATOM     21  N   UNL     1       3.158   2.254  19.652  0.00  0.00    +0.000 NA
ATOM     22  H   UNL     1       2.907   3.258  19.799  0.00  0.00    +0.000 HD
ENDBRANCH  19  21
ENDBRANCH  18  19
ENDBRANCH  17  18
ENDBRANCH   1  17
TORSDOF 6
ENDMDL
MODEL 5
REMARK VINA RESULT:      -6.9      2.468      5.447
REMARK  Name = 
REMARK  7 active torsions:
REMARK  status: ('A' for Active; 'I' for Inactive)
REMARK    1  A    between atoms: C_1  and  N_2
REMARK    2  A    between atoms: N_2  and  C_3
REMARK    3  A    between atoms: C_3  and  C_4
REMARK    4  A    between atoms: C_4  and  C_5
REMARK    5  A    between atoms: C_5  and  C_6
REMARK    6  A    between atoms: C_6  and  C_7
REMARK    7  A    between atoms: C_6  and  C_12
REMARK                            x       y       z     vdW  Elec       q    Type
REMARK                         _______ _______ _______ _____ _____    ______ ____
ROOT
ATOM      1  C   UNL     1       3.351   6.114  18.179  0.00  0.00    +0.000 C 
ENDROOT
BRANCH   1   2
ATOM      2  C   UNL     1       2.636   5.023  18.969  0.00  0.00    +0.000 A 
ATOM      3  C   UNL     1       1.793   5.334  20.066  0.00  0.00    +0.000 A 
ATOM      4  C   UNL     1       1.038   4.336  20.713  0.00  0.00    +0.000 A 
ATOM      5  C   UNL     1       1.100   3.005  20.281  0.00  0.00    +0.000 A 
ATOM      6  C   UNL     1       1.935   2.706  19.209  0.00  0.00    +0.000 A 
ATOM      7  N   UNL     1       2.113   1.502  18.640  0.00  0.00    +0.000 N 
ATOM      8  C   UNL     1       2.989   1.690  17.629  0.00  0.00    +0.000 A 
ATOM      9  C   UNL     1       3.366   3.023  17.556  0.00  0.00    +0.000 A 
ATOM     10  C   UNL     1       2.680   3.670  18.574  0.00  0.00    +0.000 A 
ATOM     11  H   UNL     1       1.660   0.603  18.915  0.00  0.00    +0.000 HD
ENDBRANCH   1   2
BRANCH   1  12
ATOM     12  C   UNL     1       4.868   6.050  18.187  0.00  0.00    +0.000 A 
ATOM     13  C   UNL     1       5.703   5.524  19.172  0.00  0.00    +0.000 A 
ATOM     14  C   UNL     1       7.069   5.692  18.900  0.00  0.00    +0.000 A 
ATOM     15  C   UNL     1       7.321   6.352  17.705  0.00  0.00    +0.000 A 
ATOM     16  S   UNL     1       5.845   6.720  16.988  0.00  0.00    +0.000 S 
ENDBRANCH   1  12
BRANCH   1  17
ATOM     17  C   UNL     1       2.839   7.474  18.711  0.00  0.00    +0.000 C 
BRANCH  17  18
ATOM     18  C   UNL     1       2.335   8.452  17.639  0.00  0.00    +0.000 C 
BRANCH  18  19
ATOM     19  C   UNL     1       1.669   9.725  18.196  0.00  0.00    +0.000 C 
BRANCH  19  21
ATOM     20  C   UNL     1      -0.503  10.616  18.750  0.00  0.00    +0.000 C 
ATOM     21  N   UNL     1       0.260   9.823  17.786  0.00  0.00    +0.000 NA
ATOM     22  H   UNL     1       0.195  10.325  16.871  0.00  0.00    +0.000 HD
ENDBRANCH  19  21
ENDBRANCH  18  19
ENDBRANCH  17  18
ENDBRANCH   1  17
TORSDOF 6
ENDMDL
MODEL 6
REMARK VINA RESULT:      -6.9      1.521      5.135
REMARK  Name = 
REMARK  7 active torsions:
REMARK  status: ('A' for Active; 'I' for Inactive)
REMARK    1  A    between atoms: C_1  and  N_2
REMARK    2  A    between atoms: N_2  and  C_3
REMARK    3  A    between atoms: C_3  and  C_4
REMARK    4  A    between atoms: C_4  and  C_5
REMARK    5  A    between atoms: C_5  and  C_6
REMARK    6  A    between atoms: C_6  and  C_7
REMARK    7  A    between atoms: C_6  and  C_12
REMARK                            x       y       z     vdW  Elec       q    Type
REMARK                         _______ _______ _______ _____ _____    ______ ____
ROOT
ATOM      1  C   UNL     1       3.451   6.320  18.643  0.00  0.00    +0.000 C 
ENDROOT
BRANCH   1   2
ATOM      2  C   UNL     1       2.812   4.938  18.559  0.00  0.00    +0.000 A 
ATOM      3  C   UNL     1       2.702   4.247  17.325  0.00  0.00    +0.000 A 
ATOM      4  C   UNL     1       2.225   2.922  17.271  0.00  0.00    +0.000 A 
ATOM      5  C   UNL     1       1.853   2.251  18.443  0.00  0.00    +0.000 A 
ATOM      6  C   UNL     1       1.957   2.938  19.648  0.00  0.00    +0.000 A 
ATOM      7  N   UNL     1       1.670   2.463  20.872  0.00  0.00    +0.000 N 
ATOM      8  C   UNL     1       1.939   3.465  21.737  0.00  0.00    +0.000 A 
ATOM      9  C   UNL     1       2.403   4.582  21.055  0.00  0.00    +0.000 A 
ATOM     10  C   UNL     1       2.414   4.232  19.713  0.00  0.00    +0.000 A 
ATOM     11  H   UNL     1       1.319   1.510  21.110  0.00  0.00    +0.000 HD
ENDBRANCH   1   2
BRANCH   1  12
ATOM     12  C   UNL     1       2.486   7.490  18.734  0.00  0.00    +0.000 A 
ATOM     13  C   UNL     1       2.096   8.366  17.721  0.00  0.00    +0.000 A 
ATOM     14  C   UNL     1       1.243   9.390  18.162  0.00  0.00    +0.000 A 
ATOM     15  C   UNL     1       0.958   9.330  19.518  0.00  0.00    +0.000 A 
ATOM     16  S   UNL     1       1.762   8.004  20.166  0.00  0.00    +0.000 S 
ENDBRANCH   1  12
BRANCH   1  17
ATOM     17  C   UNL     1       4.398   6.461  17.428  0.00  0.00    +0.000 C 
BRANCH  17  18
ATOM     18  C   UNL     1       5.892   6.270  17.732  0.00  0.00    +0.000 C 
BRANCH  18  19
ATOM     19  C   UNL     1       6.373   4.807  17.690  0.00  0.00    +0.000 C 
BRANCH  19  21
ATOM     20  C   UNL     1       7.918   5.700  19.312  0.00  0.00    +0.000 C 
ATOM     21  N   UNL     1       7.695   4.653  18.314  0.00  0.00    +0.000 NA
ATOM     22  H   UNL     1       7.738   3.743  18.826  0.00  0.00    +0.000 HD
ENDBRANCH  19  21
ENDBRANCH  18  19
ENDBRANCH  17  18
ENDBRANCH   1  17
TORSDOF 6
ENDMDL
MODEL 7
REMARK VINA RESULT:      -6.9      2.328      5.420
REMARK  Name = 
REMARK  7 active torsions:
REMARK  status: ('A' for Active; 'I' for Inactive)
REMARK    1  A    between atoms: C_1  and  N_2
REMARK    2  A    between atoms: N_2  and  C_3
REMARK    3  A    between atoms: C_3  and  C_4
REMARK    4  A    between atoms: C_4  and  C_5
REMARK    5  A    between atoms: C_5  and  C_6
REMARK    6  A    between atoms: C_6  and  C_7
REMARK    7  A    between atoms: C_6  and  C_12
REMARK                            x       y       z     vdW  Elec       q    Type
REMARK                         _______ _______ _______ _____ _____    ______ ____
ROOT
ATOM      1  C   UNL     1       3.389   6.271  17.782  0.00  0.00    +0.000 C 
ENDROOT
BRANCH   1   2
ATOM      2  C   UNL     1       2.705   5.328  18.766  0.00  0.00    +0.000 A 
ATOM      3  C   UNL     1       2.142   5.804  19.978  0.00  0.00    +0.000 A 
ATOM      4  C   UNL     1       1.404   4.952  20.824  0.00  0.00    +0.000 A 
ATOM      5  C   UNL     1       1.205   3.608  20.482  0.00  0.00    +0.000 A 
ATOM      6  C   UNL     1       1.767   3.147  19.296  0.00  0.00    +0.000 A 
ATOM      7  N   UNL     1       1.671   1.906  18.790  0.00  0.00    +0.000 N 
ATOM      8  C   UNL     1       2.350   1.923  17.621  0.00  0.00    +0.000 A 
ATOM      9  C   UNL     1       2.877   3.185  17.386  0.00  0.00    +0.000 A 
ATOM     10  C   UNL     1       2.494   3.967  18.466  0.00  0.00    +0.000 A 
ATOM     11  H   UNL     1       1.168   1.094  19.207  0.00  0.00    +0.000 HD
ENDBRANCH   1   2
BRANCH   1  12
ATOM     12  C   UNL     1       4.877   6.045  17.574  0.00  0.00    +0.000 A 
ATOM     13  C   UNL     1       5.610   6.163  16.394  0.00  0.00    +0.000 A 
ATOM     14  C   UNL     1       6.960   5.808  16.534  0.00  0.00    +0.000 A 
ATOM     15  C   UNL     1       7.300   5.406  17.817  0.00  0.00    +0.000 A 
ATOM     16  S   UNL     1       5.922   5.497  18.778  0.00  0.00    +0.000 S 
ENDBRANCH   1  12
BRANCH   1  17
ATOM     17  C   UNL     1       3.096   7.715  18.253  0.00  0.00    +0.000 C 
BRANCH  17  18
ATOM     18  C   UNL     1       1.933   8.418  17.537  0.00  0.00    +0.000 C 
BRANCH  18  19
ATOM     19  C   UNL     1       1.491   9.745  18.182  0.00  0.00    +0.000 C 
BRANCH  19  21
ATOM     20  C   UNL     1      -0.670  10.326  19.081  0.00  0.00    +0.000 C 
ATOM     21  N   UNL     1       0.092  10.065  17.860  0.00  0.00    +0.000 NA
ATOM     22  H   UNL     1       0.054  10.942  17.293  0.00  0.00    +0.000 HD
ENDBRANCH  19  21
ENDBRANCH  18  19
ENDBRANCH  17  18
ENDBRANCH   1  17
TORSDOF 6
ENDMDL
MODEL 8
REMARK VINA RESULT:      -6.9      1.582      1.713
REMARK  Name = 
REMARK  7 active torsions:
REMARK  status: ('A' for Active; 'I' for Inactive)
REMARK    1  A    between atoms: C_1  and  N_2
REMARK    2  A    between atoms: N_2  and  C_3
REMARK    3  A    between atoms: C_3  and  C_4
REMARK    4  A    between atoms: C_4  and  C_5
REMARK    5  A    between atoms: C_5  and  C_6
REMARK    6  A    between atoms: C_6  and  C_7
REMARK    7  A    between atoms: C_6  and  C_12
REMARK                            x       y       z     vdW  Elec       q    Type
REMARK                         _______ _______ _______ _____ _____    ______ ____
ROOT
ATOM      1  C   UNL     1       3.227   5.947  17.645  0.00  0.00    +0.000 C 
ENDROOT
BRANCH   1   2
ATOM      2  C   UNL     1       4.724   5.728  17.835  0.00  0.00    +0.000 A 
ATOM      3  C   UNL     1       5.305   5.664  19.127  0.00  0.00    +0.000 A 
ATOM      4  C   UNL     1       6.665   5.337  19.300  0.00  0.00    +0.000 A 
ATOM      5  C   UNL     1       7.478   5.061  18.193  0.00  0.00    +0.000 A 
ATOM      6  C   UNL     1       6.902   5.134  16.929  0.00  0.00    +0.000 A 
ATOM      7  N   UNL     1       7.507   4.886  15.754  0.00  0.00    +0.000 N 
ATOM      8  C   UNL     1       6.564   5.058  14.802  0.00  0.00    +0.000 A 
ATOM      9  C   UNL     1       5.353   5.414  15.378  0.00  0.00    +0.000 A 
ATOM     10  C   UNL     1       5.579   5.457  16.746  0.00  0.00    +0.000 A 
ATOM     11  H   UNL     1       8.502   4.609  15.605  0.00  0.00    +0.000 HD
ENDBRANCH   1   2
BRANCH   1  12
ATOM     12  C   UNL     1       2.616   7.076  18.457  0.00  0.00    +0.000 A 
ATOM     13  C   UNL     1       2.258   7.072  19.805  0.00  0.00    +0.000 A 
ATOM     14  C   UNL     1       1.645   8.262  20.226  0.00  0.00    +0.000 A 
ATOM     15  C   UNL     1       1.512   9.207  19.219  0.00  0.00    +0.000 A 
ATOM     16  S   UNL     1       2.162   8.564  17.807  0.00  0.00    +0.000 S 
ENDBRANCH   1  12
BRANCH   1  17
ATOM     17  C   UNL     1       2.526   4.599  17.934  0.00  0.00    +0.000 C 
BRANCH  17  18
ATOM     18  C   UNL     1       3.132   3.377  17.226  0.00  0.00    +0.000 C 
BRANCH  18  19
ATOM     19  C   UNL     1       2.772   2.022  17.865  0.00  0.00    +0.000 C 
BRANCH  19  21
ATOM     20  C   UNL     1       4.334   2.148  19.698  0.00  0.00    +0.000 C 
ATOM     21  N   UNL     1       3.940   1.398  18.505  0.00  0.00    +0.000 NA
ATOM     22  H   UNL     1       3.690   0.436  18.829  0.00  0.00    +0.000 HD
ENDBRANCH  19  21
ENDBRANCH  18  19
ENDBRANCH  17  18
ENDBRANCH   1  17
TORSDOF 6
ENDMDL
MODEL 9
REMARK VINA RESULT:      -6.9      2.628      5.696
REMARK  Name = 
REMARK  7 active torsions:
REMARK  status: ('A' for Active; 'I' for Inactive)
REMARK    1  A    between atoms: C_1  and  N_2
REMARK    2  A    between atoms: N_2  and  C_3
REMARK    3  A    between atoms: C_3  and  C_4
REMARK    4  A    between atoms: C_4  and  C_5
REMARK    5  A    between atoms: C_5  and  C_6
REMARK    6  A    between atoms: C_6  and  C_7
REMARK    7  A    between atoms: C_6  and  C_12
REMARK                            x       y       z     vdW  Elec       q    Type
REMARK                         _______ _______ _______ _____ _____    ______ ____
ROOT
ATOM      1  C   UNL     1       3.243   6.236  17.889  0.00  0.00    +0.000 C 
ENDROOT
BRANCH   1   2
ATOM      2  C   UNL     1       2.597   5.233  18.839  0.00  0.00    +0.000 A 
ATOM      3  C   UNL     1       1.986   5.647  20.050  0.00  0.00    +0.000 A 
ATOM      4  C   UNL     1       1.283   4.735  20.863  0.00  0.00    +0.000 A 
ATOM      5  C   UNL     1       1.168   3.390  20.487  0.00  0.00    +0.000 A 
ATOM      6  C   UNL     1       1.777   2.991  19.303  0.00  0.00    +0.000 A 
ATOM      7  N   UNL     1       1.761   1.758  18.767  0.00  0.00    +0.000 N 
ATOM      8  C   UNL     1       2.458   1.841  17.612  0.00  0.00    +0.000 A 
ATOM      9  C   UNL     1       2.915   3.137  17.415  0.00  0.00    +0.000 A 
ATOM     10  C   UNL     1       2.469   3.869  18.505  0.00  0.00    +0.000 A 
ATOM     11  H   UNL     1       1.297   0.909  19.157  0.00  0.00    +0.000 HD
ENDBRANCH   1   2
BRANCH   1  12
ATOM     12  C   UNL     1       4.726   6.041  17.630  0.00  0.00    +0.000 A 
ATOM     13  C   UNL     1       5.731   5.748  18.552  0.00  0.00    +0.000 A 
ATOM     14  C   UNL     1       7.016   5.709  17.990  0.00  0.00    +0.000 A 
ATOM     15  C   UNL     1       7.035   5.972  16.628  0.00  0.00    +0.000 A 
ATOM     16  S   UNL     1       5.454   6.249  16.124  0.00  0.00    +0.000 S 
ENDBRANCH   1  12
BRANCH   1  17
ATOM     17  C   UNL     1       2.946   7.649  18.445  0.00  0.00    +0.000 C 
BRANCH  17  18
ATOM     18  C   UNL     1       1.932   8.475  17.638  0.00  0.00    +0.000 C 
BRANCH  18  19
ATOM     19  C   UNL     1       1.557   9.827  18.272  0.00  0.00    +0.000 C 
BRANCH  19  21
ATOM     20  C   UNL     1       2.156  12.161  18.389  0.00  0.00    +0.000 C 
ATOM     21  N   UNL     1       2.192  10.951  17.567  0.00  0.00    +0.000 NA
ATOM     22  H   UNL     1       3.202  10.736  17.402  0.00  0.00    +0.000 HD
ENDBRANCH  19  21
ENDBRANCH  18  19
ENDBRANCH  17  18
ENDBRANCH   1  17
TORSDOF 6
ENDMDL
