MODEL 1
REMARK VINA RESULT:      -5.3      0.000      0.000
REMARK  Name = 
REMARK  12 active torsions:
REMARK  status: ('A' for Active; 'I' for Inactive)
REMARK    1  A    between atoms: C_1  and  C_2
REMARK    2  A    between atoms: C_2  and  C_3
REMARK    3  A    between atoms: C_3  and  C_4
REMARK    4  A    between atoms: C_4  and  C_5
REMARK    5  A    between atoms: C_5  and  C_6
REMARK    6  A    between atoms: C_6  and  C_7
REMARK    7  A    between atoms: C_7  and  O_8
REMARK    8  A    between atoms: C_7  and  C_9
REMARK    9  A    between atoms: C_9  and  C_10
REMARK   10  A    between atoms: C_10  and  O_11
REMARK   11  A    between atoms: O_11  and  C_12
REMARK   12  A    between atoms: C_12  and  C_13
REMARK                            x       y       z     vdW  Elec       q    Type
REMARK                         _______ _______ _______ _____ _____    ______ ____
ROOT
ATOM      1  C   UNL     1       5.345   5.155  18.748  0.00  0.00    +0.000 C 
ENDROOT
BRANCH   1   2
ATOM      2  O   UNL     1       6.568   4.569  19.196  0.00  0.00    +0.000 OA
ATOM      3  H   UNL     1       7.260   4.793  18.549  0.00  0.00    +0.000 HD
ENDBRANCH   1   2
BRANCH   1   4
ATOM      4  C   UNL     1       4.384   4.050  18.292  0.00  0.00    +0.000 C 
BRANCH   4   5
ATOM      5  C   UNL     1       2.917   4.459  18.429  0.00  0.00    +0.000 C 
BRANCH   5   6
ATOM      6  C   UNL     1       2.003   3.375  17.859  0.00  0.00    +0.000 C 
BRANCH   6   7
ATOM      7  C   UNL     1       0.969   2.933  18.889  0.00  0.00    +0.000 C 
BRANCH   7   9
ATOM      8  C   UNL     1       1.377   2.777  21.363  0.00  0.00    +0.000 C 
ATOM      9  C   UNL     1       1.118   3.713  20.194  0.00  0.00    +0.000 C 
ENDBRANCH   7   9
ENDBRANCH   6   7
ENDBRANCH   5   6
ENDBRANCH   4   5
ENDBRANCH   1   4
BRANCH   1  10
ATOM     10  C   UNL     1       5.673   6.155  17.638  0.00  0.00    +0.000 C 
BRANCH  10  11
ATOM     11  C   UNL     1       7.128   6.096  17.181  0.00  0.00    +0.000 C 
BRANCH  11  12
ATOM     12  O   UNL     1       7.395   4.845  16.527  0.00  0.00    +0.000 OA
BRANCH  12  13
ATOM     13  C   UNL     1       7.133   4.822  15.192  0.00  0.00    +0.000 C 
ATOM     14  C   UNL     1       6.058   3.829  14.880  0.00  0.00    +0.000 C 
ATOM     15  O   UNL     1       7.689   5.512  14.347  0.00  0.00    +0.000 OA
ENDBRANCH  12  13
ENDBRANCH  11  12
ENDBRANCH  10  11
ENDBRANCH   1  10
TORSDOF 10
ENDMDL
MODEL 2
REMARK VINA RESULT:      -5.2      1.892      2.830
REMARK  Name = 
REMARK  12 active torsions:
REMARK  status: ('A' for Active; 'I' for Inactive)
REMARK    1  A    between atoms: C_1  and  C_2
REMARK    2  A    between atoms: C_2  and  C_3
REMARK    3  A    between atoms: C_3  and  C_4
REMARK    4  A    between atoms: C_4  and  C_5
REMARK    5  A    between atoms: C_5  and  C_6
REMARK    6  A    between atoms: C_6  and  C_7
REMARK    7  A    between atoms: C_7  and  O_8
REMARK    8  A    between atoms: C_7  and  C_9
REMARK    9  A    between atoms: C_9  and  C_10
REMARK   10  A    between atoms: C_10  and  O_11
REMARK   11  A    between atoms: O_11  and  C_12
REMARK   12  A    between atoms: C_12  and  C_13
REMARK                            x       y       z     vdW  Elec       q    Type
REMARK                         _______ _______ _______ _____ _____    ______ ____
ROOT
ATOM      1  C   UNL     1       3.689   3.468  17.941  0.00  0.00    +0.000 C 
ENDROOT
BRANCH   1   2
ATOM      2  O   UNL     1       4.811   2.896  17.268  0.00  0.00    +0.000 OA
ATOM      3  H   UNL     1       5.611   3.126  17.774  0.00  0.00    +0.000 HD
ENDBRANCH   1   2
BRANCH   1   4
ATOM      4  C   UNL     1       2.420   2.690  17.574  0.00  0.00    +0.000 C 
BRANCH   4   5
ATOM      5  C   UNL     1       1.806   1.973  18.777  0.00  0.00    +0.000 C 
BRANCH   5   6
ATOM      6  C   UNL     1       0.892   2.919  19.555  0.00  0.00    +0.000 C 
BRANCH   6   7
ATOM      7  C   UNL     1       1.257   2.940  21.036  0.00  0.00    +0.000 C 
BRANCH   7   9
ATOM      8  C   UNL     1       1.765   5.366  20.623  0.00  0.00    +0.000 C 
ATOM      9  C   UNL     1       2.189   4.106  21.360  0.00  0.00    +0.000 C 
ENDBRANCH   7   9
ENDBRANCH   6   7
ENDBRANCH   5   6
ENDBRANCH   4   5
ENDBRANCH   1   4
BRANCH   1  10
ATOM     10  C   UNL     1       3.610   4.948  17.564  0.00  0.00    +0.000 C 
BRANCH  10  11
ATOM     11  C   UNL     1       4.975   5.583  17.313  0.00  0.00    +0.000 C 
BRANCH  11  12
ATOM     12  O   UNL     1       5.819   5.423  18.464  0.00  0.00    +0.000 OA
BRANCH  12  13
ATOM     13  C   UNL     1       7.155   5.432  18.207  0.00  0.00    +0.000 C 
ATOM     14  C   UNL     1       7.632   6.824  17.931  0.00  0.00    +0.000 C 
ATOM     15  O   UNL     1       7.884   4.449  18.199  0.00  0.00    +0.000 OA
ENDBRANCH  12  13
ENDBRANCH  11  12
ENDBRANCH  10  11
ENDBRANCH   1  10
TORSDOF 10
ENDMDL
MODEL 3
REMARK VINA RESULT:      -5.2      1.728      2.171
REMARK  Name = 
REMARK  12 active torsions:
REMARK  status: ('A' for Active; 'I' for Inactive)
REMARK    1  A    between atoms: C_1  and  C_2
REMARK    2  A    between atoms: C_2  and  C_3
REMARK    3  A    between atoms: C_3  and  C_4
REMARK    4  A    between atoms: C_4  and  C_5
REMARK    5  A    between atoms: C_5  and  C_6
REMARK    6  A    between atoms: C_6  and  C_7
REMARK    7  A    between atoms: C_7  and  O_8
REMARK    8  A    between atoms: C_7  and  C_9
REMARK    9  A    between atoms: C_9  and  C_10
REMARK   10  A    between atoms: C_10  and  O_11
REMARK   11  A    between atoms: O_11  and  C_12
REMARK   12  A    between atoms: C_12  and  C_13
REMARK                            x       y       z     vdW  Elec       q    Type
REMARK                         _______ _______ _______ _____ _____    ______ ____
ROOT
ATOM      1  C   UNL     1       4.748   4.187  19.173  0.00  0.00    +0.000 C 
ENDROOT
BRANCH   1   2
ATOM      2  O   UNL     1       5.048   2.843  19.553  0.00  0.00    +0.000 OA
ATOM      3  H   UNL     1       5.343   2.854  20.480  0.00  0.00    +0.000 HD
ENDBRANCH   1   2
BRANCH   1   4
ATOM      4  C   UNL     1       4.007   4.187  17.830  0.00  0.00    +0.000 C 
BRANCH   4   5
ATOM      5  C   UNL     1       2.621   4.824  17.929  0.00  0.00    +0.000 C 
BRANCH   5   6
ATOM      6  C   UNL     1       1.554   3.755  18.163  0.00  0.00    +0.000 C 
BRANCH   6   7
ATOM      7  C   UNL     1       1.023   3.814  19.591  0.00  0.00    +0.000 C 
BRANCH   7   9
ATOM      8  C   UNL     1       2.178   3.010  21.672  0.00  0.00    +0.000 C 
ATOM      9  C   UNL     1       1.462   2.594  20.398  0.00  0.00    +0.000 C 
ENDBRANCH   7   9
ENDBRANCH   6   7
ENDBRANCH   5   6
ENDBRANCH   4   5
ENDBRANCH   1   4
BRANCH   1  10
ATOM     10  C   UNL     1       6.059   4.974  19.130  0.00  0.00    +0.000 C 
BRANCH  10  11
ATOM     11  C   UNL     1       6.911   4.665  17.903  0.00  0.00    +0.000 C 
BRANCH  11  12
ATOM     12  O   UNL     1       7.775   5.774  17.605  0.00  0.00    +0.000 OA
BRANCH  12  13
ATOM     13  C   UNL     1       7.146   6.890  17.146  0.00  0.00    +0.000 C 
ATOM     14  C   UNL     1       7.769   8.124  17.721  0.00  0.00    +0.000 C 
ATOM     15  O   UNL     1       6.199   6.903  16.370  0.00  0.00    +0.000 OA
ENDBRANCH  12  13
ENDBRANCH  11  12
ENDBRANCH  10  11
ENDBRANCH   1  10
TORSDOF 10
ENDMDL
MODEL 4
REMARK VINA RESULT:      -5.2      1.036      1.393
REMARK  Name = 
REMARK  12 active torsions:
REMARK  status: ('A' for Active; 'I' for Inactive)
REMARK    1  A    between atoms: C_1  and  C_2
REMARK    2  A    between atoms: C_2  and  C_3
REMARK    3  A    between atoms: C_3  and  C_4
REMARK    4  A    between atoms: C_4  and  C_5
REMARK    5  A    between atoms: C_5  and  C_6
REMARK    6  A    between atoms: C_6  and  C_7
REMARK    7  A    between atoms: C_7  and  O_8
REMARK    8  A    between atoms: C_7  and  C_9
REMARK    9  A    between atoms: C_9  and  C_10
REMARK   10  A    between atoms: C_10  and  O_11
REMARK   11  A    between atoms: O_11  and  C_12
REMARK   12  A    between atoms: C_12  and  C_13
REMARK                            x       y       z     vdW  Elec       q    Type
REMARK                         _______ _______ _______ _____ _____    ______ ____
ROOT
ATOM      1  C   UNL     1       6.436   5.182  19.178  0.00  0.00    +0.000 C 
ENDROOT
BRANCH   1   2
ATOM      2  O   UNL     1       6.677   3.942  18.511  0.00  0.00    +0.000 OA
ATOM      3  H   UNL     1       7.311   3.434  19.047  0.00  0.00    +0.000 HD
ENDBRANCH   1   2
BRANCH   1   4
ATOM      4  C   UNL     1       4.926   5.385  19.350  0.00  0.00    +0.000 C 
BRANCH   4   5
ATOM      5  C   UNL     1       4.108   4.277  18.687  0.00  0.00    +0.000 C 
BRANCH   5   6
ATOM      6  C   UNL     1       3.274   4.840  17.537  0.00  0.00    +0.000 C 
BRANCH   6   7
ATOM      7  C   UNL     1       1.841   4.322  17.594  0.00  0.00    +0.000 C 
BRANCH   7   9
ATOM      8  C   UNL     1       0.784   2.402  18.823  0.00  0.00    +0.000 C 
ATOM      9  C   UNL     1       1.521   3.724  18.963  0.00  0.00    +0.000 C 
ENDBRANCH   7   9
ENDBRANCH   6   7
ENDBRANCH   5   6
ENDBRANCH   4   5
ENDBRANCH   1   4
BRANCH   1  10
ATOM     10  C   UNL     1       7.099   6.296  18.367  0.00  0.00    +0.000 C 
BRANCH  10  11
ATOM     11  C   UNL     1       6.760   6.247  16.880  0.00  0.00    +0.000 C 
BRANCH  11  12
ATOM     12  O   UNL     1       7.506   5.204  16.233  0.00  0.00    +0.000 OA
BRANCH  12  13
ATOM     13  C   UNL     1       7.149   4.950  14.945  0.00  0.00    +0.000 C 
ATOM     14  C   UNL     1       5.965   4.036  14.893  0.00  0.00    +0.000 C 
ATOM     15  O   UNL     1       7.706   5.399  13.952  0.00  0.00    +0.000 OA
ENDBRANCH  12  13
ENDBRANCH  11  12
ENDBRANCH  10  11
ENDBRANCH   1  10
TORSDOF 10
ENDMDL
MODEL 5
REMARK VINA RESULT:      -5.2      1.482      2.191
REMARK  Name = 
REMARK  12 active torsions:
REMARK  status: ('A' for Active; 'I' for Inactive)
REMARK    1  A    between atoms: C_1  and  C_2
REMARK    2  A    between atoms: C_2  and  C_3
REMARK    3  A    between atoms: C_3  and  C_4
REMARK    4  A    between atoms: C_4  and  C_5
REMARK    5  A    between atoms: C_5  and  C_6
REMARK    6  A    between atoms: C_6  and  C_7
REMARK    7  A    between atoms: C_7  and  O_8
REMARK    8  A    between atoms: C_7  and  C_9
REMARK    9  A    between atoms: C_9  and  C_10
REMARK   10  A    between atoms: C_10  and  O_11
REMARK   11  A    between atoms: O_11  and  C_12
REMARK   12  A    between atoms: C_12  and  C_13
REMARK                            x       y       z     vdW  Elec       q    Type
REMARK                         _______ _______ _______ _____ _____    ______ ____
ROOT
ATOM      1  C   UNL     1       4.472   4.340  18.300  0.00  0.00    +0.000 C 
ENDROOT
BRANCH   1   2
ATOM      2  O   UNL     1       5.693   3.663  18.600  0.00  0.00    +0.000 OA
ATOM      3  H   UNL     1       6.286   3.765  17.835  0.00  0.00    +0.000 HD
ENDBRANCH   1   2
BRANCH   1   4
ATOM      4  C   UNL     1       3.867   3.762  17.016  0.00  0.00    +0.000 C 
BRANCH   4   5
ATOM      5  C   UNL     1       2.566   3.002  17.274  0.00  0.00    +0.000 C 
BRANCH   5   6
ATOM      6  C   UNL     1       1.640   3.817  18.177  0.00  0.00    +0.000 C 
BRANCH   6   7
ATOM      7  C   UNL     1       1.082   2.958  19.307  0.00  0.00    +0.000 C 
BRANCH   7   9
ATOM      8  C   UNL     1       1.704   5.089  20.484  0.00  0.00    +0.000 C 
ATOM      9  C   UNL     1       1.012   3.742  20.616  0.00  0.00    +0.000 C 
ENDBRANCH   7   9
ENDBRANCH   6   7
ENDBRANCH   5   6
ENDBRANCH   4   5
ENDBRANCH   1   4
BRANCH   1  10
ATOM     10  C   UNL     1       4.771   5.837  18.197  0.00  0.00    +0.000 C 
BRANCH  10  11
ATOM     11  C   UNL     1       4.827   6.347  16.760  0.00  0.00    +0.000 C 
BRANCH  11  12
ATOM     12  O   UNL     1       6.052   7.060  16.532  0.00  0.00    +0.000 OA
BRANCH  12  13
ATOM     13  C   UNL     1       7.169   6.466  17.034  0.00  0.00    +0.000 C 
ATOM     14  C   UNL     1       7.885   7.388  17.971  0.00  0.00    +0.000 C 
ATOM     15  O   UNL     1       7.553   5.334  16.768  0.00  0.00    +0.000 OA
ENDBRANCH  12  13
ENDBRANCH  11  12
ENDBRANCH  10  11
ENDBRANCH   1  10
TORSDOF 10
ENDMDL
MODEL 6
REMARK VINA RESULT:      -5.2      1.266      1.954
REMARK  Name = 
REMARK  12 active torsions:
REMARK  status: ('A' for Active; 'I' for Inactive)
REMARK    1  A    between atoms: C_1  and  C_2
REMARK    2  A    between atoms: C_2  and  C_3
REMARK    3  A    between atoms: C_3  and  C_4
REMARK    4  A    between atoms: C_4  and  C_5
REMARK    5  A    between atoms: C_5  and  C_6
REMARK    6  A    between atoms: C_6  and  C_7
REMARK    7  A    between atoms: C_7  and  O_8
REMARK    8  A    between atoms: C_7  and  C_9
REMARK    9  A    between atoms: C_9  and  C_10
REMARK   10  A    between atoms: C_10  and  O_11
REMARK   11  A    between atoms: O_11  and  C_12
REMARK   12  A    between atoms: C_12  and  C_13
REMARK                            x       y       z     vdW  Elec       q    Type
REMARK                         _______ _______ _______ _____ _____    ______ ____
ROOT
ATOM      1  C   UNL     1       4.301   3.850  18.873  0.00  0.00    +0.000 C 
ENDROOT
BRANCH   1   2
ATOM      2  O   UNL     1       5.723   3.801  18.993  0.00  0.00    +0.000 OA
ATOM      3  H   UNL     1       6.095   4.498  18.426  0.00  0.00    +0.000 HD
ENDBRANCH   1   2
BRANCH   1   4
ATOM      4  C   UNL     1       3.826   2.727  17.943  0.00  0.00    +0.000 C 
BRANCH   4   5
ATOM      5  C   UNL     1       2.304   2.689  17.804  0.00  0.00    +0.000 C 
BRANCH   5   6
ATOM      6  C   UNL     1       1.670   2.023  19.025  0.00  0.00    +0.000 C 
BRANCH   6   7
ATOM      7  C   UNL     1       0.834   3.019  19.821  0.00  0.00    +0.000 C 
BRANCH   7   9
ATOM      8  C   UNL     1       2.603   2.612  21.558  0.00  0.00    +0.000 C 
ATOM      9  C   UNL     1       1.136   2.928  21.315  0.00  0.00    +0.000 C 
ENDBRANCH   7   9
ENDBRANCH   6   7
ENDBRANCH   5   6
ENDBRANCH   4   5
ENDBRANCH   1   4
BRANCH   1  10
ATOM     10  C   UNL     1       3.913   5.242  18.372  0.00  0.00    +0.000 C 
BRANCH  10  11
ATOM     11  C   UNL     1       5.111   6.098  17.972  0.00  0.00    +0.000 C 
BRANCH  11  12
ATOM     12  O   UNL     1       5.658   5.637  16.726  0.00  0.00    +0.000 OA
BRANCH  12  13
ATOM     13  C   UNL     1       6.959   5.972  16.507  0.00  0.00    +0.000 C 
ATOM     14  C   UNL     1       7.526   6.698  17.687  0.00  0.00    +0.000 C 
ATOM     15  O   UNL     1       7.595   5.722  15.491  0.00  0.00    +0.000 OA
ENDBRANCH  12  13
ENDBRANCH  11  12
ENDBRANCH  10  11
ENDBRANCH   1  10
TORSDOF 10
ENDMDL
MODEL 7
REMARK VINA RESULT:      -5.1      1.128      1.311
REMARK  Name = 
REMARK  12 active torsions:
REMARK  status: ('A' for Active; 'I' for Inactive)
REMARK    1  A    between atoms: C_1  and  C_2
REMARK    2  A    between atoms: C_2  and  C_3
REMARK    3  A    between atoms: C_3  and  C_4
REMARK    4  A    between atoms: C_4  and  C_5
REMARK    5  A    between atoms: C_5  and  C_6
REMARK    6  A    between atoms: C_6  and  C_7
REMARK    7  A    between atoms: C_7  and  O_8
REMARK    8  A    between atoms: C_7  and  C_9
REMARK    9  A    between atoms: C_9  and  C_10
REMARK   10  A    between atoms: C_10  and  O_11
REMARK   11  A    between atoms: O_11  and  C_12
REMARK   12  A    between atoms: C_12  and  C_13
REMARK                            x       y       z     vdW  Elec       q    Type
REMARK                         _______ _______ _______ _____ _____    ______ ____
ROOT
ATOM      1  C   UNL     1       4.774   3.859  18.696  0.00  0.00    +0.000 C 
ENDROOT
BRANCH   1   2
ATOM      2  O   UNL     1       5.215   2.750  19.479  0.00  0.00    +0.000 OA
ATOM      3  H   UNL     1       4.638   1.993  19.276  0.00  0.00    +0.000 HD
ENDBRANCH   1   2
BRANCH   1   4
ATOM      4  C   UNL     1       3.731   3.386  17.678  0.00  0.00    +0.000 C 
BRANCH   4   5
ATOM      5  C   UNL     1       2.328   3.905  17.995  0.00  0.00    +0.000 C 
BRANCH   5   6
ATOM      6  C   UNL     1       1.402   2.750  18.374  0.00  0.00    +0.000 C 
BRANCH   6   7
ATOM      7  C   UNL     1       0.695   3.026  19.697  0.00  0.00    +0.000 C 
BRANCH   7   9
ATOM      8  C   UNL     1       2.138   3.398  21.721  0.00  0.00    +0.000 C 
ATOM      9  C   UNL     1       1.459   4.054  20.530  0.00  0.00    +0.000 C 
ENDBRANCH   7   9
ENDBRANCH   6   7
ENDBRANCH   5   6
ENDBRANCH   4   5
ENDBRANCH   1   4
BRANCH   1  10
ATOM     10  C   UNL     1       6.000   4.498  18.041  0.00  0.00    +0.000 C 
BRANCH  10  11
ATOM     11  C   UNL     1       5.695   5.821  17.346  0.00  0.00    +0.000 C 
BRANCH  11  12
ATOM     12  O   UNL     1       5.427   5.601  15.951  0.00  0.00    +0.000 OA
BRANCH  12  13
ATOM     13  C   UNL     1       6.482   5.139  15.226  0.00  0.00    +0.000 C 
ATOM     14  C   UNL     1       6.076   3.969  14.386  0.00  0.00    +0.000 C 
ATOM     15  O   UNL     1       7.614   5.604  15.243  0.00  0.00    +0.000 OA
ENDBRANCH  12  13
ENDBRANCH  11  12
ENDBRANCH  10  11
ENDBRANCH   1  10
TORSDOF 10
ENDMDL
MODEL 8
REMARK VINA RESULT:      -5.1      1.774      3.061
REMARK  Name = 
REMARK  12 active torsions:
REMARK  status: ('A' for Active; 'I' for Inactive)
REMARK    1  A    between atoms: C_1  and  C_2
REMARK    2  A    between atoms: C_2  and  C_3
REMARK    3  A    between atoms: C_3  and  C_4
REMARK    4  A    between atoms: C_4  and  C_5
REMARK    5  A    between atoms: C_5  and  C_6
REMARK    6  A    between atoms: C_6  and  C_7
REMARK    7  A    between atoms: C_7  and  O_8
REMARK    8  A    between atoms: C_7  and  C_9
REMARK    9  A    between atoms: C_9  and  C_10
REMARK   10  A    between atoms: C_10  and  O_11
REMARK   11  A    between atoms: O_11  and  C_12
REMARK   12  A    between atoms: C_12  and  C_13
REMARK                            x       y       z     vdW  Elec       q    Type
REMARK                         _______ _______ _______ _____ _____    ______ ____
ROOT
ATOM      1  C   UNL     1       3.664   2.294  18.804  0.00  0.00    +0.000 C 
ENDROOT
BRANCH   1   2
ATOM      2  O   UNL     1       4.244   1.056  18.393  0.00  0.00    +0.000 OA
ATOM      3  H   UNL     1       4.322   0.488  19.179  0.00  0.00    +0.000 HD
ENDBRANCH   1   2
BRANCH   1   4
ATOM      4  C   UNL     1       2.557   2.693  17.821  0.00  0.00    +0.000 C 
BRANCH   4   5
ATOM      5  C   UNL     1       1.167   2.649  18.457  0.00  0.00    +0.000 C 
BRANCH   5   6
ATOM      6  C   UNL     1       1.269   2.777  19.977  0.00  0.00    +0.000 C 
BRANCH   6   7
ATOM      7  C   UNL     1       0.887   4.181  20.435  0.00  0.00    +0.000 C 
BRANCH   7   9
ATOM      8  C   UNL     1       2.400   6.068  19.757  0.00  0.00    +0.000 C 
ATOM      9  C   UNL     1       2.122   5.000  20.802  0.00  0.00    +0.000 C 
ENDBRANCH   7   9
ENDBRANCH   6   7
ENDBRANCH   5   6
ENDBRANCH   4   5
ENDBRANCH   1   4
BRANCH   1  10
ATOM     10  C   UNL     1       4.780   3.335  18.899  0.00  0.00    +0.000 C 
BRANCH  10  11
ATOM     11  C   UNL     1       5.103   4.001  17.565  0.00  0.00    +0.000 C 
BRANCH  11  12
ATOM     12  O   UNL     1       5.863   5.201  17.778  0.00  0.00    +0.000 OA
BRANCH  12  13
ATOM     13  C   UNL     1       7.209   5.025  17.872  0.00  0.00    +0.000 C 
ATOM     14  C   UNL     1       7.755   5.738  19.069  0.00  0.00    +0.000 C 
ATOM     15  O   UNL     1       7.897   4.374  17.095  0.00  0.00    +0.000 OA
ENDBRANCH  12  13
ENDBRANCH  11  12
ENDBRANCH  10  11
ENDBRANCH   1  10
TORSDOF 10
ENDMDL
MODEL 9
REMARK VINA RESULT:      -5.1      1.137      1.416
REMARK  Name = 
REMARK  12 active torsions:
REMARK  status: ('A' for Active; 'I' for Inactive)
REMARK    1  A    between atoms: C_1  and  C_2
REMARK    2  A    between atoms: C_2  and  C_3
REMARK    3  A    between atoms: C_3  and  C_4
REMARK    4  A    between atoms: C_4  and  C_5
REMARK    5  A    between atoms: C_5  and  C_6
REMARK    6  A    between atoms: C_6  and  C_7
REMARK    7  A    between atoms: C_7  and  O_8
REMARK    8  A    between atoms: C_7  and  C_9
REMARK    9  A    between atoms: C_9  and  C_10
REMARK   10  A    between atoms: C_10  and  O_11
REMARK   11  A    between atoms: O_11  and  C_12
REMARK   12  A    between atoms: C_12  and  C_13
REMARK                            x       y       z     vdW  Elec       q    Type
REMARK                         _______ _______ _______ _____ _____    ______ ____
ROOT
ATOM      1  C   UNL     1       4.410   4.305  18.241  0.00  0.00    +0.000 C 
ENDROOT
BRANCH   1   2
ATOM      2  O   UNL     1       5.671   3.678  18.480  0.00  0.00    +0.000 OA
ATOM      3  H   UNL     1       5.711   3.436  19.422  0.00  0.00    +0.000 HD
ENDBRANCH   1   2
BRANCH   1   4
ATOM      4  C   UNL     1       3.580   3.440  17.286  0.00  0.00    +0.000 C 
BRANCH   4   5
ATOM      5  C   UNL     1       2.256   2.992  17.905  0.00  0.00    +0.000 C 
BRANCH   5   6
ATOM      6  C   UNL     1       2.505   2.199  19.188  0.00  0.00    +0.000 C 
BRANCH   6   7
ATOM      7  C   UNL     1       1.579   2.663  20.307  0.00  0.00    +0.000 C 
BRANCH   7   9
ATOM      8  C   UNL     1       1.825   5.114  20.799  0.00  0.00    +0.000 C 
ATOM      9  C   UNL     1       1.037   4.064  20.033  0.00  0.00    +0.000 C 
ENDBRANCH   7   9
ENDBRANCH   6   7
ENDBRANCH   5   6
ENDBRANCH   4   5
ENDBRANCH   1   4
BRANCH   1  10
ATOM     10  C   UNL     1       4.672   5.710  17.699  0.00  0.00    +0.000 C 
BRANCH  10  11
ATOM     11  C   UNL     1       6.043   5.863  17.046  0.00  0.00    +0.000 C 
BRANCH  11  12
ATOM     12  O   UNL     1       5.906   5.971  15.620  0.00  0.00    +0.000 OA
BRANCH  12  13
ATOM     13  C   UNL     1       6.736   5.171  14.897  0.00  0.00    +0.000 C 
ATOM     14  C   UNL     1       6.113   3.828  14.670  0.00  0.00    +0.000 C 
ATOM     15  O   UNL     1       7.842   5.487  14.479  0.00  0.00    +0.000 OA
ENDBRANCH  12  13
ENDBRANCH  11  12
ENDBRANCH  10  11
ENDBRANCH   1  10
TORSDOF 10
ENDMDL
