MODEL 1
REMARK VINA RESULT:      -7.3      0.000      0.000
REMARK  Name = 
REMARK  8 active torsions:
REMARK  status: ('A' for Active; 'I' for Inactive)
REMARK    1  A    between atoms: C_1  and  N_2
REMARK    2  A    between atoms: N_2  and  C_3
REMARK    3  A    between atoms: N_2  and  C_4
REMARK    4  A    between atoms: C_7  and  C_8
REMARK    5  A    between atoms: C_9  and  C_10
REMARK    6  A    between atoms: C_10  and  C_12
REMARK    7  A    between atoms: C_15  and  O_16
REMARK    8  A    between atoms: C_18  and  O_19
REMARK                            x       y       z     vdW  Elec       q    Type
REMARK                         _______ _______ _______ _____ _____    ______ ____
ROOT
ATOM      1  C   UNL     1       3.786   4.279  19.061  0.00  0.00    +0.000 C 
ATOM      2  O   UNL     1       3.745   3.318  19.820  0.00  0.00    +0.000 OA
ENDROOT
BRANCH   1   3
ATOM      3  C   UNL     1       4.883   4.407  18.057  0.00  0.00    +0.000 A 
ATOM      4  C   UNL     1       4.550   4.186  16.710  0.00  0.00    +0.000 A 
ATOM      5  C   UNL     1       5.517   4.306  15.708  0.00  0.00    +0.000 A 
ATOM      6  C   UNL     1       6.817   4.657  16.054  0.00  0.00    +0.000 A 
ATOM      7  C   UNL     1       7.167   4.889  17.378  0.00  0.00    +0.000 A 
ATOM      8  C   UNL     1       6.201   4.771  18.378  0.00  0.00    +0.000 A 
BRANCH   6   9
ATOM      9  O   UNL     1       7.791   4.796  15.112  0.00  0.00    +0.000 OA
ATOM     10  H   UNL     1       8.155   3.921  14.903  0.00  0.00    +0.000 HD
ENDBRANCH   6   9
BRANCH   8  11
ATOM     11  O   UNL     1       6.563   5.047  19.668  0.00  0.00    +0.000 OA
ATOM     12  H   UNL     1       6.171   4.389  20.267  0.00  0.00    +0.000 HD
ENDBRANCH   8  11
ENDBRANCH   1   3
BRANCH   1  14
ATOM     13  C   UNL     1       3.116   6.630  18.773  0.00  0.00    +0.000 C 
ATOM     14  C   UNL     1       2.789   5.380  19.135  0.00  0.00    +0.000 C 
BRANCH  13  18
ATOM     15  C   UNL     1       0.369   9.925  19.428  0.00  0.00    +0.000 A 
ATOM     16  C   UNL     1       0.812   9.088  20.466  0.00  0.00    +0.000 A 
ATOM     17  C   UNL     1       1.713   8.033  20.246  0.00  0.00    +0.000 A 
ATOM     18  C   UNL     1       2.218   7.776  18.972  0.00  0.00    +0.000 A 
ATOM     19  C   UNL     1       1.840   8.633  17.937  0.00  0.00    +0.000 A 
ATOM     20  C   UNL     1       0.931   9.678  18.165  0.00  0.00    +0.000 A 
BRANCH  15  22
ATOM     21  C   UNL     1      -1.167  11.626  18.495  0.00  0.00    +0.000 C 
ATOM     22  N   UNL     1      -0.549  10.955  19.634  0.00  0.00    +0.000 N 
ATOM     23  C   UNL     1      -0.534  11.680  20.900  0.00  0.00    +0.000 C 
ENDBRANCH  15  22
ENDBRANCH  13  18
ENDBRANCH   1  14
TORSDOF 6
ENDMDL
MODEL 2
REMARK VINA RESULT:      -7.3      0.430      1.125
REMARK  Name = 
REMARK  8 active torsions:
REMARK  status: ('A' for Active; 'I' for Inactive)
REMARK    1  A    between atoms: C_1  and  N_2
REMARK    2  A    between atoms: N_2  and  C_3
REMARK    3  A    between atoms: N_2  and  C_4
REMARK    4  A    between atoms: C_7  and  C_8
REMARK    5  A    between atoms: C_9  and  C_10
REMARK    6  A    between atoms: C_10  and  C_12
REMARK    7  A    between atoms: C_15  and  O_16
REMARK    8  A    between atoms: C_18  and  O_19
REMARK                            x       y       z     vdW  Elec       q    Type
REMARK                         _______ _______ _______ _____ _____    ______ ____
ROOT
ATOM      1  C   UNL     1       4.011   4.175  19.047  0.00  0.00    +0.000 C 
ATOM      2  O   UNL     1       3.975   3.108  19.648  0.00  0.00    +0.000 OA
ENDROOT
BRANCH   1   3
ATOM      3  C   UNL     1       5.053   4.426  18.008  0.00  0.00    +0.000 A 
ATOM      4  C   UNL     1       4.692   4.202  16.669  0.00  0.00    +0.000 A 
ATOM      5  C   UNL     1       5.606   4.432  15.637  0.00  0.00    +0.000 A 
ATOM      6  C   UNL     1       6.879   4.897  15.945  0.00  0.00    +0.000 A 
ATOM      7  C   UNL     1       7.255   5.135  17.261  0.00  0.00    +0.000 A 
ATOM      8  C   UNL     1       6.342   4.906  18.291  0.00  0.00    +0.000 A 
BRANCH   6   9
ATOM      9  O   UNL     1       7.801   5.146  14.973  0.00  0.00    +0.000 OA
ATOM     10  H   UNL     1       7.358   5.570  14.220  0.00  0.00    +0.000 HD
ENDBRANCH   6   9
BRANCH   8  11
ATOM     11  O   UNL     1       6.724   5.189  19.574  0.00  0.00    +0.000 OA
ATOM     12  H   UNL     1       6.243   5.969  19.895  0.00  0.00    +0.000 HD
ENDBRANCH   8  11
ENDBRANCH   1   3
BRANCH   1  14
ATOM     13  C   UNL     1       3.052   6.400  18.615  0.00  0.00    +0.000 C 
ATOM     14  C   UNL     1       3.066   5.281  19.354  0.00  0.00    +0.000 C 
BRANCH  13  18
ATOM     15  C   UNL     1       0.783   9.966  19.598  0.00  0.00    +0.000 A 
ATOM     16  C   UNL     1       1.238   9.690  18.298  0.00  0.00    +0.000 A 
ATOM     17  C   UNL     1       1.959   8.526  17.987  0.00  0.00    +0.000 A 
ATOM     18  C   UNL     1       2.248   7.578  18.969  0.00  0.00    +0.000 A 
ATOM     19  C   UNL     1       1.753   7.802  20.254  0.00  0.00    +0.000 A 
ATOM     20  C   UNL     1       1.043   8.974  20.558  0.00  0.00    +0.000 A 
BRANCH  15  22
ATOM     21  C   UNL     1      -0.909  11.673  19.007  0.00  0.00    +0.000 C 
ATOM     22  N   UNL     1       0.094  11.136  19.920  0.00  0.00    +0.000 N 
ATOM     23  C   UNL     1       0.681  12.067  20.879  0.00  0.00    +0.000 C 
ENDBRANCH  15  22
ENDBRANCH  13  18
ENDBRANCH   1  14
TORSDOF 6
ENDMDL
MODEL 3
REMARK VINA RESULT:      -7.3      5.857      7.432
REMARK  Name = 
REMARK  8 active torsions:
REMARK  status: ('A' for Active; 'I' for Inactive)
REMARK    1  A    between atoms: C_1  and  N_2
REMARK    2  A    between atoms: N_2  and  C_3
REMARK    3  A    between atoms: N_2  and  C_4
REMARK    4  A    between atoms: C_7  and  C_8
REMARK    5  A    between atoms: C_9  and  C_10
REMARK    6  A    between atoms: C_10  and  C_12
REMARK    7  A    between atoms: C_15  and  O_16
REMARK    8  A    between atoms: C_18  and  O_19
REMARK                            x       y       z     vdW  Elec       q    Type
REMARK                         _______ _______ _______ _____ _____    ______ ____
ROOT
ATOM      1  C   UNL     1       7.307   6.804  17.286  0.00  0.00    +0.000 C 
ATOM      2  O   UNL     1       7.724   6.338  16.232  0.00  0.00    +0.000 OA
ENDROOT
BRANCH   1   3
ATOM      3  C   UNL     1       5.999   6.355  17.849  0.00  0.00    +0.000 A 
ATOM      4  C   UNL     1       4.834   6.852  17.240  0.00  0.00    +0.000 A 
ATOM      5  C   UNL     1       3.571   6.463  17.696  0.00  0.00    +0.000 A 
ATOM      6  C   UNL     1       3.474   5.569  18.755  0.00  0.00    +0.000 A 
ATOM      7  C   UNL     1       4.612   5.057  19.366  0.00  0.00    +0.000 A 
ATOM      8  C   UNL     1       5.873   5.444  18.910  0.00  0.00    +0.000 A 
BRANCH   6   9
ATOM      9  O   UNL     1       2.266   5.153  19.228  0.00  0.00    +0.000 OA
ATOM     10  H   UNL     1       2.212   5.356  20.176  0.00  0.00    +0.000 HD
ENDBRANCH   6   9
BRANCH   8  11
ATOM     11  O   UNL     1       6.977   4.892  19.500  0.00  0.00    +0.000 OA
ATOM     12  H   UNL     1       6.728   4.486  20.347  0.00  0.00    +0.000 HD
ENDBRANCH   8  11
ENDBRANCH   1   3
BRANCH   1  14
ATOM     13  C   UNL     1       7.845   9.161  17.747  0.00  0.00    +0.000 C 
ATOM     14  C   UNL     1       8.046   7.864  18.023  0.00  0.00    +0.000 C 
BRANCH  13  18
ATOM     15  C   UNL     1      10.307  12.354  19.351  0.00  0.00    +0.000 A 
ATOM     16  C   UNL     1       9.510  12.512  18.205  0.00  0.00    +0.000 A 
ATOM     17  C   UNL     1       8.704  11.477  17.702  0.00  0.00    +0.000 A 
ATOM     18  C   UNL     1       8.657  10.235  18.335  0.00  0.00    +0.000 A 
ATOM     19  C   UNL     1       9.394  10.074  19.509  0.00  0.00    +0.000 A 
ATOM     20  C   UNL     1      10.203  11.111  19.998  0.00  0.00    +0.000 A 
BRANCH  15  22
ATOM     21  C   UNL     1      10.606  14.363  20.763  0.00  0.00    +0.000 C 
ATOM     22  N   UNL     1      11.133  13.367  19.837  0.00  0.00    +0.000 N 
ATOM     23  C   UNL     1      12.331  13.731  19.087  0.00  0.00    +0.000 C 
ENDBRANCH  15  22
ENDBRANCH  13  18
ENDBRANCH   1  14
TORSDOF 6
ENDMDL
MODEL 4
REMARK VINA RESULT:      -7.3      0.849      1.172
REMARK  Name = 
REMARK  8 active torsions:
REMARK  status: ('A' for Active; 'I' for Inactive)
REMARK    1  A    between atoms: C_1  and  N_2
REMARK    2  A    between atoms: N_2  and  C_3
REMARK    3  A    between atoms: N_2  and  C_4
REMARK    4  A    between atoms: C_7  and  C_8
REMARK    5  A    between atoms: C_9  and  C_10
REMARK    6  A    between atoms: C_10  and  C_12
REMARK    7  A    between atoms: C_15  and  O_16
REMARK    8  A    between atoms: C_18  and  O_19
REMARK                            x       y       z     vdW  Elec       q    Type
REMARK                         _______ _______ _______ _____ _____    ______ ____
ROOT
ATOM      1  C   UNL     1       4.690   4.196  18.833  0.00  0.00    +0.000 C 
ATOM      2  O   UNL     1       4.917   3.217  19.534  0.00  0.00    +0.000 OA
ENDROOT
BRANCH   1   3
ATOM      3  C   UNL     1       5.453   4.418  17.569  0.00  0.00    +0.000 A 
ATOM      4  C   UNL     1       4.732   4.363  16.365  0.00  0.00    +0.000 A 
ATOM      5  C   UNL     1       5.371   4.579  15.141  0.00  0.00    +0.000 A 
ATOM      6  C   UNL     1       6.732   4.861  15.123  0.00  0.00    +0.000 A 
ATOM      7  C   UNL     1       7.464   4.929  16.302  0.00  0.00    +0.000 A 
ATOM      8  C   UNL     1       6.825   4.715  17.524  0.00  0.00    +0.000 A 
BRANCH   6   9
ATOM      9  O   UNL     1       7.397   5.089  13.956  0.00  0.00    +0.000 OA
ATOM     10  H   UNL     1       7.175   4.386  13.324  0.00  0.00    +0.000 HD
ENDBRANCH   6   9
BRANCH   8  11
ATOM     11  O   UNL     1       7.560   4.831  18.672  0.00  0.00    +0.000 OA
ATOM     12  H   UNL     1       8.358   5.358  18.499  0.00  0.00    +0.000 HD
ENDBRANCH   8  11
ENDBRANCH   1   3
BRANCH   1  14
ATOM     13  C   UNL     1       3.406   6.253  18.409  0.00  0.00    +0.000 C 
ATOM     14  C   UNL     1       3.694   5.229  19.225  0.00  0.00    +0.000 C 
BRANCH  13  18
ATOM     15  C   UNL     1       0.776   9.471  19.656  0.00  0.00    +0.000 A 
ATOM     16  C   UNL     1       1.221   8.470  20.536  0.00  0.00    +0.000 A 
ATOM     17  C   UNL     1       2.084   7.441  20.126  0.00  0.00    +0.000 A 
ATOM     18  C   UNL     1       2.549   7.376  18.812  0.00  0.00    +0.000 A 
ATOM     19  C   UNL     1       2.169   8.394  17.937  0.00  0.00    +0.000 A 
ATOM     20  C   UNL     1       1.297   9.412  18.353  0.00  0.00    +0.000 A 
BRANCH  15  22
ATOM     21  C   UNL     1      -0.271  10.799  21.462  0.00  0.00    +0.000 C 
ATOM     22  N   UNL     1      -0.106  10.478  20.049  0.00  0.00    +0.000 N 
ATOM     23  C   UNL     1      -1.190  10.864  19.151  0.00  0.00    +0.000 C 
ENDBRANCH  15  22
ENDBRANCH  13  18
ENDBRANCH   1  14
TORSDOF 6
ENDMDL
MODEL 5
REMARK VINA RESULT:      -7.3      5.942      7.014
REMARK  Name = 
REMARK  8 active torsions:
REMARK  status: ('A' for Active; 'I' for Inactive)
REMARK    1  A    between atoms: C_1  and  N_2
REMARK    2  A    between atoms: N_2  and  C_3
REMARK    3  A    between atoms: N_2  and  C_4
REMARK    4  A    between atoms: C_7  and  C_8
REMARK    5  A    between atoms: C_9  and  C_10
REMARK    6  A    between atoms: C_10  and  C_12
REMARK    7  A    between atoms: C_15  and  O_16
REMARK    8  A    between atoms: C_18  and  O_19
REMARK                            x       y       z     vdW  Elec       q    Type
REMARK                         _______ _______ _______ _____ _____    ______ ____
ROOT
ATOM      1  C   UNL     1       7.680   6.816  18.240  0.00  0.00    +0.000 C 
ATOM      2  O   UNL     1       7.981   6.257  19.289  0.00  0.00    +0.000 OA
ENDROOT
BRANCH   1   3
ATOM      3  C   UNL     1       7.005   6.060  17.144  0.00  0.00    +0.000 A 
ATOM      4  C   UNL     1       6.037   6.746  16.392  0.00  0.00    +0.000 A 
ATOM      5  C   UNL     1       5.374   6.113  15.336  0.00  0.00    +0.000 A 
ATOM      6  C   UNL     1       5.689   4.795  15.027  0.00  0.00    +0.000 A 
ATOM      7  C   UNL     1       6.649   4.100  15.751  0.00  0.00    +0.000 A 
ATOM      8  C   UNL     1       7.312   4.732  16.804  0.00  0.00    +0.000 A 
BRANCH   6   9
ATOM      9  O   UNL     1       5.078   4.139  14.002  0.00  0.00    +0.000 OA
ATOM     10  H   UNL     1       4.118   4.159  14.142  0.00  0.00    +0.000 HD
ENDBRANCH   6   9
BRANCH   8  11
ATOM     11  O   UNL     1       8.283   4.039  17.472  0.00  0.00    +0.000 OA
ATOM     12  H   UNL     1       8.367   3.146  17.097  0.00  0.00    +0.000 HD
ENDBRANCH   8  11
ENDBRANCH   1   3
BRANCH   1  14
ATOM     13  C   UNL     1       8.860   8.904  18.791  0.00  0.00    +0.000 C 
ATOM     14  C   UNL     1       8.016   8.243  17.986  0.00  0.00    +0.000 C 
BRANCH  13  18
ATOM     15  C   UNL     1       9.592  13.153  18.301  0.00  0.00    +0.000 A 
ATOM     16  C   UNL     1       8.600  12.466  17.582  0.00  0.00    +0.000 A 
ATOM     17  C   UNL     1       8.360  11.093  17.759  0.00  0.00    +0.000 A 
ATOM     18  C   UNL     1       9.103  10.349  18.675  0.00  0.00    +0.000 A 
ATOM     19  C   UNL     1      10.053  11.023  19.443  0.00  0.00    +0.000 A 
ATOM     20  C   UNL     1      10.292  12.393  19.252  0.00  0.00    +0.000 A 
BRANCH  15  22
ATOM     21  C   UNL     1      10.974  14.927  17.268  0.00  0.00    +0.000 C 
ATOM     22  N   UNL     1       9.856  14.509  18.107  0.00  0.00    +0.000 N 
ATOM     23  C   UNL     1       9.365  15.477  19.083  0.00  0.00    +0.000 C 
ENDBRANCH  15  22
ENDBRANCH  13  18
ENDBRANCH   1  14
TORSDOF 6
ENDMDL
MODEL 6
REMARK VINA RESULT:      -7.2      5.724      7.146
REMARK  Name = 
REMARK  8 active torsions:
REMARK  status: ('A' for Active; 'I' for Inactive)
REMARK    1  A    between atoms: C_1  and  N_2
REMARK    2  A    between atoms: N_2  and  C_3
REMARK    3  A    between atoms: N_2  and  C_4
REMARK    4  A    between atoms: C_7  and  C_8
REMARK    5  A    between atoms: C_9  and  C_10
REMARK    6  A    between atoms: C_10  and  C_12
REMARK    7  A    between atoms: C_15  and  O_16
REMARK    8  A    between atoms: C_18  and  O_19
REMARK                            x       y       z     vdW  Elec       q    Type
REMARK                         _______ _______ _______ _____ _____    ______ ____
ROOT
ATOM      1  C   UNL     1       7.232   6.745  17.194  0.00  0.00    +0.000 C 
ATOM      2  O   UNL     1       7.740   6.332  16.157  0.00  0.00    +0.000 OA
ENDROOT
BRANCH   1   3
ATOM      3  C   UNL     1       5.922   6.206  17.664  0.00  0.00    +0.000 A 
ATOM      4  C   UNL     1       4.786   7.005  17.451  0.00  0.00    +0.000 A 
ATOM      5  C   UNL     1       3.519   6.562  17.845  0.00  0.00    +0.000 A 
ATOM      6  C   UNL     1       3.390   5.314  18.442  0.00  0.00    +0.000 A 
ATOM      7  C   UNL     1       4.498   4.503  18.654  0.00  0.00    +0.000 A 
ATOM      8  C   UNL     1       5.761   4.945  18.260  0.00  0.00    +0.000 A 
BRANCH   6   9
ATOM      9  O   UNL     1       2.176   4.835  18.834  0.00  0.00    +0.000 OA
ATOM     10  H   UNL     1       1.483   5.438  18.521  0.00  0.00    +0.000 HD
ENDBRANCH   6   9
BRANCH   8  11
ATOM     11  O   UNL     1       6.829   4.109  18.441  0.00  0.00    +0.000 OA
ATOM     12  H   UNL     1       6.812   3.405  17.772  0.00  0.00    +0.000 HD
ENDBRANCH   8  11
ENDBRANCH   1   3
BRANCH   1  14
ATOM     13  C   UNL     1       7.862   9.095  17.562  0.00  0.00    +0.000 C 
ATOM     14  C   UNL     1       7.860   7.827  17.998  0.00  0.00    +0.000 C 
BRANCH  13  18
ATOM     15  C   UNL     1       9.960  12.241  19.692  0.00  0.00    +0.000 A 
ATOM     16  C   UNL     1       9.859  10.928  20.183  0.00  0.00    +0.000 A 
ATOM     17  C   UNL     1       9.190   9.913  19.479  0.00  0.00    +0.000 A 
ATOM     18  C   UNL     1       8.599  10.170  18.242  0.00  0.00    +0.000 A 
ATOM     19  C   UNL     1       8.740  11.451  17.707  0.00  0.00    +0.000 A 
ATOM     20  C   UNL     1       9.401  12.461  18.423  0.00  0.00    +0.000 A 
BRANCH  15  22
ATOM     21  C   UNL     1       9.945  13.867  21.557  0.00  0.00    +0.000 C 
ATOM     22  N   UNL     1      10.595  13.261  20.401  0.00  0.00    +0.000 N 
ATOM     23  C   UNL     1      11.637  14.043  19.742  0.00  0.00    +0.000 C 
ENDBRANCH  15  22
ENDBRANCH  13  18
ENDBRANCH   1  14
TORSDOF 6
ENDMDL
MODEL 7
REMARK VINA RESULT:      -7.2      5.904      6.898
REMARK  Name = 
REMARK  8 active torsions:
REMARK  status: ('A' for Active; 'I' for Inactive)
REMARK    1  A    between atoms: C_1  and  N_2
REMARK    2  A    between atoms: N_2  and  C_3
REMARK    3  A    between atoms: N_2  and  C_4
REMARK    4  A    between atoms: C_7  and  C_8
REMARK    5  A    between atoms: C_9  and  C_10
REMARK    6  A    between atoms: C_10  and  C_12
REMARK    7  A    between atoms: C_15  and  O_16
REMARK    8  A    between atoms: C_18  and  O_19
REMARK                            x       y       z     vdW  Elec       q    Type
REMARK                         _______ _______ _______ _____ _____    ______ ____
ROOT
ATOM      1  C   UNL     1       7.579   6.819  18.148  0.00  0.00    +0.000 C 
ATOM      2  O   UNL     1       7.861   6.284  19.214  0.00  0.00    +0.000 OA
ENDROOT
BRANCH   1   3
ATOM      3  C   UNL     1       6.926   6.038  17.057  0.00  0.00    +0.000 A 
ATOM      4  C   UNL     1       5.928   6.688  16.312  0.00  0.00    +0.000 A 
ATOM      5  C   UNL     1       5.282   6.031  15.260  0.00  0.00    +0.000 A 
ATOM      6  C   UNL     1       5.644   4.726  14.948  0.00  0.00    +0.000 A 
ATOM      7  C   UNL     1       6.635   4.067  15.664  0.00  0.00    +0.000 A 
ATOM      8  C   UNL     1       7.280   4.723  16.713  0.00  0.00    +0.000 A 
BRANCH   6   9
ATOM      9  O   UNL     1       5.051   4.048  13.926  0.00  0.00    +0.000 OA
ATOM     10  H   UNL     1       5.238   3.100  14.026  0.00  0.00    +0.000 HD
ENDBRANCH   6   9
BRANCH   8  11
ATOM     11  O   UNL     1       8.282   4.067  17.374  0.00  0.00    +0.000 OA
ATOM     12  H   UNL     1       8.683   3.404  16.788  0.00  0.00    +0.000 HD
ENDBRANCH   8  11
ENDBRANCH   1   3
BRANCH   1  14
ATOM     13  C   UNL     1       8.779   8.908  18.653  0.00  0.00    +0.000 C 
ATOM     14  C   UNL     1       7.918   8.240  17.870  0.00  0.00    +0.000 C 
BRANCH  13  18
ATOM     15  C   UNL     1       9.508  13.177  18.390  0.00  0.00    +0.000 A 
ATOM     16  C   UNL     1      10.273  12.325  19.203  0.00  0.00    +0.000 A 
ATOM     17  C   UNL     1      10.039  10.942  19.271  0.00  0.00    +0.000 A 
ATOM     18  C   UNL     1       9.028  10.349  18.513  0.00  0.00    +0.000 A 
ATOM     19  C   UNL     1       8.296  11.167  17.652  0.00  0.00    +0.000 A 
ATOM     20  C   UNL     1       8.531  12.550  17.600  0.00  0.00    +0.000 A 
BRANCH  15  22
ATOM     21  C   UNL     1      10.951  15.094  17.785  0.00  0.00    +0.000 C 
ATOM     22  N   UNL     1       9.715  14.556  18.342  0.00  0.00    +0.000 N 
ATOM     23  C   UNL     1       8.969  15.420  19.252  0.00  0.00    +0.000 C 
ENDBRANCH  15  22
ENDBRANCH  13  18
ENDBRANCH   1  14
TORSDOF 6
ENDMDL
MODEL 8
REMARK VINA RESULT:      -7.1      1.014      1.701
REMARK  Name = 
REMARK  8 active torsions:
REMARK  status: ('A' for Active; 'I' for Inactive)
REMARK    1  A    between atoms: C_1  and  N_2
REMARK    2  A    between atoms: N_2  and  C_3
REMARK    3  A    between atoms: N_2  and  C_4
REMARK    4  A    between atoms: C_7  and  C_8
REMARK    5  A    between atoms: C_9  and  C_10
REMARK    6  A    between atoms: C_10  and  C_12
REMARK    7  A    between atoms: C_15  and  O_16
REMARK    8  A    between atoms: C_18  and  O_19
REMARK                            x       y       z     vdW  Elec       q    Type
REMARK                         _______ _______ _______ _____ _____    ______ ____
ROOT
ATOM      1  C   UNL     1       5.032   4.462  18.796  0.00  0.00    +0.000 C 
ATOM      2  O   UNL     1       5.190   3.486  19.521  0.00  0.00    +0.000 OA
ENDROOT
BRANCH   1   3
ATOM      3  C   UNL     1       5.652   4.508  17.440  0.00  0.00    +0.000 A 
ATOM      4  C   UNL     1       4.783   4.552  16.337  0.00  0.00    +0.000 A 
ATOM      5  C   UNL     1       5.287   4.616  15.035  0.00  0.00    +0.000 A 
ATOM      6  C   UNL     1       6.662   4.647  14.837  0.00  0.00    +0.000 A 
ATOM      7  C   UNL     1       7.541   4.615  15.913  0.00  0.00    +0.000 A 
ATOM      8  C   UNL     1       7.038   4.552  17.213  0.00  0.00    +0.000 A 
BRANCH   6   9
ATOM      9  O   UNL     1       7.201   4.720  13.588  0.00  0.00    +0.000 OA
ATOM     10  H   UNL     1       8.169   4.751  13.664  0.00  0.00    +0.000 HD
ENDBRANCH   6   9
BRANCH   8  11
ATOM     11  O   UNL     1       7.923   4.565  18.256  0.00  0.00    +0.000 OA
ATOM     12  H   UNL     1       7.732   3.827  18.858  0.00  0.00    +0.000 HD
ENDBRANCH   8  11
ENDBRANCH   1   3
BRANCH   1  14
ATOM     13  C   UNL     1       3.050   5.921  18.751  0.00  0.00    +0.000 C 
ATOM     14  C   UNL     1       4.268   5.657  19.245  0.00  0.00    +0.000 C 
BRANCH  13  18
ATOM     15  C   UNL     1       1.014   9.668  19.557  0.00  0.00    +0.000 A 
ATOM     16  C   UNL     1       1.476   9.314  18.278  0.00  0.00    +0.000 A 
ATOM     17  C   UNL     1       2.120   8.092  18.024  0.00  0.00    +0.000 A 
ATOM     18  C   UNL     1       2.323   7.163  19.045  0.00  0.00    +0.000 A 
ATOM     19  C   UNL     1       1.819   7.467  20.310  0.00  0.00    +0.000 A 
ATOM     20  C   UNL     1       1.185   8.695  20.556  0.00  0.00    +0.000 A 
BRANCH  15  22
ATOM     21  C   UNL     1       0.612  11.556  21.104  0.00  0.00    +0.000 C 
ATOM     22  N   UNL     1       0.402  10.892  19.822  0.00  0.00    +0.000 N 
ATOM     23  C   UNL     1      -0.791  11.270  19.070  0.00  0.00    +0.000 C 
ENDBRANCH  15  22
ENDBRANCH  13  18
ENDBRANCH   1  14
TORSDOF 6
ENDMDL
MODEL 9
REMARK VINA RESULT:      -6.9      4.649      8.002
REMARK  Name = 
REMARK  8 active torsions:
REMARK  status: ('A' for Active; 'I' for Inactive)
REMARK    1  A    between atoms: C_1  and  N_2
REMARK    2  A    between atoms: N_2  and  C_3
REMARK    3  A    between atoms: N_2  and  C_4
REMARK    4  A    between atoms: C_7  and  C_8
REMARK    5  A    between atoms: C_9  and  C_10
REMARK    6  A    between atoms: C_10  and  C_12
REMARK    7  A    between atoms: C_15  and  O_16
REMARK    8  A    between atoms: C_18  and  O_19
REMARK                            x       y       z     vdW  Elec       q    Type
REMARK                         _______ _______ _______ _____ _____    ______ ____
ROOT
ATOM      1  C   UNL     1       0.583   9.812  21.823  0.00  0.00    +0.000 C 
ATOM      2  O   UNL     1       0.448  10.236  22.966  0.00  0.00    +0.000 OA
ENDROOT
BRANCH   1   3
ATOM      3  C   UNL     1       0.183  10.647  20.652  0.00  0.00    +0.000 A 
ATOM      4  C   UNL     1      -0.836  10.145  19.825  0.00  0.00    +0.000 A 
ATOM      5  C   UNL     1      -1.281  10.877  18.720  0.00  0.00    +0.000 A 
ATOM      6  C   UNL     1      -0.712  12.115  18.449  0.00  0.00    +0.000 A 
ATOM      7  C   UNL     1       0.290  12.635  19.258  0.00  0.00    +0.000 A 
ATOM      8  C   UNL     1       0.733  11.906  20.363  0.00  0.00    +0.000 A 
BRANCH   6   9
ATOM      9  O   UNL     1      -1.118  12.869  17.390  0.00  0.00    +0.000 OA
ATOM     10  H   UNL     1      -0.615  13.699  17.381  0.00  0.00    +0.000 HD
ENDBRANCH   6   9
BRANCH   8  11
ATOM     11  O   UNL     1       1.690  12.460  21.168  0.00  0.00    +0.000 OA
ATOM     12  H   UNL     1       1.956  11.821  21.850  0.00  0.00    +0.000 HD
ENDBRANCH   8  11
ENDBRANCH   1   3
BRANCH   1  14
ATOM     13  C   UNL     1       1.637   8.135  20.363  0.00  0.00    +0.000 C 
ATOM     14  C   UNL     1       1.096   8.443  21.551  0.00  0.00    +0.000 C 
BRANCH  13  18
ATOM     15  C   UNL     1       2.826   4.074  19.399  0.00  0.00    +0.000 A 
ATOM     16  C   UNL     1       2.154   4.407  20.587  0.00  0.00    +0.000 A 
ATOM     17  C   UNL     1       1.761   5.722  20.884  0.00  0.00    +0.000 A 
ATOM     18  C   UNL     1       2.016   6.764  19.992  0.00  0.00    +0.000 A 
ATOM     19  C   UNL     1       2.627   6.447  18.779  0.00  0.00    +0.000 A 
ATOM     20  C   UNL     1       3.026   5.131  18.496  0.00  0.00    +0.000 A 
BRANCH  15  22
ATOM     21  C   UNL     1       4.338   2.174  19.872  0.00  0.00    +0.000 C 
ATOM     22  N   UNL     1       3.248   2.776  19.113  0.00  0.00    +0.000 N 
ATOM     23  C   UNL     1       2.966   2.209  17.798  0.00  0.00    +0.000 C 
ENDBRANCH  15  22
ENDBRANCH  13  18
ENDBRANCH   1  14
TORSDOF 6
ENDMDL
