MODEL 1
REMARK VINA RESULT:      -7.6      0.000      0.000
REMARK  Name = 
REMARK  8 active torsions:
REMARK  status: ('A' for Active; 'I' for Inactive)
REMARK    1  A    between atoms: C_1  and  O_2
REMARK    2  A    between atoms: O_2  and  C_3
REMARK    3  A    between atoms: N_11  and  C_12
REMARK    4  A    between atoms: C_12  and  C_13
REMARK    5  A    between atoms: C_13  and  C_14
REMARK    6  A    between atoms: C_13  and  N_21
REMARK    7  A    between atoms: C_14  and  C_15
REMARK    8  A    between atoms: N_21  and  C_22
REMARK                            x       y       z     vdW  Elec       q    Type
REMARK                         _______ _______ _______ _____ _____    ______ ____
ROOT
ATOM      1  C   UNL     1       2.436   6.161  20.278  0.00  0.00    +0.000 C 
ENDROOT
BRANCH   1   2
ATOM      2  N   UNL     1       3.174   6.374  18.962  0.00  0.00    +0.000 N 
ATOM      3  C   UNL     1       2.440   6.909  17.855  0.00  0.00    +0.000 C 
ATOM      4  C   UNL     1       4.528   6.056  18.859  0.00  0.00    +0.000 C 
ATOM      5  O   UNL     1       5.096   5.510  19.817  0.00  0.00    +0.000 OA
ATOM      6  N   UNL     1       5.257   6.358  17.708  0.00  0.00    +0.000 N 
ATOM      7  C   UNL     1       4.876   6.852  16.365  0.00  0.00    +0.000 C 
ATOM      8  C   UNL     1       5.354   5.874  15.298  0.00  0.00    +0.000 C 
ATOM      9  O   UNL     1       6.781   5.827  15.306  0.00  0.00    +0.000 OA
ATOM     10  C   UNL     1       7.258   5.365  16.582  0.00  0.00    +0.000 C 
ATOM     11  C   UNL     1       6.722   6.197  17.764  0.00  0.00    +0.000 C 
ENDBRANCH   1   2
BRANCH   1  12
ATOM     12  C   UNL     1       1.318   7.248  20.487  0.00  0.00    +0.000 C 
BRANCH  12  21
ATOM     13  C   UNL     1      -1.723  12.656  21.037  0.00  0.00    +0.000 A 
ATOM     14  N   UNL     1      -1.931  13.813  21.670  0.00  0.00    +0.000 NA
ATOM     15  S   UNL     1      -1.250  13.597  23.173  0.00  0.00    +0.000 S 
ATOM     16  N   UNL     1      -0.682  12.041  23.029  0.00  0.00    +0.000 NA
ATOM     17  C   UNL     1      -0.985  11.630  21.788  0.00  0.00    +0.000 A 
ATOM     18  N   UNL     1      -0.693  10.361  21.337  0.00  0.00    +0.000 N 
ATOM     19  C   UNL     1      -0.312  10.063  19.947  0.00  0.00    +0.000 C 
ATOM     20  C   UNL     1       1.191   9.666  19.845  0.00  0.00    +0.000 C 
ATOM     21  N   UNL     1       1.709   8.648  20.796  0.00  0.00    +0.000 NA
ATOM     22  C   UNL     1       1.239   9.024  22.160  0.00  0.00    +0.000 C 
ATOM     23  C   UNL     1      -0.277   9.320  22.288  0.00  0.00    +0.000 C 
BRANCH  13  25
ATOM     24  C   UNL     1      -3.596  12.277  19.683  0.00  0.00    +0.000 C 
ATOM     25  O   UNL     1      -2.193  12.521  19.767  0.00  0.00    +0.000 OA
ENDBRANCH  13  25
ENDBRANCH  12  21
ENDBRANCH   1  12
BRANCH   1  26
ATOM     26  C   UNL     1       1.978   4.674  20.595  0.00  0.00    +0.000 C 
BRANCH  26  27
ATOM     27  C   UNL     1       2.480   3.448  19.818  0.00  0.00    +0.000 A 
ATOM     28  C   UNL     1       1.951   3.125  18.544  0.00  0.00    +0.000 A 
ATOM     29  C   UNL     1       2.390   2.020  17.817  0.00  0.00    +0.000 A 
ATOM     30  C   UNL     1       3.434   1.246  18.321  0.00  0.00    +0.000 A 
ATOM     31  C   UNL     1       3.997   1.558  19.554  0.00  0.00    +0.000 A 
ATOM     32  C   UNL     1       3.518   2.651  20.299  0.00  0.00    +0.000 A 
ENDBRANCH  26  27
ENDBRANCH   1  26
TORSDOF 6
ENDMDL
MODEL 2
REMARK VINA RESULT:      -7.1      3.723     10.033
REMARK  Name = 
REMARK  8 active torsions:
REMARK  status: ('A' for Active; 'I' for Inactive)
REMARK    1  A    between atoms: C_1  and  O_2
REMARK    2  A    between atoms: O_2  and  C_3
REMARK    3  A    between atoms: N_11  and  C_12
REMARK    4  A    between atoms: C_12  and  C_13
REMARK    5  A    between atoms: C_13  and  C_14
REMARK    6  A    between atoms: C_13  and  N_21
REMARK    7  A    between atoms: C_14  and  C_15
REMARK    8  A    between atoms: N_21  and  C_22
REMARK                            x       y       z     vdW  Elec       q    Type
REMARK                         _______ _______ _______ _____ _____    ______ ____
ROOT
ATOM      1  C   UNL     1       0.930  12.142  20.360  0.00  0.00    +0.000 C 
ENDROOT
BRANCH   1   2
ATOM      2  N   UNL     1      -0.514  12.549  20.628  0.00  0.00    +0.000 N 
ATOM      3  C   UNL     1      -1.260  13.138  19.557  0.00  0.00    +0.000 C 
ATOM      4  C   UNL     1      -1.078  12.341  21.887  0.00  0.00    +0.000 C 
ATOM      5  O   UNL     1      -0.365  11.913  22.807  0.00  0.00    +0.000 OA
ATOM      6  N   UNL     1      -2.431  12.586  22.122  0.00  0.00    +0.000 N 
ATOM      7  C   UNL     1      -3.503  13.223  21.323  0.00  0.00    +0.000 C 
ATOM      8  C   UNL     1      -4.103  14.392  22.096  0.00  0.00    +0.000 C 
ATOM      9  O   UNL     1      -4.737  13.900  23.277  0.00  0.00    +0.000 OA
ATOM     10  C   UNL     1      -3.775  13.249  24.125  0.00  0.00    +0.000 C 
ATOM     11  C   UNL     1      -2.996  12.131  23.406  0.00  0.00    +0.000 C 
ENDBRANCH   1   2
BRANCH   1  12
ATOM     12  C   UNL     1       1.055  11.340  19.013  0.00  0.00    +0.000 C 
BRANCH  12  21
ATOM     13  C   UNL     1       2.954   5.408  18.991  0.00  0.00    +0.000 A 
ATOM     14  N   UNL     1       2.796   4.136  19.366  0.00  0.00    +0.000 NA
ATOM     15  S   UNL     1       1.764   4.208  20.670  0.00  0.00    +0.000 S 
ATOM     16  N   UNL     1       1.506   5.848  20.763  0.00  0.00    +0.000 NA
ATOM     17  C   UNL     1       2.202   6.408  19.763  0.00  0.00    +0.000 A 
ATOM     18  N   UNL     1       2.246   7.771  19.565  0.00  0.00    +0.000 N 
ATOM     19  C   UNL     1       2.319   8.395  18.235  0.00  0.00    +0.000 C 
ATOM     20  C   UNL     1       0.983   9.111  17.871  0.00  0.00    +0.000 C 
ATOM     21  N   UNL     1       0.383  10.021  18.882  0.00  0.00    +0.000 NA
ATOM     22  C   UNL     1       0.391   9.308  20.192  0.00  0.00    +0.000 C 
ATOM     23  C   UNL     1       1.747   8.682  20.605  0.00  0.00    +0.000 C 
BRANCH  13  25
ATOM     24  C   UNL     1       4.072   4.542  17.125  0.00  0.00    +0.000 C 
ATOM     25  O   UNL     1       3.775   5.674  17.939  0.00  0.00    +0.000 OA
ENDBRANCH  13  25
ENDBRANCH  12  21
ENDBRANCH   1  12
BRANCH   1  26
ATOM     26  C   UNL     1       2.028  13.271  20.561  0.00  0.00    +0.000 C 
BRANCH  26  27
ATOM     27  C   UNL     1       2.362  14.328  19.499  0.00  0.00    +0.000 A 
ATOM     28  C   UNL     1       1.598  15.516  19.386  0.00  0.00    +0.000 A 
ATOM     29  C   UNL     1       1.882  16.493  18.433  0.00  0.00    +0.000 A 
ATOM     30  C   UNL     1       2.996  16.336  17.610  0.00  0.00    +0.000 A 
ATOM     31  C   UNL     1       3.786  15.196  17.719  0.00  0.00    +0.000 A 
ATOM     32  C   UNL     1       3.466  14.197  18.657  0.00  0.00    +0.000 A 
ENDBRANCH  26  27
ENDBRANCH   1  26
TORSDOF 6
ENDMDL
MODEL 3
REMARK VINA RESULT:      -7.1      1.516      2.085
REMARK  Name = 
REMARK  8 active torsions:
REMARK  status: ('A' for Active; 'I' for Inactive)
REMARK    1  A    between atoms: C_1  and  O_2
REMARK    2  A    between atoms: O_2  and  C_3
REMARK    3  A    between atoms: N_11  and  C_12
REMARK    4  A    between atoms: C_12  and  C_13
REMARK    5  A    between atoms: C_13  and  C_14
REMARK    6  A    between atoms: C_13  and  N_21
REMARK    7  A    between atoms: C_14  and  C_15
REMARK    8  A    between atoms: N_21  and  C_22
REMARK                            x       y       z     vdW  Elec       q    Type
REMARK                         _______ _______ _______ _____ _____    ______ ____
ROOT
ATOM      1  C   UNL     1       2.202   7.116  20.137  0.00  0.00    +0.000 C 
ENDROOT
BRANCH   1   2
ATOM      2  N   UNL     1       3.067   7.005  18.888  0.00  0.00    +0.000 N 
ATOM      3  C   UNL     1       2.652   7.710  17.713  0.00  0.00    +0.000 C 
ATOM      4  C   UNL     1       4.232   6.236  18.909  0.00  0.00    +0.000 C 
ATOM      5  O   UNL     1       4.500   5.571  19.921  0.00  0.00    +0.000 OA
ATOM      6  N   UNL     1       5.106   6.219  17.822  0.00  0.00    +0.000 N 
ATOM      7  C   UNL     1       5.025   6.754  16.443  0.00  0.00    +0.000 C 
ATOM      8  C   UNL     1       5.216   5.625  15.437  0.00  0.00    +0.000 C 
ATOM      9  O   UNL     1       6.533   5.090  15.571  0.00  0.00    +0.000 OA
ATOM     10  C   UNL     1       6.720   4.550  16.891  0.00  0.00    +0.000 C 
ATOM     11  C   UNL     1       6.416   5.566  18.008  0.00  0.00    +0.000 C 
ENDBRANCH   1   2
BRANCH   1  12
ATOM     12  C   UNL     1       1.634   8.574  20.309  0.00  0.00    +0.000 C 
BRANCH  12  21
ATOM     13  C   UNL     1      -1.858  13.300  22.372  0.00  0.00    +0.000 A 
ATOM     14  N   UNL     1      -2.972  14.034  22.314  0.00  0.00    +0.000 NA
ATOM     15  S   UNL     1      -3.613  13.705  20.814  0.00  0.00    +0.000 S 
ATOM     16  N   UNL     1      -2.488  12.627  20.232  0.00  0.00    +0.000 NA
ATOM     17  C   UNL     1      -1.570  12.464  21.198  0.00  0.00    +0.000 A 
ATOM     18  N   UNL     1      -0.462  11.661  21.038  0.00  0.00    +0.000 N 
ATOM     19  C   UNL     1       0.135  10.878  22.130  0.00  0.00    +0.000 C 
ATOM     20  C   UNL     1      -0.108   9.351  21.932  0.00  0.00    +0.000 C 
ATOM     21  N   UNL     1       0.190   8.766  20.598  0.00  0.00    +0.000 NA
ATOM     22  C   UNL     1      -0.428   9.651  19.569  0.00  0.00    +0.000 C 
ATOM     23  C   UNL     1      -0.104  11.161  19.703  0.00  0.00    +0.000 C 
BRANCH  13  25
ATOM     24  C   UNL     1      -1.231  14.596  24.219  0.00  0.00    +0.000 C 
ATOM     25  O   UNL     1      -1.093  13.376  23.496  0.00  0.00    +0.000 OA
ENDBRANCH  13  25
ENDBRANCH  12  21
ENDBRANCH   1  12
BRANCH   1  26
ATOM     26  C   UNL     1       1.135   5.962  20.359  0.00  0.00    +0.000 C 
BRANCH  26  27
ATOM     27  C   UNL     1       1.387   4.492  19.994  0.00  0.00    +0.000 A 
ATOM     28  C   UNL     1       1.404   4.069  18.642  0.00  0.00    +0.000 A 
ATOM     29  C   UNL     1       1.633   2.741  18.283  0.00  0.00    +0.000 A 
ATOM     30  C   UNL     1       1.928   1.810  19.277  0.00  0.00    +0.000 A 
ATOM     31  C   UNL     1       1.952   2.201  20.611  0.00  0.00    +0.000 A 
ATOM     32  C   UNL     1       1.678   3.536  20.966  0.00  0.00    +0.000 A 
ENDBRANCH  26  27
ENDBRANCH   1  26
TORSDOF 6
ENDMDL
MODEL 4
REMARK VINA RESULT:      -7.0      2.208      4.677
REMARK  Name = 
REMARK  8 active torsions:
REMARK  status: ('A' for Active; 'I' for Inactive)
REMARK    1  A    between atoms: C_1  and  O_2
REMARK    2  A    between atoms: O_2  and  C_3
REMARK    3  A    between atoms: N_11  and  C_12
REMARK    4  A    between atoms: C_12  and  C_13
REMARK    5  A    between atoms: C_13  and  C_14
REMARK    6  A    between atoms: C_13  and  N_21
REMARK    7  A    between atoms: C_14  and  C_15
REMARK    8  A    between atoms: N_21  and  C_22
REMARK                            x       y       z     vdW  Elec       q    Type
REMARK                         _______ _______ _______ _____ _____    ______ ____
ROOT
ATOM      1  C   UNL     1       2.887   7.520  17.630  0.00  0.00    +0.000 C 
ENDROOT
BRANCH   1   2
ATOM      2  N   UNL     1       2.415   6.575  18.728  0.00  0.00    +0.000 N 
ATOM      3  C   UNL     1       2.214   7.110  20.041  0.00  0.00    +0.000 C 
ATOM      4  C   UNL     1       2.183   5.230  18.441  0.00  0.00    +0.000 C 
ATOM      5  O   UNL     1       2.459   4.795  17.313  0.00  0.00    +0.000 OA
ATOM      6  N   UNL     1       1.632   4.372  19.393  0.00  0.00    +0.000 N 
ATOM      7  C   UNL     1       1.334   4.512  20.837  0.00  0.00    +0.000 C 
ATOM      8  C   UNL     1       2.058   3.427  21.624  0.00  0.00    +0.000 C 
ATOM      9  O   UNL     1       1.549   2.148  21.244  0.00  0.00    +0.000 OA
ATOM     10  C   UNL     1       1.780   1.916  19.844  0.00  0.00    +0.000 C 
ATOM     11  C   UNL     1       1.212   3.031  18.945  0.00  0.00    +0.000 C 
ENDBRANCH   1   2
BRANCH   1  12
ATOM     12  C   UNL     1       2.850   9.018  18.113  0.00  0.00    +0.000 C 
BRANCH  12  21
ATOM     13  C   UNL     1      -1.265  12.831  20.817  0.00  0.00    +0.000 A 
ATOM     14  N   UNL     1      -1.922  13.993  20.855  0.00  0.00    +0.000 NA
ATOM     15  S   UNL     1      -1.035  15.009  19.881  0.00  0.00    +0.000 S 
ATOM     16  N   UNL     1       0.182  13.983  19.400  0.00  0.00    +0.000 NA
ATOM     17  C   UNL     1      -0.066  12.793  19.968  0.00  0.00    +0.000 A 
ATOM     18  N   UNL     1       0.772  11.710  19.813  0.00  0.00    +0.000 N 
ATOM     19  C   UNL     1       0.295  10.320  19.740  0.00  0.00    +0.000 C 
ATOM     20  C   UNL     1       0.459   9.740  18.303  0.00  0.00    +0.000 C 
ATOM     21  N   UNL     1       1.771   9.916  17.626  0.00  0.00    +0.000 NA
ATOM     22  C   UNL     1       2.175  11.341  17.790  0.00  0.00    +0.000 C 
ATOM     23  C   UNL     1       2.112  11.894  19.237  0.00  0.00    +0.000 C 
BRANCH  13  25
ATOM     24  C   UNL     1      -1.253  11.726  22.881  0.00  0.00    +0.000 C 
ATOM     25  O   UNL     1      -1.751  11.790  21.547  0.00  0.00    +0.000 OA
ENDBRANCH  13  25
ENDBRANCH  12  21
ENDBRANCH   1  12
BRANCH   1  26
ATOM     26  C   UNL     1       4.217   7.105  16.868  0.00  0.00    +0.000 C 
BRANCH  26  27
ATOM     27  C   UNL     1       5.546   6.813  17.579  0.00  0.00    +0.000 A 
ATOM     28  C   UNL     1       5.694   5.676  18.412  0.00  0.00    +0.000 A 
ATOM     29  C   UNL     1       6.890   5.387  19.066  0.00  0.00    +0.000 A 
ATOM     30  C   UNL     1       8.001   6.196  18.839  0.00  0.00    +0.000 A 
ATOM     31  C   UNL     1       7.898   7.300  18.000  0.00  0.00    +0.000 A 
ATOM     32  C   UNL     1       6.674   7.608  17.377  0.00  0.00    +0.000 A 
ENDBRANCH  26  27
ENDBRANCH   1  26
TORSDOF 6
ENDMDL
MODEL 5
REMARK VINA RESULT:      -6.8      3.360      6.201
REMARK  Name = 
REMARK  8 active torsions:
REMARK  status: ('A' for Active; 'I' for Inactive)
REMARK    1  A    between atoms: C_1  and  O_2
REMARK    2  A    between atoms: O_2  and  C_3
REMARK    3  A    between atoms: N_11  and  C_12
REMARK    4  A    between atoms: C_12  and  C_13
REMARK    5  A    between atoms: C_13  and  C_14
REMARK    6  A    between atoms: C_13  and  N_21
REMARK    7  A    between atoms: C_14  and  C_15
REMARK    8  A    between atoms: N_21  and  C_22
REMARK                            x       y       z     vdW  Elec       q    Type
REMARK                         _______ _______ _______ _____ _____    ______ ____
ROOT
ATOM      1  C   UNL     1       0.817  10.200  19.604  0.00  0.00    +0.000 C 
ENDROOT
BRANCH   1   2
ATOM      2  N   UNL     1       1.518   8.948  19.093  0.00  0.00    +0.000 N 
ATOM      3  C   UNL     1       2.011   8.949  17.749  0.00  0.00    +0.000 C 
ATOM      4  C   UNL     1       1.670   7.841  19.929  0.00  0.00    +0.000 C 
ATOM      5  O   UNL     1       1.146   7.854  21.053  0.00  0.00    +0.000 OA
ATOM      6  N   UNL     1       2.416   6.731  19.530  0.00  0.00    +0.000 N 
ATOM      7  C   UNL     1       3.031   6.328  18.245  0.00  0.00    +0.000 C 
ATOM      8  C   UNL     1       2.495   4.967  17.817  0.00  0.00    +0.000 C 
ATOM      9  O   UNL     1       2.898   3.981  18.769  0.00  0.00    +0.000 OA
ATOM     10  C   UNL     1       2.357   4.288  20.065  0.00  0.00    +0.000 C 
ATOM     11  C   UNL     1       2.716   5.707  20.548  0.00  0.00    +0.000 C 
ENDBRANCH   1   2
BRANCH   1  12
ATOM     12  C   UNL     1       1.363  11.491  18.888  0.00  0.00    +0.000 C 
BRANCH  12  21
ATOM     13  C   UNL     1       0.338  17.570  19.776  0.00  0.00    +0.000 A 
ATOM     14  N   UNL     1       0.258  18.629  20.585  0.00  0.00    +0.000 NA
ATOM     15  S   UNL     1       0.084  17.980  22.108  0.00  0.00    +0.000 S 
ATOM     16  N   UNL     1       0.117  16.356  21.752  0.00  0.00    +0.000 NA
ATOM     17  C   UNL     1       0.285  16.252  20.425  0.00  0.00    +0.000 A 
ATOM     18  N   UNL     1       0.318  15.037  19.777  0.00  0.00    +0.000 N 
ATOM     19  C   UNL     1       1.159  14.769  18.600  0.00  0.00    +0.000 C 
ATOM     20  C   UNL     1       2.329  13.801  18.948  0.00  0.00    +0.000 C 
ATOM     21  N   UNL     1       2.006  12.559  19.697  0.00  0.00    +0.000 NA
ATOM     22  C   UNL     1       1.127  12.937  20.841  0.00  0.00    +0.000 C 
ATOM     23  C   UNL     1      -0.098  13.816  20.482  0.00  0.00    +0.000 C 
BRANCH  13  25
ATOM     24  C   UNL     1      -0.768  17.941  17.745  0.00  0.00    +0.000 C 
ATOM     25  O   UNL     1       0.468  17.787  18.438  0.00  0.00    +0.000 OA
ENDBRANCH  13  25
ENDBRANCH  12  21
ENDBRANCH   1  12
BRANCH   1  26
ATOM     26  C   UNL     1      -0.765  10.126  19.714  0.00  0.00    +0.000 C 
BRANCH  26  27
ATOM     27  C   UNL     1      -1.712  10.406  18.538  0.00  0.00    +0.000 A 
ATOM     28  C   UNL     1      -2.752  11.361  18.650  0.00  0.00    +0.000 A 
ATOM     29  C   UNL     1      -3.623  11.636  17.596  0.00  0.00    +0.000 A 
ATOM     30  C   UNL     1      -3.423  11.009  16.369  0.00  0.00    +0.000 A 
ATOM     31  C   UNL     1      -2.389  10.091  16.217  0.00  0.00    +0.000 A 
ATOM     32  C   UNL     1      -1.542   9.789  17.299  0.00  0.00    +0.000 A 
ENDBRANCH  26  27
ENDBRANCH   1  26
TORSDOF 6
ENDMDL
MODEL 6
REMARK VINA RESULT:      -6.8      4.187      6.859
REMARK  Name = 
REMARK  8 active torsions:
REMARK  status: ('A' for Active; 'I' for Inactive)
REMARK    1  A    between atoms: C_1  and  O_2
REMARK    2  A    between atoms: O_2  and  C_3
REMARK    3  A    between atoms: N_11  and  C_12
REMARK    4  A    between atoms: C_12  and  C_13
REMARK    5  A    between atoms: C_13  and  C_14
REMARK    6  A    between atoms: C_13  and  N_21
REMARK    7  A    between atoms: C_14  and  C_15
REMARK    8  A    between atoms: N_21  and  C_22
REMARK                            x       y       z     vdW  Elec       q    Type
REMARK                         _______ _______ _______ _____ _____    ______ ____
ROOT
ATOM      1  C   UNL     1       0.748  10.447  19.454  0.00  0.00    +0.000 C 
ENDROOT
BRANCH   1   2
ATOM      2  N   UNL     1       1.431   9.151  19.036  0.00  0.00    +0.000 N 
ATOM      3  C   UNL     1       1.989   9.075  17.720  0.00  0.00    +0.000 C 
ATOM      4  C   UNL     1       1.506   8.080  19.927  0.00  0.00    +0.000 C 
ATOM      5  O   UNL     1       0.928   8.162  21.022  0.00  0.00    +0.000 OA
ATOM      6  N   UNL     1       2.233   6.931  19.617  0.00  0.00    +0.000 N 
ATOM      7  C   UNL     1       2.896   6.449  18.383  0.00  0.00    +0.000 C 
ATOM      8  C   UNL     1       2.337   5.087  17.991  0.00  0.00    +0.000 C 
ATOM      9  O   UNL     1       2.660   4.134  19.005  0.00  0.00    +0.000 OA
ATOM     10  C   UNL     1       2.067   4.518  20.257  0.00  0.00    +0.000 C 
ATOM     11  C   UNL     1       2.449   5.946  20.694  0.00  0.00    +0.000 C 
ENDBRANCH   1   2
BRANCH   1  12
ATOM     12  C   UNL     1       1.280  11.667  18.615  0.00  0.00    +0.000 C 
BRANCH  12  21
ATOM     13  C   UNL     1       4.063  15.860  22.284  0.00  0.00    +0.000 A 
ATOM     14  N   UNL     1       4.436  17.117  22.538  0.00  0.00    +0.000 NA
ATOM     15  S   UNL     1       4.363  17.882  21.062  0.00  0.00    +0.000 S 
ATOM     16  N   UNL     1       3.853  16.629  20.095  0.00  0.00    +0.000 NA
ATOM     17  C   UNL     1       3.698  15.561  20.892  0.00  0.00    +0.000 A 
ATOM     18  N   UNL     1       3.319  14.327  20.411  0.00  0.00    +0.000 N 
ATOM     19  C   UNL     1       2.470  13.390  21.162  0.00  0.00    +0.000 C 
ATOM     20  C   UNL     1       1.053  13.273  20.524  0.00  0.00    +0.000 C 
ATOM     21  N   UNL     1       0.966  13.051  19.057  0.00  0.00    +0.000 NA
ATOM     22  C   UNL     1       1.886  14.022  18.398  0.00  0.00    +0.000 C 
ATOM     23  C   UNL     1       3.328  14.068  18.963  0.00  0.00    +0.000 C 
BRANCH  13  25
ATOM     24  C   UNL     1       5.297  14.353  23.584  0.00  0.00    +0.000 C 
ATOM     25  O   UNL     1       4.041  14.972  23.316  0.00  0.00    +0.000 OA
ENDBRANCH  13  25
ENDBRANCH  12  21
ENDBRANCH   1  12
BRANCH   1  26
ATOM     26  C   UNL     1      -0.830  10.392  19.612  0.00  0.00    +0.000 C 
BRANCH  26  27
ATOM     27  C   UNL     1      -1.806  10.531  18.435  0.00  0.00    +0.000 A 
ATOM     28  C   UNL     1      -2.881  11.453  18.482  0.00  0.00    +0.000 A 
ATOM     29  C   UNL     1      -3.779  11.602  17.427  0.00  0.00    +0.000 A 
ATOM     30  C   UNL     1      -3.576  10.875  16.256  0.00  0.00    +0.000 A 
ATOM     31  C   UNL     1      -2.510   9.986  16.165  0.00  0.00    +0.000 A 
ATOM     32  C   UNL     1      -1.633   9.813  17.252  0.00  0.00    +0.000 A 
ENDBRANCH  26  27
ENDBRANCH   1  26
TORSDOF 6
ENDMDL
MODEL 7
REMARK VINA RESULT:      -6.8      4.131      8.985
REMARK  Name = 
REMARK  8 active torsions:
REMARK  status: ('A' for Active; 'I' for Inactive)
REMARK    1  A    between atoms: C_1  and  O_2
REMARK    2  A    between atoms: O_2  and  C_3
REMARK    3  A    between atoms: N_11  and  C_12
REMARK    4  A    between atoms: C_12  and  C_13
REMARK    5  A    between atoms: C_13  and  C_14
REMARK    6  A    between atoms: C_13  and  N_21
REMARK    7  A    between atoms: C_14  and  C_15
REMARK    8  A    between atoms: N_21  and  C_22
REMARK                            x       y       z     vdW  Elec       q    Type
REMARK                         _______ _______ _______ _____ _____    ______ ____
ROOT
ATOM      1  C   UNL     1       0.132  12.398  19.444  0.00  0.00    +0.000 C 
ENDROOT
BRANCH   1   2
ATOM      2  N   UNL     1       0.934  13.621  19.874  0.00  0.00    +0.000 N 
ATOM      3  C   UNL     1       0.448  14.394  20.977  0.00  0.00    +0.000 C 
ATOM      4  C   UNL     1       2.109  13.958  19.203  0.00  0.00    +0.000 C 
ATOM      5  O   UNL     1       2.439  13.312  18.197  0.00  0.00    +0.000 OA
ATOM      6  N   UNL     1       2.927  14.995  19.654  0.00  0.00    +0.000 N 
ATOM      7  C   UNL     1       2.767  16.037  20.694  0.00  0.00    +0.000 C 
ATOM      8  C   UNL     1       2.923  17.420  20.072  0.00  0.00    +0.000 C 
ATOM      9  O   UNL     1       4.254  17.566  19.575  0.00  0.00    +0.000 OA
ATOM     10  C   UNL     1       4.517  16.585  18.557  0.00  0.00    +0.000 C 
ATOM     11  C   UNL     1       4.254  15.141  19.028  0.00  0.00    +0.000 C 
ENDBRANCH   1   2
BRANCH   1  12
ATOM     12  C   UNL     1       0.755  11.076  20.025  0.00  0.00    +0.000 C 
BRANCH  12  21
ATOM     13  C   UNL     1       2.981   5.397  18.762  0.00  0.00    +0.000 A 
ATOM     14  N   UNL     1       2.916   4.069  18.886  0.00  0.00    +0.000 NA
ATOM     15  S   UNL     1       1.955   3.820  20.221  0.00  0.00    +0.000 S 
ATOM     16  N   UNL     1       1.609   5.391  20.645  0.00  0.00    +0.000 NA
ATOM     17  C   UNL     1       2.218   6.179  19.745  0.00  0.00    +0.000 A 
ATOM     18  N   UNL     1       2.174   7.554  19.816  0.00  0.00    +0.000 N 
ATOM     19  C   UNL     1       2.139   8.426  18.632  0.00  0.00    +0.000 C 
ATOM     20  C   UNL     1       0.747   9.109  18.473  0.00  0.00    +0.000 C 
ATOM     21  N   UNL     1       0.153   9.765  19.667  0.00  0.00    +0.000 NA
ATOM     22  C   UNL     1       0.272   8.815  20.810  0.00  0.00    +0.000 C 
ATOM     23  C   UNL     1       1.681   8.212  21.035  0.00  0.00    +0.000 C 
BRANCH  13  25
ATOM     24  C   UNL     1       4.519   4.954  17.052  0.00  0.00    +0.000 C 
ATOM     25  O   UNL     1       3.728   5.915  17.748  0.00  0.00    +0.000 OA
ENDBRANCH  13  25
ENDBRANCH  12  21
ENDBRANCH   1  12
BRANCH   1  26
ATOM     26  C   UNL     1      -1.445  12.504  19.590  0.00  0.00    +0.000 C 
BRANCH  26  27
ATOM     27  C   UNL     1      -2.432  11.976  18.538  0.00  0.00    +0.000 A 
ATOM     28  C   UNL     1      -1.973  11.471  17.296  0.00  0.00    +0.000 A 
ATOM     29  C   UNL     1      -2.847  10.983  16.326  0.00  0.00    +0.000 A 
ATOM     30  C   UNL     1      -4.210  10.920  16.609  0.00  0.00    +0.000 A 
ATOM     31  C   UNL     1      -4.688  11.376  17.833  0.00  0.00    +0.000 A 
ATOM     32  C   UNL     1      -3.801  11.906  18.790  0.00  0.00    +0.000 A 
ENDBRANCH  26  27
ENDBRANCH   1  26
TORSDOF 6
ENDMDL
MODEL 8
REMARK VINA RESULT:      -6.8      4.696      7.231
REMARK  Name = 
REMARK  8 active torsions:
REMARK  status: ('A' for Active; 'I' for Inactive)
REMARK    1  A    between atoms: C_1  and  O_2
REMARK    2  A    between atoms: O_2  and  C_3
REMARK    3  A    between atoms: N_11  and  C_12
REMARK    4  A    between atoms: C_12  and  C_13
REMARK    5  A    between atoms: C_13  and  C_14
REMARK    6  A    between atoms: C_13  and  N_21
REMARK    7  A    between atoms: C_14  and  C_15
REMARK    8  A    between atoms: N_21  and  C_22
REMARK                            x       y       z     vdW  Elec       q    Type
REMARK                         _______ _______ _______ _____ _____    ______ ____
ROOT
ATOM      1  C   UNL     1       0.568  12.112  20.639  0.00  0.00    +0.000 C 
ENDROOT
BRANCH   1   2
ATOM      2  N   UNL     1       1.070  13.327  19.869  0.00  0.00    +0.000 N 
ATOM      3  C   UNL     1       0.430  13.655  18.631  0.00  0.00    +0.000 C 
ATOM      4  C   UNL     1       2.124  14.090  20.375  0.00  0.00    +0.000 C 
ATOM      5  O   UNL     1       2.705  13.713  21.403  0.00  0.00    +0.000 OA
ATOM      6  N   UNL     1       2.519  15.276  19.756  0.00  0.00    +0.000 N 
ATOM      7  C   UNL     1       2.159  15.923  18.473  0.00  0.00    +0.000 C 
ATOM      8  C   UNL     1       3.412  16.148  17.636  0.00  0.00    +0.000 C 
ATOM      9  O   UNL     1       4.271  17.068  18.309  0.00  0.00    +0.000 OA
ATOM     10  C   UNL     1       4.674  16.535  19.583  0.00  0.00    +0.000 C 
ATOM     11  C   UNL     1       3.481  16.134  20.473  0.00  0.00    +0.000 C 
ENDBRANCH   1   2
BRANCH   1  12
ATOM     12  C   UNL     1      -0.401  12.537  21.804  0.00  0.00    +0.000 C 
BRANCH  12  21
ATOM     13  C   UNL     1      -6.593  12.885  22.382  0.00  0.00    +0.000 A 
ATOM     14  N   UNL     1      -7.690  13.553  22.744  0.00  0.00    +0.000 NA
ATOM     15  S   UNL     1      -7.138  14.739  23.773  0.00  0.00    +0.000 S 
ATOM     16  N   UNL     1      -5.507  14.418  23.759  0.00  0.00    +0.000 NA
ATOM     17  C   UNL     1      -5.322  13.378  22.932  0.00  0.00    +0.000 A 
ATOM     18  N   UNL     1      -4.082  12.818  22.712  0.00  0.00    +0.000 N 
ATOM     19  C   UNL     1      -3.664  12.258  21.418  0.00  0.00    +0.000 C 
ATOM     20  C   UNL     1      -2.583  13.150  20.738  0.00  0.00    +0.000 C 
ATOM     21  N   UNL     1      -1.423  13.587  21.558  0.00  0.00    +0.000 NA
ATOM     22  C   UNL     1      -1.954  14.101  22.853  0.00  0.00    +0.000 C 
ATOM     23  C   UNL     1      -2.952  13.169  23.585  0.00  0.00    +0.000 C 
BRANCH  13  25
ATOM     24  C   UNL     1      -7.332  12.143  20.287  0.00  0.00    +0.000 C 
ATOM     25  O   UNL     1      -6.731  11.824  21.540  0.00  0.00    +0.000 OA
ENDBRANCH  13  25
ENDBRANCH  12  21
ENDBRANCH   1  12
BRANCH   1  26
ATOM     26  C   UNL     1       0.055  10.889  19.767  0.00  0.00    +0.000 C 
BRANCH  26  27
ATOM     27  C   UNL     1       0.937   9.691  19.384  0.00  0.00    +0.000 A 
ATOM     28  C   UNL     1       1.225   8.668  20.321  0.00  0.00    +0.000 A 
ATOM     29  C   UNL     1       2.020   7.569  19.999  0.00  0.00    +0.000 A 
ATOM     30  C   UNL     1       2.488   7.429  18.694  0.00  0.00    +0.000 A 
ATOM     31  C   UNL     1       2.194   8.400  17.742  0.00  0.00    +0.000 A 
ATOM     32  C   UNL     1       1.426   9.526  18.089  0.00  0.00    +0.000 A 
ENDBRANCH  26  27
ENDBRANCH   1  26
TORSDOF 6
ENDMDL
MODEL 9
REMARK VINA RESULT:      -6.8      4.732      8.735
REMARK  Name = 
REMARK  8 active torsions:
REMARK  status: ('A' for Active; 'I' for Inactive)
REMARK    1  A    between atoms: C_1  and  O_2
REMARK    2  A    between atoms: O_2  and  C_3
REMARK    3  A    between atoms: N_11  and  C_12
REMARK    4  A    between atoms: C_12  and  C_13
REMARK    5  A    between atoms: C_13  and  C_14
REMARK    6  A    between atoms: C_13  and  N_21
REMARK    7  A    between atoms: C_14  and  C_15
REMARK    8  A    between atoms: N_21  and  C_22
REMARK                            x       y       z     vdW  Elec       q    Type
REMARK                         _______ _______ _______ _____ _____    ______ ____
ROOT
ATOM      1  C   UNL     1      -0.612  11.566  19.133  0.00  0.00    +0.000 C 
ENDROOT
BRANCH   1   2
ATOM      2  N   UNL     1      -2.054  11.939  19.455  0.00  0.00    +0.000 N 
ATOM      3  C   UNL     1      -2.310  12.676  20.655  0.00  0.00    +0.000 C 
ATOM      4  C   UNL     1      -3.083  11.569  18.588  0.00  0.00    +0.000 C 
ATOM      5  O   UNL     1      -2.822  10.853  17.609  0.00  0.00    +0.000 OA
ATOM      6  N   UNL     1      -4.392  12.005  18.792  0.00  0.00    +0.000 N 
ATOM      7  C   UNL     1      -5.065  12.719  19.902  0.00  0.00    +0.000 C 
ATOM      8  C   UNL     1      -6.238  11.892  20.416  0.00  0.00    +0.000 C 
ATOM      9  O   UNL     1      -7.216  11.768  19.382  0.00  0.00    +0.000 OA
ATOM     10  C   UNL     1      -6.656  11.091  18.244  0.00  0.00    +0.000 C 
ATOM     11  C   UNL     1      -5.371  11.759  17.716  0.00  0.00    +0.000 C 
ENDBRANCH   1   2
BRANCH   1  12
ATOM     12  C   UNL     1       0.283  12.848  18.963  0.00  0.00    +0.000 C 
BRANCH  12  21
ATOM     13  C   UNL     1       4.360  17.475  19.840  0.00  0.00    +0.000 A 
ATOM     14  N   UNL     1       4.963  18.356  20.641  0.00  0.00    +0.000 NA
ATOM     15  S   UNL     1       3.976  18.452  21.978  0.00  0.00    +0.000 S 
ATOM     16  N   UNL     1       2.783  17.374  21.552  0.00  0.00    +0.000 NA
ATOM     17  C   UNL     1       3.118  16.877  20.351  0.00  0.00    +0.000 A 
ATOM     18  N   UNL     1       2.325  15.976  19.675  0.00  0.00    +0.000 N 
ATOM     19  C   UNL     1       2.862  14.899  18.829  0.00  0.00    +0.000 C 
ATOM     20  C   UNL     1       2.645  13.502  19.484  0.00  0.00    +0.000 C 
ATOM     21  N   UNL     1       1.290  13.180  20.004  0.00  0.00    +0.000 NA
ATOM     22  C   UNL     1       0.829  14.344  20.814  0.00  0.00    +0.000 C 
ATOM     23  C   UNL     1       0.948  15.727  20.125  0.00  0.00    +0.000 C 
BRANCH  13  25
ATOM     24  C   UNL     1       6.232  16.613  18.728  0.00  0.00    +0.000 C 
ATOM     25  O   UNL     1       4.935  17.197  18.637  0.00  0.00    +0.000 OA
ENDBRANCH  13  25
ENDBRANCH  12  21
ENDBRANCH   1  12
BRANCH   1  26
ATOM     26  C   UNL     1       0.034  10.422  20.025  0.00  0.00    +0.000 C 
BRANCH  26  27
ATOM     27  C   UNL     1       0.998   9.361  19.475  0.00  0.00    +0.000 A 
ATOM     28  C   UNL     1       1.395   8.256  20.269  0.00  0.00    +0.000 A 
ATOM     29  C   UNL     1       2.266   7.277  19.793  0.00  0.00    +0.000 A 
ATOM     30  C   UNL     1       2.705   7.342  18.473  0.00  0.00    +0.000 A 
ATOM     31  C   UNL     1       2.306   8.395  17.658  0.00  0.00    +0.000 A 
ATOM     32  C   UNL     1       1.459   9.401  18.161  0.00  0.00    +0.000 A 
ENDBRANCH  26  27
ENDBRANCH   1  26
TORSDOF 6
ENDMDL
