MODEL 1
REMARK VINA RESULT:      -8.4      0.000      0.000
REMARK  Name = 
REMARK  4 active torsions:
REMARK  status: ('A' for Active; 'I' for Inactive)
REMARK    1  A    between atoms: C_1  and  N_2
REMARK    2  A    between atoms: C_7  and  C_8
REMARK    3  A    between atoms: C_14  and  C_15
REMARK    4  A    between atoms: C_21  and  C_22
REMARK                            x       y       z     vdW  Elec       q    Type
REMARK                         _______ _______ _______ _____ _____    ______ ____
ROOT
ATOM      1  C   UNL     1       3.743   0.892  18.913  0.00  0.00    +0.000 C 
ATOM      2  N   UNL     1       3.521   2.252  19.445  0.00  0.00    +0.000 NA
ATOM      3  C   UNL     1       2.453   2.182  20.464  0.00  0.00    +0.000 C 
ATOM      4  C   UNL     1       2.231   3.539  21.116  0.00  0.00    +0.000 C 
ATOM      5  C   UNL     1       1.858   4.555  20.046  0.00  0.00    +0.000 C 
ATOM      6  C   UNL     1       3.029   4.668  19.038  0.00  0.00    +0.000 C 
ATOM      7  C   UNL     1       2.785   5.764  17.950  0.00  0.00    +0.000 C 
ATOM      8  C   UNL     1       4.003   5.844  16.951  0.00  0.00    +0.000 C 
ATOM      9  C   UNL     1       4.164   4.430  16.276  0.00  0.00    +0.000 C 
ATOM     10  C   UNL     1       4.346   3.320  17.346  0.00  0.00    +0.000 C 
ATOM     11  C   UNL     1       3.215   3.264  18.385  0.00  0.00    +0.000 C 
ENDROOT
BRANCH   7  12
ATOM     12  C   UNL     1       2.369   7.131  18.503  0.00  0.00    +0.000 A 
ATOM     13  C   UNL     1       2.103   7.356  19.879  0.00  0.00    +0.000 A 
ATOM     14  C   UNL     1       1.732   8.615  20.339  0.00  0.00    +0.000 A 
ATOM     15  C   UNL     1       1.597   9.676  19.445  0.00  0.00    +0.000 A 
ATOM     16  C   UNL     1       1.838   9.477  18.085  0.00  0.00    +0.000 A 
ATOM     17  C   UNL     1       2.227   8.217  17.616  0.00  0.00    +0.000 A 
ENDBRANCH   7  12
BRANCH   8  18
ATOM     18  C   UNL     1       5.326   6.367  17.580  0.00  0.00    +0.000 C 
ATOM     19  N   UNL     1       5.832   5.726  18.586  0.00  0.00    +0.000 NA
ATOM     20  C   UNL     1       7.112   5.985  19.225  0.00  0.00    +0.000 C 
ATOM     21  C   UNL     1       8.028   6.864  18.370  0.00  0.00    +0.000 C 
ATOM     22  C   UNL     1       7.217   8.041  17.876  0.00  0.00    +0.000 C 
ATOM     23  C   UNL     1       6.116   7.515  16.948  0.00  0.00    +0.000 C 
ENDBRANCH   8  18
BRANCH   9  24
ATOM     24  C   UNL     1       5.275   4.391  15.206  0.00  0.00    +0.000 A 
ATOM     25  C   UNL     1       6.600   4.829  15.462  0.00  0.00    +0.000 A 
ATOM     26  C   UNL     1       7.582   4.771  14.475  0.00  0.00    +0.000 A 
ATOM     27  C   UNL     1       7.273   4.278  13.211  0.00  0.00    +0.000 A 
ATOM     28  C   UNL     1       5.978   3.839  12.933  0.00  0.00    +0.000 A 
ATOM     29  C   UNL     1       4.987   3.893  13.919  0.00  0.00    +0.000 A 
ENDBRANCH   9  24
TORSDOF 3
ENDMDL
MODEL 2
REMARK VINA RESULT:      -8.2      5.446     10.545
REMARK  Name = 
REMARK  4 active torsions:
REMARK  status: ('A' for Active; 'I' for Inactive)
REMARK    1  A    between atoms: C_1  and  N_2
REMARK    2  A    between atoms: C_7  and  C_8
REMARK    3  A    between atoms: C_14  and  C_15
REMARK    4  A    between atoms: C_21  and  C_22
REMARK                            x       y       z     vdW  Elec       q    Type
REMARK                         _______ _______ _______ _____ _____    ______ ____
ROOT
ATOM      1  C   UNL     1      -5.287  12.469  17.729  0.00  0.00    +0.000 C 
ATOM      2  N   UNL     1      -3.968  11.872  17.441  0.00  0.00    +0.000 NA
ATOM      3  C   UNL     1      -4.155  10.787  16.455  0.00  0.00    +0.000 C 
ATOM      4  C   UNL     1      -2.818  10.182  16.050  0.00  0.00    +0.000 C 
ATOM      5  C   UNL     1      -2.117   9.640  17.287  0.00  0.00    +0.000 C 
ATOM      6  C   UNL     1      -1.860  10.812  18.267  0.00  0.00    +0.000 C 
ATOM      7  C   UNL     1      -1.050  10.376  19.531  0.00  0.00    +0.000 C 
ATOM      8  C   UNL     1      -0.811  11.602  20.495  0.00  0.00    +0.000 C 
ATOM      9  C   UNL     1      -2.220  12.164  20.915  0.00  0.00    +0.000 C 
ATOM     10  C   UNL     1      -3.062  12.545  19.668  0.00  0.00    +0.000 C 
ATOM     11  C   UNL     1      -3.250  11.395  18.666  0.00  0.00    +0.000 C 
ENDROOT
BRANCH   7  12
ATOM     12  C   UNL     1       0.229   9.588  19.229  0.00  0.00    +0.000 A 
ATOM     13  C   UNL     1       0.908   9.668  17.986  0.00  0.00    +0.000 A 
ATOM     14  C   UNL     1       2.069   8.938  17.756  0.00  0.00    +0.000 A 
ATOM     15  C   UNL     1       2.575   8.097  18.746  0.00  0.00    +0.000 A 
ATOM     16  C   UNL     1       1.917   7.989  19.972  0.00  0.00    +0.000 A 
ATOM     17  C   UNL     1       0.757   8.731  20.217  0.00  0.00    +0.000 A 
ENDBRANCH   7  12
BRANCH   8  18
ATOM     18  C   UNL     1       0.133  12.700  19.927  0.00  0.00    +0.000 C 
ATOM     19  N   UNL     1       1.359  12.742  20.343  0.00  0.00    +0.000 NA
ATOM     20  C   UNL     1       2.416  13.608  19.844  0.00  0.00    +0.000 C 
ATOM     21  C   UNL     1       2.069  14.239  18.493  0.00  0.00    +0.000 C 
ATOM     22  C   UNL     1       0.665  14.792  18.584  0.00  0.00    +0.000 C 
ATOM     23  C   UNL     1      -0.305  13.623  18.788  0.00  0.00    +0.000 C 
ENDBRANCH   8  18
BRANCH   9  24
ATOM     24  C   UNL     1      -2.134  13.322  21.931  0.00  0.00    +0.000 A 
ATOM     25  C   UNL     1      -1.464  13.200  23.176  0.00  0.00    +0.000 A 
ATOM     26  C   UNL     1      -1.397  14.269  24.067  0.00  0.00    +0.000 A 
ATOM     27  C   UNL     1      -1.994  15.484  23.745  0.00  0.00    +0.000 A 
ATOM     28  C   UNL     1      -2.658  15.632  22.526  0.00  0.00    +0.000 A 
ATOM     29  C   UNL     1      -2.728  14.564  21.626  0.00  0.00    +0.000 A 
ENDBRANCH   9  24
TORSDOF 3
ENDMDL
MODEL 3
REMARK VINA RESULT:      -8.2      5.485      9.950
REMARK  Name = 
REMARK  4 active torsions:
REMARK  status: ('A' for Active; 'I' for Inactive)
REMARK    1  A    between atoms: C_1  and  N_2
REMARK    2  A    between atoms: C_7  and  C_8
REMARK    3  A    between atoms: C_14  and  C_15
REMARK    4  A    between atoms: C_21  and  C_22
REMARK                            x       y       z     vdW  Elec       q    Type
REMARK                         _______ _______ _______ _____ _____    ______ ____
ROOT
ATOM      1  C   UNL     1       2.419  15.162  18.461  0.00  0.00    +0.000 C 
ATOM      2  N   UNL     1       0.970  15.087  18.734  0.00  0.00    +0.000 NA
ATOM      3  C   UNL     1       0.521  16.409  19.219  0.00  0.00    +0.000 C 
ATOM      4  C   UNL     1      -0.985  16.426  19.441  0.00  0.00    +0.000 C 
ATOM      5  C   UNL     1      -1.356  15.352  20.453  0.00  0.00    +0.000 C 
ATOM      6  C   UNL     1      -0.949  13.970  19.882  0.00  0.00    +0.000 C 
ATOM      7  C   UNL     1      -1.379  12.784  20.805  0.00  0.00    +0.000 C 
ATOM      8  C   UNL     1      -0.948  11.401  20.182  0.00  0.00    +0.000 C 
ATOM      9  C   UNL     1       0.617  11.421  20.011  0.00  0.00    +0.000 C 
ATOM     10  C   UNL     1       1.069  12.628  19.146  0.00  0.00    +0.000 C 
ATOM     11  C   UNL     1       0.597  13.989  19.681  0.00  0.00    +0.000 C 
ENDROOT
BRANCH   7  12
ATOM     12  C   UNL     1      -2.849  12.817  21.242  0.00  0.00    +0.000 A 
ATOM     13  C   UNL     1      -3.925  12.880  20.319  0.00  0.00    +0.000 A 
ATOM     14  C   UNL     1      -5.244  12.902  20.759  0.00  0.00    +0.000 A 
ATOM     15  C   UNL     1      -5.527  12.883  22.124  0.00  0.00    +0.000 A 
ATOM     16  C   UNL     1      -4.486  12.836  23.052  0.00  0.00    +0.000 A 
ATOM     17  C   UNL     1      -3.156  12.798  22.617  0.00  0.00    +0.000 A 
ENDBRANCH   7  12
BRANCH   8  18
ATOM     18  C   UNL     1      -1.694  11.018  18.873  0.00  0.00    +0.000 C 
ATOM     19  N   UNL     1      -1.660  11.842  17.873  0.00  0.00    +0.000 NA
ATOM     20  C   UNL     1      -2.186  11.610  16.538  0.00  0.00    +0.000 C 
ATOM     21  C   UNL     1      -2.473  10.130  16.270  0.00  0.00    +0.000 C 
ATOM     22  C   UNL     1      -3.238   9.581  17.452  0.00  0.00    +0.000 C 
ATOM     23  C   UNL     1      -2.329   9.639  18.686  0.00  0.00    +0.000 C 
ENDBRANCH   8  18
BRANCH   9  24
ATOM     24  C   UNL     1       1.187  10.086  19.485  0.00  0.00    +0.000 A 
ATOM     25  C   UNL     1       1.638   9.921  18.150  0.00  0.00    +0.000 A 
ATOM     26  C   UNL     1       2.156   8.704  17.709  0.00  0.00    +0.000 A 
ATOM     27  C   UNL     1       2.237   7.623  18.582  0.00  0.00    +0.000 A 
ATOM     28  C   UNL     1       1.801   7.760  19.901  0.00  0.00    +0.000 A 
ATOM     29  C   UNL     1       1.282   8.978  20.351  0.00  0.00    +0.000 A 
ENDBRANCH   9  24
TORSDOF 3
ENDMDL
MODEL 4
REMARK VINA RESULT:      -8.1      5.437      9.842
REMARK  Name = 
REMARK  4 active torsions:
REMARK  status: ('A' for Active; 'I' for Inactive)
REMARK    1  A    between atoms: C_1  and  N_2
REMARK    2  A    between atoms: C_7  and  C_8
REMARK    3  A    between atoms: C_14  and  C_15
REMARK    4  A    between atoms: C_21  and  C_22
REMARK                            x       y       z     vdW  Elec       q    Type
REMARK                         _______ _______ _______ _____ _____    ______ ____
ROOT
ATOM      1  C   UNL     1       2.521  15.057  18.456  0.00  0.00    +0.000 C 
ATOM      2  N   UNL     1       1.069  15.003  18.719  0.00  0.00    +0.000 NA
ATOM      3  C   UNL     1       0.636  16.333  19.196  0.00  0.00    +0.000 C 
ATOM      4  C   UNL     1      -0.871  16.372  19.407  0.00  0.00    +0.000 C 
ATOM      5  C   UNL     1      -1.265  15.306  20.419  0.00  0.00    +0.000 C 
ATOM      6  C   UNL     1      -0.873  13.916  19.857  0.00  0.00    +0.000 C 
ATOM      7  C   UNL     1      -1.327  12.740  20.781  0.00  0.00    +0.000 C 
ATOM      8  C   UNL     1      -0.910  11.349  20.165  0.00  0.00    +0.000 C 
ATOM      9  C   UNL     1       0.657  11.346  20.006  0.00  0.00    +0.000 C 
ATOM     10  C   UNL     1       1.131  12.544  19.141  0.00  0.00    +0.000 C 
ATOM     11  C   UNL     1       0.675  13.914  19.667  0.00  0.00    +0.000 C 
ENDROOT
BRANCH   7  12
ATOM     12  C   UNL     1      -2.799  12.794  21.206  0.00  0.00    +0.000 A 
ATOM     13  C   UNL     1      -3.210  12.749  22.563  0.00  0.00    +0.000 A 
ATOM     14  C   UNL     1      -4.557  12.806  22.905  0.00  0.00    +0.000 A 
ATOM     15  C   UNL     1      -5.529  12.890  21.910  0.00  0.00    +0.000 A 
ATOM     16  C   UNL     1      -5.151  12.921  20.567  0.00  0.00    +0.000 A 
ATOM     17  C   UNL     1      -3.797  12.879  20.215  0.00  0.00    +0.000 A 
ENDBRANCH   7  12
BRANCH   8  18
ATOM     18  C   UNL     1      -1.652  10.971  18.852  0.00  0.00    +0.000 C 
ATOM     19  N   UNL     1      -2.386   9.903  18.836  0.00  0.00    +0.000 NA
ATOM     20  C   UNL     1      -3.246   9.456  17.753  0.00  0.00    +0.000 C 
ATOM     21  C   UNL     1      -3.522  10.561  16.730  0.00  0.00    +0.000 C 
ATOM     22  C   UNL     1      -2.205  11.215  16.382  0.00  0.00    +0.000 C 
ATOM     23  C   UNL     1      -1.659  11.903  17.638  0.00  0.00    +0.000 C 
ENDBRANCH   8  18
BRANCH   9  24
ATOM     24  C   UNL     1       1.211  10.002  19.488  0.00  0.00    +0.000 A 
ATOM     25  C   UNL     1       1.331   8.854  20.314  0.00  0.00    +0.000 A 
ATOM     26  C   UNL     1       1.828   7.653  19.812  0.00  0.00    +0.000 A 
ATOM     27  C   UNL     1       2.218   7.563  18.479  0.00  0.00    +0.000 A 
ATOM     28  C   UNL     1       2.109   8.676  17.644  0.00  0.00    +0.000 A 
ATOM     29  C   UNL     1       1.611   9.885  18.141  0.00  0.00    +0.000 A 
ENDBRANCH   9  24
TORSDOF 3
ENDMDL
MODEL 5
REMARK VINA RESULT:      -8.0      5.568     10.652
REMARK  Name = 
REMARK  4 active torsions:
REMARK  status: ('A' for Active; 'I' for Inactive)
REMARK    1  A    between atoms: C_1  and  N_2
REMARK    2  A    between atoms: C_7  and  C_8
REMARK    3  A    between atoms: C_14  and  C_15
REMARK    4  A    between atoms: C_21  and  C_22
REMARK                            x       y       z     vdW  Elec       q    Type
REMARK                         _______ _______ _______ _____ _____    ______ ____
ROOT
ATOM      1  C   UNL     1      -5.342  12.427  17.665  0.00  0.00    +0.000 C 
ATOM      2  N   UNL     1      -4.017  11.838  17.387  0.00  0.00    +0.000 NA
ATOM      3  C   UNL     1      -4.192  10.741  16.413  0.00  0.00    +0.000 C 
ATOM      4  C   UNL     1      -2.850  10.144  16.017  0.00  0.00    +0.000 C 
ATOM      5  C   UNL     1      -2.146   9.622  17.262  0.00  0.00    +0.000 C 
ATOM      6  C   UNL     1      -1.901  10.807  18.229  0.00  0.00    +0.000 C 
ATOM      7  C   UNL     1      -1.091  10.393  19.500  0.00  0.00    +0.000 C 
ATOM      8  C   UNL     1      -0.864  11.631  20.450  0.00  0.00    +0.000 C 
ATOM      9  C   UNL     1      -2.280  12.185  20.861  0.00  0.00    +0.000 C 
ATOM     10  C   UNL     1      -3.122  12.545  19.608  0.00  0.00    +0.000 C 
ATOM     11  C   UNL     1      -3.297  11.382  18.618  0.00  0.00    +0.000 C 
ENDROOT
BRANCH   7  12
ATOM     12  C   UNL     1       0.196   9.612  19.209  0.00  0.00    +0.000 A 
ATOM     13  C   UNL     1       0.879   9.688  17.968  0.00  0.00    +0.000 A 
ATOM     14  C   UNL     1       2.047   8.966  17.749  0.00  0.00    +0.000 A 
ATOM     15  C   UNL     1       2.556   8.137  18.747  0.00  0.00    +0.000 A 
ATOM     16  C   UNL     1       1.894   8.033  19.972  0.00  0.00    +0.000 A 
ATOM     17  C   UNL     1       0.727   8.768  20.206  0.00  0.00    +0.000 A 
ENDBRANCH   7  12
BRANCH   8  18
ATOM     18  C   UNL     1       0.070  12.731  19.872  0.00  0.00    +0.000 C 
ATOM     19  N   UNL     1      -0.451  13.676  19.155  0.00  0.00    +0.000 NA
ATOM     20  C   UNL     1       0.233  14.850  18.636  0.00  0.00    +0.000 C 
ATOM     21  C   UNL     1       1.579  15.096  19.321  0.00  0.00    +0.000 C 
ATOM     22  C   UNL     1       2.328  13.783  19.362  0.00  0.00    +0.000 C 
ATOM     23  C   UNL     1       1.550  12.809  20.254  0.00  0.00    +0.000 C 
ENDBRANCH   8  18
BRANCH   9  24
ATOM     24  C   UNL     1      -2.206  13.355  21.865  0.00  0.00    +0.000 A 
ATOM     25  C   UNL     1      -2.881  14.585  21.656  0.00  0.00    +0.000 A 
ATOM     26  C   UNL     1      -2.800  15.619  22.587  0.00  0.00    +0.000 A 
ATOM     27  C   UNL     1      -2.048  15.456  23.747  0.00  0.00    +0.000 A 
ATOM     28  C   UNL     1      -1.376  14.254  23.978  0.00  0.00    +0.000 A 
ATOM     29  C   UNL     1      -1.453  13.212  23.048  0.00  0.00    +0.000 A 
ENDBRANCH   9  24
TORSDOF 3
ENDMDL
MODEL 6
REMARK VINA RESULT:      -8.0      5.902     10.990
REMARK  Name = 
REMARK  4 active torsions:
REMARK  status: ('A' for Active; 'I' for Inactive)
REMARK    1  A    between atoms: C_1  and  N_2
REMARK    2  A    between atoms: C_7  and  C_8
REMARK    3  A    between atoms: C_14  and  C_15
REMARK    4  A    between atoms: C_21  and  C_22
REMARK                            x       y       z     vdW  Elec       q    Type
REMARK                         _______ _______ _______ _____ _____    ______ ____
ROOT
ATOM      1  C   UNL     1      -5.737  12.762  18.393  0.00  0.00    +0.000 C 
ATOM      2  N   UNL     1      -4.450  12.158  17.997  0.00  0.00    +0.000 NA
ATOM      3  C   UNL     1      -4.727  11.049  17.061  0.00  0.00    +0.000 C 
ATOM      4  C   UNL     1      -3.433  10.434  16.546  0.00  0.00    +0.000 C 
ATOM      5  C   UNL     1      -2.616   9.923  17.724  0.00  0.00    +0.000 C 
ATOM      6  C   UNL     1      -2.271  11.119  18.645  0.00  0.00    +0.000 C 
ATOM      7  C   UNL     1      -1.344  10.716  19.838  0.00  0.00    +0.000 C 
ATOM      8  C   UNL     1      -1.017  11.965  20.744  0.00  0.00    +0.000 C 
ATOM      9  C   UNL     1      -2.382  12.537  21.281  0.00  0.00    +0.000 C 
ATOM     10  C   UNL     1      -3.339  12.887  20.110  0.00  0.00    +0.000 C 
ATOM     11  C   UNL     1      -3.618  11.712  19.159  0.00  0.00    +0.000 C 
ENDROOT
BRANCH   7  12
ATOM     12  C   UNL     1      -0.097   9.919  19.436  0.00  0.00    +0.000 A 
ATOM     13  C   UNL     1       0.467   9.978  18.136  0.00  0.00    +0.000 A 
ATOM     14  C   UNL     1       1.603   9.242  17.815  0.00  0.00    +0.000 A 
ATOM     15  C   UNL     1       2.195   8.417  18.770  0.00  0.00    +0.000 A 
ATOM     16  C   UNL     1       1.650   8.330  20.051  0.00  0.00    +0.000 A 
ATOM     17  C   UNL     1       0.516   9.079  20.387  0.00  0.00    +0.000 A 
ENDBRANCH   7  12
BRANCH   8  18
ATOM     18  C   UNL     1      -0.134  13.049  20.062  0.00  0.00    +0.000 C 
ATOM     19  N   UNL     1      -0.707  13.933  19.308  0.00  0.00    +0.000 NA
ATOM     20  C   UNL     1      -0.075  15.087  18.690  0.00  0.00    +0.000 C 
ATOM     21  C   UNL     1       1.289  15.409  19.305  0.00  0.00    +0.000 C 
ATOM     22  C   UNL     1       2.074  14.120  19.399  0.00  0.00    +0.000 C 
ATOM     23  C   UNL     1       1.356  13.186  20.380  0.00  0.00    +0.000 C 
ENDBRANCH   8  18
BRANCH   9  24
ATOM     24  C   UNL     1      -2.203  13.720  22.256  0.00  0.00    +0.000 A 
ATOM     25  C   UNL     1      -1.384  13.643  23.411  0.00  0.00    +0.000 A 
ATOM     26  C   UNL     1      -1.236  14.733  24.266  0.00  0.00    +0.000 A 
ATOM     27  C   UNL     1      -1.898  15.927  23.994  0.00  0.00    +0.000 A 
ATOM     28  C   UNL     1      -2.709  16.031  22.862  0.00  0.00    +0.000 A 
ATOM     29  C   UNL     1      -2.861  14.941  22.000  0.00  0.00    +0.000 A 
ENDBRANCH   9  24
TORSDOF 3
ENDMDL
MODEL 7
REMARK VINA RESULT:      -8.0      5.549     10.579
REMARK  Name = 
REMARK  4 active torsions:
REMARK  status: ('A' for Active; 'I' for Inactive)
REMARK    1  A    between atoms: C_1  and  N_2
REMARK    2  A    between atoms: C_7  and  C_8
REMARK    3  A    between atoms: C_14  and  C_15
REMARK    4  A    between atoms: C_21  and  C_22
REMARK                            x       y       z     vdW  Elec       q    Type
REMARK                         _______ _______ _______ _____ _____    ______ ____
ROOT
ATOM      1  C   UNL     1      -5.307  12.452  17.686  0.00  0.00    +0.000 C 
ATOM      2  N   UNL     1      -3.986  11.853  17.410  0.00  0.00    +0.000 NA
ATOM      3  C   UNL     1      -4.167  10.764  16.428  0.00  0.00    +0.000 C 
ATOM      4  C   UNL     1      -2.828  10.157  16.034  0.00  0.00    +0.000 C 
ATOM      5  C   UNL     1      -2.136   9.619  17.279  0.00  0.00    +0.000 C 
ATOM      6  C   UNL     1      -1.885  10.796  18.255  0.00  0.00    +0.000 C 
ATOM      7  C   UNL     1      -1.085  10.365  19.527  0.00  0.00    +0.000 C 
ATOM      8  C   UNL     1      -0.851  11.595  20.487  0.00  0.00    +0.000 C 
ATOM      9  C   UNL     1      -2.264  12.159  20.895  0.00  0.00    +0.000 C 
ATOM     10  C   UNL     1      -3.096  12.536  19.640  0.00  0.00    +0.000 C 
ATOM     11  C   UNL     1      -3.277  11.381  18.641  0.00  0.00    +0.000 C 
ENDROOT
BRANCH   7  12
ATOM     12  C   UNL     1       0.196   9.575  19.238  0.00  0.00    +0.000 A 
ATOM     13  C   UNL     1       0.763   8.662  20.164  0.00  0.00    +0.000 A 
ATOM     14  C   UNL     1       1.925   7.961  19.859  0.00  0.00    +0.000 A 
ATOM     15  C   UNL     1       2.563   8.162  18.636  0.00  0.00    +0.000 A 
ATOM     16  C   UNL     1       2.034   9.066  17.713  0.00  0.00    +0.000 A 
ATOM     17  C   UNL     1       0.857   9.764  18.007  0.00  0.00    +0.000 A 
ENDBRANCH   7  12
BRANCH   8  18
ATOM     18  C   UNL     1       0.097  12.690  19.921  0.00  0.00    +0.000 C 
ATOM     19  N   UNL     1      -0.410  13.637  19.195  0.00  0.00    +0.000 NA
ATOM     20  C   UNL     1       0.287  14.806  18.684  0.00  0.00    +0.000 C 
ATOM     21  C   UNL     1       1.624  15.047  19.388  0.00  0.00    +0.000 C 
ATOM     22  C   UNL     1       2.366  13.731  19.442  0.00  0.00    +0.000 C 
ATOM     23  C   UNL     1       1.571  12.762  20.324  0.00  0.00    +0.000 C 
ENDBRANCH   8  18
BRANCH   9  24
ATOM     24  C   UNL     1      -2.184  13.322  21.907  0.00  0.00    +0.000 A 
ATOM     25  C   UNL     1      -1.400  13.256  23.087  0.00  0.00    +0.000 A 
ATOM     26  C   UNL     1      -1.344  14.328  23.976  0.00  0.00    +0.000 A 
ATOM     27  C   UNL     1      -2.063  15.491  23.714  0.00  0.00    +0.000 A 
ATOM     28  C   UNL     1      -2.840  15.582  22.558  0.00  0.00    +0.000 A 
ATOM     29  C   UNL     1      -2.901  14.511  21.661  0.00  0.00    +0.000 A 
ENDBRANCH   9  24
TORSDOF 3
ENDMDL
MODEL 8
REMARK VINA RESULT:      -7.8      5.712     10.774
REMARK  Name = 
REMARK  4 active torsions:
REMARK  status: ('A' for Active; 'I' for Inactive)
REMARK    1  A    between atoms: C_1  and  N_2
REMARK    2  A    between atoms: C_7  and  C_8
REMARK    3  A    between atoms: C_14  and  C_15
REMARK    4  A    between atoms: C_21  and  C_22
REMARK                            x       y       z     vdW  Elec       q    Type
REMARK                         _______ _______ _______ _____ _____    ______ ____
ROOT
ATOM      1  C   UNL     1      -5.455  12.336  17.214  0.00  0.00    +0.000 C 
ATOM      2  N   UNL     1      -4.091  11.798  17.047  0.00  0.00    +0.000 NA
ATOM      3  C   UNL     1      -4.137  10.725  16.032  0.00  0.00    +0.000 C 
ATOM      4  C   UNL     1      -2.744  10.182  15.749  0.00  0.00    +0.000 C 
ATOM      5  C   UNL     1      -2.142   9.646  17.040  0.00  0.00    +0.000 C 
ATOM      6  C   UNL     1      -2.029  10.810  18.056  0.00  0.00    +0.000 C 
ATOM      7  C   UNL     1      -1.327  10.384  19.387  0.00  0.00    +0.000 C 
ATOM      8  C   UNL     1      -1.233  11.600  20.387  0.00  0.00    +0.000 C 
ATOM      9  C   UNL     1      -2.699  12.097  20.676  0.00  0.00    +0.000 C 
ATOM     10  C   UNL     1      -3.432  12.467  19.359  0.00  0.00    +0.000 C 
ATOM     11  C   UNL     1      -3.474  11.329  18.327  0.00  0.00    +0.000 C 
ENDROOT
BRANCH   7  12
ATOM     12  C   UNL     1       0.007   9.653  19.199  0.00  0.00    +0.000 A 
ATOM     13  C   UNL     1       0.609   8.874  20.221  0.00  0.00    +0.000 A 
ATOM     14  C   UNL     1       1.819   8.223  20.006  0.00  0.00    +0.000 A 
ATOM     15  C   UNL     1       2.471   8.344  18.779  0.00  0.00    +0.000 A 
ATOM     16  C   UNL     1       1.907   9.117  17.763  0.00  0.00    +0.000 A 
ATOM     17  C   UNL     1       0.682   9.763  17.966  0.00  0.00    +0.000 A 
ENDBRANCH   7  12
BRANCH   8  18
ATOM     18  C   UNL     1      -0.286  12.746  19.928  0.00  0.00    +0.000 C 
ATOM     19  N   UNL     1      -0.672  13.525  18.967  0.00  0.00    +0.000 NA
ATOM     20  C   UNL     1       0.011  14.714  18.486  0.00  0.00    +0.000 C 
ATOM     21  C   UNL     1       1.075  15.217  19.466  0.00  0.00    +0.000 C 
ATOM     22  C   UNL     1       1.907  14.032  19.899  0.00  0.00    +0.000 C 
ATOM     23  C   UNL     1       1.007  13.067  20.680  0.00  0.00    +0.000 C 
ENDBRANCH   8  18
BRANCH   9  24
ATOM     24  C   UNL     1      -2.759  13.239  21.713  0.00  0.00    +0.000 A 
ATOM     25  C   UNL     1      -3.190  14.550  21.383  0.00  0.00    +0.000 A 
ATOM     26  C   UNL     1      -3.241  15.556  22.346  0.00  0.00    +0.000 A 
ATOM     27  C   UNL     1      -2.864  15.286  23.658  0.00  0.00    +0.000 A 
ATOM     28  C   UNL     1      -2.437  14.004  24.009  0.00  0.00    +0.000 A 
ATOM     29  C   UNL     1      -2.385  12.989  23.049  0.00  0.00    +0.000 A 
ENDBRANCH   9  24
TORSDOF 3
ENDMDL
MODEL 9
REMARK VINA RESULT:      -7.7      5.339      9.785
REMARK  Name = 
REMARK  4 active torsions:
REMARK  status: ('A' for Active; 'I' for Inactive)
REMARK    1  A    between atoms: C_1  and  N_2
REMARK    2  A    between atoms: C_7  and  C_8
REMARK    3  A    between atoms: C_14  and  C_15
REMARK    4  A    between atoms: C_21  and  C_22
REMARK                            x       y       z     vdW  Elec       q    Type
REMARK                         _______ _______ _______ _____ _____    ______ ____
ROOT
ATOM      1  C   UNL     1       2.927  14.878  19.404  0.00  0.00    +0.000 C 
ATOM      2  N   UNL     1       1.461  14.886  19.577  0.00  0.00    +0.000 NA
ATOM      3  C   UNL     1       1.073  16.177  20.182  0.00  0.00    +0.000 C 
ATOM      4  C   UNL     1      -0.439  16.286  20.311  0.00  0.00    +0.000 C 
ATOM      5  C   UNL     1      -0.954  15.139  21.168  0.00  0.00    +0.000 C 
ATOM      6  C   UNL     1      -0.606  13.801  20.469  0.00  0.00    +0.000 C 
ATOM      7  C   UNL     1      -1.182  12.558  21.222  0.00  0.00    +0.000 C 
ATOM      8  C   UNL     1      -0.805  11.222  20.472  0.00  0.00    +0.000 C 
ATOM      9  C   UNL     1       0.766  11.139  20.401  0.00  0.00    +0.000 C 
ATOM     10  C   UNL     1       1.359  12.396  19.710  0.00  0.00    +0.000 C 
ATOM     11  C   UNL     1       0.948  13.723  20.367  0.00  0.00    +0.000 C 
ENDROOT
BRANCH   7  12
ATOM     12  C   UNL     1      -2.672  12.655  21.568  0.00  0.00    +0.000 A 
ATOM     13  C   UNL     1      -3.680  12.837  20.586  0.00  0.00    +0.000 A 
ATOM     14  C   UNL     1      -5.021  12.916  20.944  0.00  0.00    +0.000 A 
ATOM     15  C   UNL     1      -5.394  12.834  22.285  0.00  0.00    +0.000 A 
ATOM     16  C   UNL     1      -4.420  12.670  23.271  0.00  0.00    +0.000 A 
ATOM     17  C   UNL     1      -3.070  12.575  22.918  0.00  0.00    +0.000 A 
ENDBRANCH   7  12
BRANCH   8  18
ATOM     18  C   UNL     1      -1.483  11.044  19.083  0.00  0.00    +0.000 C 
ATOM     19  N   UNL     1      -2.166   9.966  18.859  0.00  0.00    +0.000 NA
ATOM     20  C   UNL     1      -2.967   9.675  17.680  0.00  0.00    +0.000 C 
ATOM     21  C   UNL     1      -3.258  10.925  16.846  0.00  0.00    +0.000 C 
ATOM     22  C   UNL     1      -1.961  11.681  16.669  0.00  0.00    +0.000 C 
ATOM     23  C   UNL     1      -1.491  12.167  18.045  0.00  0.00    +0.000 C 
ENDBRANCH   8  18
BRANCH   9  24
ATOM     24  C   UNL     1       1.276   9.831  19.761  0.00  0.00    +0.000 A 
ATOM     25  C   UNL     1       1.442   8.631  20.499  0.00  0.00    +0.000 A 
ATOM     26  C   UNL     1       1.897   7.464  19.888  0.00  0.00    +0.000 A 
ATOM     27  C   UNL     1       2.198   7.461  18.529  0.00  0.00    +0.000 A 
ATOM     28  C   UNL     1       2.042   8.627  17.779  0.00  0.00    +0.000 A 
ATOM     29  C   UNL     1       1.586   9.802  18.385  0.00  0.00    +0.000 A 
ENDBRANCH   9  24
TORSDOF 3
ENDMDL
