MODEL 1
REMARK VINA RESULT:      -7.0      0.000      0.000
REMARK  Name = 
REMARK  7 active torsions:
REMARK  status: ('A' for Active; 'I' for Inactive)
REMARK    1  A    between atoms: C_1  and  O_2
REMARK    2  A    between atoms: O_2  and  C_3
REMARK    3  A    between atoms: C_8  and  C_9
REMARK    4  A    between atoms: N_11  and  C_12
REMARK    5  A    between atoms: C_12  and  C_13
REMARK    6  A    between atoms: C_13  and  C_14
REMARK    7  A    between atoms: C_14  and  N_15
REMARK                            x       y       z     vdW  Elec       q    Type
REMARK                         _______ _______ _______ _____ _____    ______ ____
ROOT
ATOM      1  C   UNL     1       0.098  10.359  19.697  0.00  0.00    +0.000 A 
ATOM      2  C   UNL     1       0.047   9.760  20.956  0.00  0.00    +0.000 A 
ATOM      3  C   UNL     1       0.786   8.602  21.242  0.00  0.00    +0.000 A 
ATOM      4  C   UNL     1       1.573   8.063  20.217  0.00  0.00    +0.000 A 
ATOM      5  N   UNL     1       2.387   6.952  20.190  0.00  0.00    +0.000 N 
ATOM      6  C   UNL     1       2.963   6.791  18.944  0.00  0.00    +0.000 A 
ATOM      7  C   UNL     1       2.506   7.843  18.169  0.00  0.00    +0.000 A 
ATOM      8  C   UNL     1       1.632   8.638  18.952  0.00  0.00    +0.000 A 
ATOM      9  C   UNL     1       0.879   9.794  18.686  0.00  0.00    +0.000 A 
ATOM     10  H   UNL     1       2.545   6.323  20.965  0.00  0.00    +0.000 HD
ENDROOT
BRANCH   6  11
ATOM     11  C   UNL     1       3.845   5.688  18.631  0.00  0.00    +0.000 C 
ATOM     12  O   UNL     1       4.803   5.386  19.335  0.00  0.00    +0.000 OA
ATOM     13  N   UNL     1       3.513   4.997  17.486  0.00  0.00    +0.000 N 
ATOM     14  H   UNL     1       2.723   5.314  16.943  0.00  0.00    +0.000 HD
BRANCH  13  15
ATOM     15  C   UNL     1       4.243   3.840  17.021  0.00  0.00    +0.000 C 
BRANCH  15  16
ATOM     16  C   UNL     1       3.952   2.593  17.853  0.00  0.00    +0.000 C 
BRANCH  16  17
ATOM     17  C   UNL     1       2.474   2.478  18.226  0.00  0.00    +0.000 C 
BRANCH  17  18
ATOM     18  N   UNL     1       2.257   2.599  19.653  0.00  0.00    +0.000 N 
ATOM     19  C   UNL     1       1.086   2.935  20.271  0.00  0.00    +0.000 A 
ATOM     20  C   UNL     1       1.387   2.952  21.613  0.00  0.00    +0.000 A 
ATOM     21  N   UNL     1       2.706   2.640  21.819  0.00  0.00    +0.000 NA
ATOM     22  C   UNL     1       3.205   2.432  20.621  0.00  0.00    +0.000 A 
ENDBRANCH  17  18
ENDBRANCH  16  17
ENDBRANCH  15  16
ENDBRANCH  13  15
ENDBRANCH   6  11
BRANCH   1  24
ATOM     23  C   UNL     1      -1.461  12.031  20.305  0.00  0.00    +0.000 C 
ATOM     24  O   UNL     1      -0.607  11.469  19.317  0.00  0.00    +0.000 OA
ENDBRANCH   1  24
TORSDOF 6
ENDMDL
MODEL 2
REMARK VINA RESULT:      -6.8      6.413      9.993
REMARK  Name = 
REMARK  7 active torsions:
REMARK  status: ('A' for Active; 'I' for Inactive)
REMARK    1  A    between atoms: C_1  and  O_2
REMARK    2  A    between atoms: O_2  and  C_3
REMARK    3  A    between atoms: C_8  and  C_9
REMARK    4  A    between atoms: N_11  and  C_12
REMARK    5  A    between atoms: C_12  and  C_13
REMARK    6  A    between atoms: C_13  and  C_14
REMARK    7  A    between atoms: C_14  and  N_15
REMARK                            x       y       z     vdW  Elec       q    Type
REMARK                         _______ _______ _______ _____ _____    ______ ____
ROOT
ATOM      1  C   UNL     1       5.648   3.305  12.120  0.00  0.00    +0.000 A 
ATOM      2  C   UNL     1       6.899   3.833  11.794  0.00  0.00    +0.000 A 
ATOM      3  C   UNL     1       7.610   4.633  12.702  0.00  0.00    +0.000 A 
ATOM      4  C   UNL     1       7.020   4.890  13.944  0.00  0.00    +0.000 A 
ATOM      5  N   UNL     1       7.459   5.631  15.019  0.00  0.00    +0.000 N 
ATOM      6  C   UNL     1       6.528   5.622  16.040  0.00  0.00    +0.000 A 
ATOM      7  C   UNL     1       5.477   4.838  15.596  0.00  0.00    +0.000 A 
ATOM      8  C   UNL     1       5.771   4.383  14.287  0.00  0.00    +0.000 A 
ATOM      9  C   UNL     1       5.073   3.589  13.361  0.00  0.00    +0.000 A 
ATOM     10  H   UNL     1       8.337   6.129  15.066  0.00  0.00    +0.000 HD
ENDROOT
BRANCH   6  11
ATOM     11  C   UNL     1       6.725   6.343  17.279  0.00  0.00    +0.000 C 
ATOM     12  O   UNL     1       5.966   6.232  18.236  0.00  0.00    +0.000 OA
ATOM     13  N   UNL     1       7.838   7.154  17.298  0.00  0.00    +0.000 N 
ATOM     14  H   UNL     1       8.406   7.214  16.466  0.00  0.00    +0.000 HD
BRANCH  13  15
ATOM     15  C   UNL     1       8.232   7.928  18.454  0.00  0.00    +0.000 C 
BRANCH  15  16
ATOM     16  C   UNL     1       8.470   9.399  18.117  0.00  0.00    +0.000 C 
BRANCH  16  17
ATOM     17  C   UNL     1       9.240  10.128  19.219  0.00  0.00    +0.000 C 
BRANCH  17  18
ATOM     18  N   UNL     1       9.569  11.490  18.850  0.00  0.00    +0.000 N 
ATOM     19  C   UNL     1      10.046  11.910  17.642  0.00  0.00    +0.000 A 
ATOM     20  C   UNL     1      10.233  13.265  17.789  0.00  0.00    +0.000 A 
ATOM     21  N   UNL     1       9.886  13.669  19.053  0.00  0.00    +0.000 NA
ATOM     22  C   UNL     1       9.490  12.579  19.669  0.00  0.00    +0.000 A 
ENDBRANCH  17  18
ENDBRANCH  16  17
ENDBRANCH  15  16
ENDBRANCH  13  15
ENDBRANCH   6  11
BRANCH   1  24
ATOM     23  C   UNL     1       3.623   3.111  10.915  0.00  0.00    +0.000 C 
ATOM     24  O   UNL     1       4.869   2.541  11.294  0.00  0.00    +0.000 OA
ENDBRANCH   1  24
TORSDOF 6
ENDMDL
MODEL 3
REMARK VINA RESULT:      -6.7      0.831      1.054
REMARK  Name = 
REMARK  7 active torsions:
REMARK  status: ('A' for Active; 'I' for Inactive)
REMARK    1  A    between atoms: C_1  and  O_2
REMARK    2  A    between atoms: O_2  and  C_3
REMARK    3  A    between atoms: C_8  and  C_9
REMARK    4  A    between atoms: N_11  and  C_12
REMARK    5  A    between atoms: C_12  and  C_13
REMARK    6  A    between atoms: C_13  and  C_14
REMARK    7  A    between atoms: C_14  and  N_15
REMARK                            x       y       z     vdW  Elec       q    Type
REMARK                         _______ _______ _______ _____ _____    ______ ____
ROOT
ATOM      1  C   UNL     1       0.098  10.166  20.158  0.00  0.00    +0.000 A 
ATOM      2  C   UNL     1       0.151   9.369  21.303  0.00  0.00    +0.000 A 
ATOM      3  C   UNL     1       0.955   8.219  21.354  0.00  0.00    +0.000 A 
ATOM      4  C   UNL     1       1.696   7.894  20.213  0.00  0.00    +0.000 A 
ATOM      5  N   UNL     1       2.552   6.845  19.959  0.00  0.00    +0.000 N 
ATOM      6  C   UNL     1       3.055   6.916  18.673  0.00  0.00    +0.000 A 
ATOM      7  C   UNL     1       2.506   8.054  18.107  0.00  0.00    +0.000 A 
ATOM      8  C   UNL     1       1.652   8.666  19.057  0.00  0.00    +0.000 A 
ATOM      9  C   UNL     1       0.836   9.811  19.026  0.00  0.00    +0.000 A 
ATOM     10  H   UNL     1       2.785   6.108  20.610  0.00  0.00    +0.000 HD
ENDROOT
BRANCH   6  11
ATOM     11  C   UNL     1       3.960   5.923  18.135  0.00  0.00    +0.000 C 
ATOM     12  O   UNL     1       5.174   5.978  18.297  0.00  0.00    +0.000 OA
ATOM     13  N   UNL     1       3.345   4.908  17.437  0.00  0.00    +0.000 N 
ATOM     14  H   UNL     1       2.342   4.937  17.324  0.00  0.00    +0.000 HD
BRANCH  13  15
ATOM     15  C   UNL     1       4.067   3.799  16.854  0.00  0.00    +0.000 C 
BRANCH  15  16
ATOM     16  C   UNL     1       3.960   2.527  17.693  0.00  0.00    +0.000 C 
BRANCH  16  17
ATOM     17  C   UNL     1       2.522   2.234  18.121  0.00  0.00    +0.000 C 
BRANCH  17  18
ATOM     18  N   UNL     1       2.176   2.886  19.367  0.00  0.00    +0.000 N 
ATOM     19  C   UNL     1       2.891   2.847  20.529  0.00  0.00    +0.000 A 
ATOM     20  C   UNL     1       2.149   3.581  21.425  0.00  0.00    +0.000 A 
ATOM     21  N   UNL     1       1.006   4.056  20.835  0.00  0.00    +0.000 NA
ATOM     22  C   UNL     1       1.049   3.622  19.595  0.00  0.00    +0.000 A 
ENDBRANCH  17  18
ENDBRANCH  16  17
ENDBRANCH  15  16
ENDBRANCH  13  15
ENDBRANCH   6  11
BRANCH   1  24
ATOM     23  C   UNL     1      -0.598  11.922  18.735  0.00  0.00    +0.000 C 
ATOM     24  O   UNL     1      -0.674  11.285  20.004  0.00  0.00    +0.000 OA
ENDBRANCH   1  24
TORSDOF 6
ENDMDL
MODEL 4
REMARK VINA RESULT:      -6.7      6.360      7.199
REMARK  Name = 
REMARK  7 active torsions:
REMARK  status: ('A' for Active; 'I' for Inactive)
REMARK    1  A    between atoms: C_1  and  O_2
REMARK    2  A    between atoms: O_2  and  C_3
REMARK    3  A    between atoms: C_8  and  C_9
REMARK    4  A    between atoms: N_11  and  C_12
REMARK    5  A    between atoms: C_12  and  C_13
REMARK    6  A    between atoms: C_13  and  C_14
REMARK    7  A    between atoms: C_14  and  N_15
REMARK                            x       y       z     vdW  Elec       q    Type
REMARK                         _______ _______ _______ _____ _____    ______ ____
ROOT
ATOM      1  C   UNL     1       9.978  13.426  18.799  0.00  0.00    +0.000 A 
ATOM      2  C   UNL     1      10.450  12.894  19.999  0.00  0.00    +0.000 A 
ATOM      3  C   UNL     1      10.243  11.546  20.330  0.00  0.00    +0.000 A 
ATOM      4  C   UNL     1       9.538  10.754  19.417  0.00  0.00    +0.000 A 
ATOM      5  N   UNL     1       9.176   9.425  19.463  0.00  0.00    +0.000 N 
ATOM      6  C   UNL     1       8.464   9.067  18.333  0.00  0.00    +0.000 A 
ATOM      7  C   UNL     1       8.388  10.205  17.549  0.00  0.00    +0.000 A 
ATOM      8  C   UNL     1       9.049  11.264  18.219  0.00  0.00    +0.000 A 
ATOM      9  C   UNL     1       9.264  12.618  17.910  0.00  0.00    +0.000 A 
ATOM     10  H   UNL     1       9.386   8.787  20.217  0.00  0.00    +0.000 HD
ENDROOT
BRANCH   6  11
ATOM     11  C   UNL     1       7.939   7.734  18.134  0.00  0.00    +0.000 C 
ATOM     12  O   UNL     1       8.188   6.805  18.895  0.00  0.00    +0.000 OA
ATOM     13  N   UNL     1       7.129   7.597  17.028  0.00  0.00    +0.000 N 
ATOM     14  H   UNL     1       6.985   8.399  16.433  0.00  0.00    +0.000 HD
BRANCH  13  15
ATOM     15  C   UNL     1       6.476   6.356  16.675  0.00  0.00    +0.000 C 
BRANCH  15  16
ATOM     16  C   UNL     1       4.996   6.548  16.351  0.00  0.00    +0.000 C 
BRANCH  16  17
ATOM     17  C   UNL     1       4.103   6.341  17.574  0.00  0.00    +0.000 C 
BRANCH  17  18
ATOM     18  N   UNL     1       4.073   4.959  18.005  0.00  0.00    +0.000 N 
ATOM     19  C   UNL     1       4.334   4.495  19.263  0.00  0.00    +0.000 A 
ATOM     20  C   UNL     1       4.213   3.128  19.167  0.00  0.00    +0.000 A 
ATOM     21  N   UNL     1       3.893   2.757  17.886  0.00  0.00    +0.000 NA
ATOM     22  C   UNL     1       3.815   3.880  17.209  0.00  0.00    +0.000 A 
ENDBRANCH  17  18
ENDBRANCH  16  17
ENDBRANCH  15  16
ENDBRANCH  13  15
ENDBRANCH   6  11
BRANCH   1  24
ATOM     23  C   UNL     1      10.990  14.963  17.314  0.00  0.00    +0.000 C 
ATOM     24  O   UNL     1      10.106  14.730  18.403  0.00  0.00    +0.000 OA
ENDBRANCH   1  24
TORSDOF 6
ENDMDL
MODEL 5
REMARK VINA RESULT:      -6.7      1.034      1.536
REMARK  Name = 
REMARK  7 active torsions:
REMARK  status: ('A' for Active; 'I' for Inactive)
REMARK    1  A    between atoms: C_1  and  O_2
REMARK    2  A    between atoms: O_2  and  C_3
REMARK    3  A    between atoms: C_8  and  C_9
REMARK    4  A    between atoms: N_11  and  C_12
REMARK    5  A    between atoms: C_12  and  C_13
REMARK    6  A    between atoms: C_13  and  C_14
REMARK    7  A    between atoms: C_14  and  N_15
REMARK                            x       y       z     vdW  Elec       q    Type
REMARK                         _______ _______ _______ _____ _____    ______ ____
ROOT
ATOM      1  C   UNL     1       0.142   9.947  21.171  0.00  0.00    +0.000 A 
ATOM      2  C   UNL     1       0.428  10.557  19.949  0.00  0.00    +0.000 A 
ATOM      3  C   UNL     1       1.205   9.910  18.976  0.00  0.00    +0.000 A 
ATOM      4  C   UNL     1       1.690   8.632  19.275  0.00  0.00    +0.000 A 
ATOM      5  N   UNL     1       2.470   7.765  18.541  0.00  0.00    +0.000 N 
ATOM      6  C   UNL     1       2.721   6.605  19.250  0.00  0.00    +0.000 A 
ATOM      7  C   UNL     1       2.066   6.744  20.461  0.00  0.00    +0.000 A 
ATOM      8  C   UNL     1       1.425   8.007  20.489  0.00  0.00    +0.000 A 
ATOM      9  C   UNL     1       0.650   8.676  21.452  0.00  0.00    +0.000 A 
ATOM     10  H   UNL     1       2.828   7.943  17.614  0.00  0.00    +0.000 HD
ENDROOT
BRANCH   6  11
ATOM     11  C   UNL     1       3.538   5.534  18.723  0.00  0.00    +0.000 C 
ATOM     12  O   UNL     1       4.657   5.281  19.157  0.00  0.00    +0.000 OA
ATOM     13  N   UNL     1       2.953   4.815  17.705  0.00  0.00    +0.000 N 
ATOM     14  H   UNL     1       2.037   5.092  17.383  0.00  0.00    +0.000 HD
BRANCH  13  15
ATOM     15  C   UNL     1       3.587   3.681  17.071  0.00  0.00    +0.000 C 
BRANCH  15  16
ATOM     16  C   UNL     1       2.934   2.355  17.456  0.00  0.00    +0.000 C 
BRANCH  16  17
ATOM     17  C   UNL     1       3.450   1.822  18.792  0.00  0.00    +0.000 C 
BRANCH  17  18
ATOM     18  N   UNL     1       2.697   2.338  19.917  0.00  0.00    +0.000 N 
ATOM     19  C   UNL     1       1.367   2.647  19.930  0.00  0.00    +0.000 A 
ATOM     20  C   UNL     1       1.128   3.125  21.197  0.00  0.00    +0.000 A 
ATOM     21  N   UNL     1       2.278   3.116  21.945  0.00  0.00    +0.000 NA
ATOM     22  C   UNL     1       3.206   2.637  21.148  0.00  0.00    +0.000 A 
ENDBRANCH  17  18
ENDBRANCH  16  17
ENDBRANCH  15  16
ENDBRANCH  13  15
ENDBRANCH   6  11
BRANCH   1  24
ATOM     23  C   UNL     1      -1.166  11.773  21.911  0.00  0.00    +0.000 C 
ATOM     24  O   UNL     1      -0.580  10.508  22.189  0.00  0.00    +0.000 OA
ENDBRANCH   1  24
TORSDOF 6
ENDMDL
MODEL 6
REMARK VINA RESULT:      -6.6      5.129      8.315
REMARK  Name = 
REMARK  7 active torsions:
REMARK  status: ('A' for Active; 'I' for Inactive)
REMARK    1  A    between atoms: C_1  and  O_2
REMARK    2  A    between atoms: O_2  and  C_3
REMARK    3  A    between atoms: C_8  and  C_9
REMARK    4  A    between atoms: N_11  and  C_12
REMARK    5  A    between atoms: C_12  and  C_13
REMARK    6  A    between atoms: C_13  and  C_14
REMARK    7  A    between atoms: C_14  and  N_15
REMARK                            x       y       z     vdW  Elec       q    Type
REMARK                         _______ _______ _______ _____ _____    ______ ____
ROOT
ATOM      1  C   UNL     1       1.945   2.971  19.770  0.00  0.00    +0.000 A 
ATOM      2  C   UNL     1       2.102   2.176  18.634  0.00  0.00    +0.000 A 
ATOM      3  C   UNL     1       3.175   2.372  17.751  0.00  0.00    +0.000 A 
ATOM      4  C   UNL     1       4.081   3.397  18.045  0.00  0.00    +0.000 A 
ATOM      5  N   UNL     1       5.206   3.829  17.378  0.00  0.00    +0.000 N 
ATOM      6  C   UNL     1       5.790   4.897  18.033  0.00  0.00    +0.000 A 
ATOM      7  C   UNL     1       5.013   5.134  19.153  0.00  0.00    +0.000 A 
ATOM      8  C   UNL     1       3.940   4.208  19.166  0.00  0.00    +0.000 A 
ATOM      9  C   UNL     1       2.854   3.999  20.034  0.00  0.00    +0.000 A 
ATOM     10  H   UNL     1       5.565   3.436  16.519  0.00  0.00    +0.000 HD
ENDROOT
BRANCH   6  11
ATOM     11  C   UNL     1       6.974   5.563  17.534  0.00  0.00    +0.000 C 
ATOM     12  O   UNL     1       7.843   4.977  16.898  0.00  0.00    +0.000 OA
ATOM     13  N   UNL     1       7.038   6.908  17.823  0.00  0.00    +0.000 N 
ATOM     14  H   UNL     1       6.297   7.320  18.370  0.00  0.00    +0.000 HD
BRANCH  13  15
ATOM     15  C   UNL     1       8.119   7.761  17.382  0.00  0.00    +0.000 C 
BRANCH  15  16
ATOM     16  C   UNL     1       7.965   9.199  17.872  0.00  0.00    +0.000 C 
BRANCH  16  17
ATOM     17  C   UNL     1       9.026   9.575  18.906  0.00  0.00    +0.000 C 
BRANCH  17  18
ATOM     18  N   UNL     1       9.593  10.885  18.659  0.00  0.00    +0.000 N 
ATOM     19  C   UNL     1      10.763  11.372  19.170  0.00  0.00    +0.000 A 
ATOM     20  C   UNL     1      10.855  12.654  18.680  0.00  0.00    +0.000 A 
ATOM     21  N   UNL     1       9.772  12.952  17.892  0.00  0.00    +0.000 NA
ATOM     22  C   UNL     1       9.029  11.868  17.898  0.00  0.00    +0.000 A 
ENDBRANCH  17  18
ENDBRANCH  16  17
ENDBRANCH  15  16
ENDBRANCH  13  15
ENDBRANCH   6  11
BRANCH   1  24
ATOM     23  C   UNL     1       1.289   2.512  21.995  0.00  0.00    +0.000 C 
ATOM     24  O   UNL     1       0.919   2.876  20.671  0.00  0.00    +0.000 OA
ENDBRANCH   1  24
TORSDOF 6
ENDMDL
MODEL 7
REMARK VINA RESULT:      -6.5      1.078      1.769
REMARK  Name = 
REMARK  7 active torsions:
REMARK  status: ('A' for Active; 'I' for Inactive)
REMARK    1  A    between atoms: C_1  and  O_2
REMARK    2  A    between atoms: O_2  and  C_3
REMARK    3  A    between atoms: C_8  and  C_9
REMARK    4  A    between atoms: N_11  and  C_12
REMARK    5  A    between atoms: C_12  and  C_13
REMARK    6  A    between atoms: C_13  and  C_14
REMARK    7  A    between atoms: C_14  and  N_15
REMARK                            x       y       z     vdW  Elec       q    Type
REMARK                         _______ _______ _______ _____ _____    ______ ____
ROOT
ATOM      1  C   UNL     1       0.200   9.878  20.746  0.00  0.00    +0.000 A 
ATOM      2  C   UNL     1       0.379  10.425  19.474  0.00  0.00    +0.000 A 
ATOM      3  C   UNL     1       1.179   9.786  18.513  0.00  0.00    +0.000 A 
ATOM      4  C   UNL     1       1.797   8.585  18.876  0.00  0.00    +0.000 A 
ATOM      5  N   UNL     1       2.631   7.746  18.169  0.00  0.00    +0.000 N 
ATOM      6  C   UNL     1       3.020   6.669  18.942  0.00  0.00    +0.000 A 
ATOM      7  C   UNL     1       2.401   6.830  20.169  0.00  0.00    +0.000 A 
ATOM      8  C   UNL     1       1.641   8.026  20.140  0.00  0.00    +0.000 A 
ATOM      9  C   UNL     1       0.841   8.685  21.089  0.00  0.00    +0.000 A 
ATOM     10  H   UNL     1       2.934   7.890  17.216  0.00  0.00    +0.000 HD
ENDROOT
BRANCH   6  11
ATOM     11  C   UNL     1       3.918   5.645  18.454  0.00  0.00    +0.000 C 
ATOM     12  O   UNL     1       5.062   5.513  18.875  0.00  0.00    +0.000 OA
ATOM     13  N   UNL     1       3.380   4.826  17.486  0.00  0.00    +0.000 N 
ATOM     14  H   UNL     1       2.438   5.006  17.170  0.00  0.00    +0.000 HD
BRANCH  13  15
ATOM     15  C   UNL     1       4.099   3.719  16.897  0.00  0.00    +0.000 C 
BRANCH  15  16
ATOM     16  C   UNL     1       3.781   2.388  17.576  0.00  0.00    +0.000 C 
BRANCH  16  17
ATOM     17  C   UNL     1       2.317   2.293  18.007  0.00  0.00    +0.000 C 
BRANCH  17  18
ATOM     18  N   UNL     1       2.136   2.608  19.409  0.00  0.00    +0.000 N 
ATOM     19  C   UNL     1       3.115   2.670  20.359  0.00  0.00    +0.000 A 
ATOM     20  C   UNL     1       2.453   2.967  21.528  0.00  0.00    +0.000 A 
ATOM     21  N   UNL     1       1.104   3.080  21.308  0.00  0.00    +0.000 NA
ATOM     22  C   UNL     1       0.943   2.859  20.023  0.00  0.00    +0.000 A 
ENDBRANCH  17  18
ENDBRANCH  16  17
ENDBRANCH  15  16
ENDBRANCH  13  15
ENDBRANCH   6  11
BRANCH   1  24
ATOM     23  C   UNL     1      -0.618   9.683  22.956  0.00  0.00    +0.000 C 
ATOM     24  O   UNL     1      -0.534  10.440  21.755  0.00  0.00    +0.000 OA
ENDBRANCH   1  24
TORSDOF 6
ENDMDL
MODEL 8
REMARK VINA RESULT:      -6.5      2.882      7.578
REMARK  Name = 
REMARK  7 active torsions:
REMARK  status: ('A' for Active; 'I' for Inactive)
REMARK    1  A    between atoms: C_1  and  O_2
REMARK    2  A    between atoms: O_2  and  C_3
REMARK    3  A    between atoms: C_8  and  C_9
REMARK    4  A    between atoms: N_11  and  C_12
REMARK    5  A    between atoms: C_12  and  C_13
REMARK    6  A    between atoms: C_13  and  C_14
REMARK    7  A    between atoms: C_14  and  N_15
REMARK                            x       y       z     vdW  Elec       q    Type
REMARK                         _______ _______ _______ _____ _____    ______ ____
ROOT
ATOM      1  C   UNL     1       6.745   5.481  16.355  0.00  0.00    +0.000 A 
ATOM      2  C   UNL     1       7.262   4.845  17.484  0.00  0.00    +0.000 A 
ATOM      3  C   UNL     1       6.531   4.776  18.680  0.00  0.00    +0.000 A 
ATOM      4  C   UNL     1       5.265   5.373  18.704  0.00  0.00    +0.000 A 
ATOM      5  N   UNL     1       4.332   5.475  19.712  0.00  0.00    +0.000 N 
ATOM      6  C   UNL     1       3.219   6.175  19.285  0.00  0.00    +0.000 A 
ATOM      7  C   UNL     1       3.456   6.510  17.964  0.00  0.00    +0.000 A 
ATOM      8  C   UNL     1       4.733   6.020  17.594  0.00  0.00    +0.000 A 
ATOM      9  C   UNL     1       5.486   6.083  16.408  0.00  0.00    +0.000 A 
ATOM     10  H   UNL     1       4.436   5.104  20.645  0.00  0.00    +0.000 HD
ENDROOT
BRANCH   6  11
ATOM     11  C   UNL     1       2.094   6.451  20.153  0.00  0.00    +0.000 C 
ATOM     12  O   UNL     1       1.415   5.564  20.658  0.00  0.00    +0.000 OA
ATOM     13  N   UNL     1       1.857   7.790  20.373  0.00  0.00    +0.000 N 
ATOM     14  H   UNL     1       2.443   8.467  19.907  0.00  0.00    +0.000 HD
BRANCH  13  15
ATOM     15  C   UNL     1       0.806   8.275  21.240  0.00  0.00    +0.000 C 
BRANCH  15  16
ATOM     16  C   UNL     1       0.915   9.775  21.507  0.00  0.00    +0.000 C 
BRANCH  16  17
ATOM     17  C   UNL     1       1.008  10.588  20.215  0.00  0.00    +0.000 C 
BRANCH  17  18
ATOM     18  N   UNL     1      -0.294  10.843  19.632  0.00  0.00    +0.000 N 
ATOM     19  C   UNL     1      -0.824  10.231  18.532  0.00  0.00    +0.000 A 
ATOM     20  C   UNL     1      -2.050  10.828  18.354  0.00  0.00    +0.000 A 
ATOM     21  N   UNL     1      -2.270  11.784  19.312  0.00  0.00    +0.000 NA
ATOM     22  C   UNL     1      -1.195  11.770  20.068  0.00  0.00    +0.000 A 
ENDBRANCH  17  18
ENDBRANCH  16  17
ENDBRANCH  15  16
ENDBRANCH  13  15
ENDBRANCH   6  11
BRANCH   1  24
ATOM     23  C   UNL     1       6.933   4.792  14.100  0.00  0.00    +0.000 C 
ATOM     24  O   UNL     1       7.393   5.624  15.157  0.00  0.00    +0.000 OA
ENDBRANCH   1  24
TORSDOF 6
ENDMDL
MODEL 9
REMARK VINA RESULT:      -6.5      5.187      8.138
REMARK  Name = 
REMARK  7 active torsions:
REMARK  status: ('A' for Active; 'I' for Inactive)
REMARK    1  A    between atoms: C_1  and  O_2
REMARK    2  A    between atoms: O_2  and  C_3
REMARK    3  A    between atoms: C_8  and  C_9
REMARK    4  A    between atoms: N_11  and  C_12
REMARK    5  A    between atoms: C_12  and  C_13
REMARK    6  A    between atoms: C_13  and  C_14
REMARK    7  A    between atoms: C_14  and  N_15
REMARK                            x       y       z     vdW  Elec       q    Type
REMARK                         _______ _______ _______ _____ _____    ______ ____
ROOT
ATOM      1  C   UNL     1       2.258   3.135  19.430  0.00  0.00    +0.000 A 
ATOM      2  C   UNL     1       1.527   3.912  18.531  0.00  0.00    +0.000 A 
ATOM      3  C   UNL     1       2.156   4.858  17.706  0.00  0.00    +0.000 A 
ATOM      4  C   UNL     1       3.543   5.000  17.821  0.00  0.00    +0.000 A 
ATOM      5  N   UNL     1       4.424   5.833  17.166  0.00  0.00    +0.000 N 
ATOM      6  C   UNL     1       5.716   5.638  17.618  0.00  0.00    +0.000 A 
ATOM      7  C   UNL     1       5.644   4.643  18.577  0.00  0.00    +0.000 A 
ATOM      8  C   UNL     1       4.292   4.243  18.715  0.00  0.00    +0.000 A 
ATOM      9  C   UNL     1       3.641   3.306  19.536  0.00  0.00    +0.000 A 
ATOM     10  H   UNL     1       4.175   6.507  16.457  0.00  0.00    +0.000 HD
ENDROOT
BRANCH   6  11
ATOM     11  C   UNL     1       6.838   6.402  17.117  0.00  0.00    +0.000 C 
ATOM     12  O   UNL     1       7.437   6.102  16.090  0.00  0.00    +0.000 OA
ATOM     13  N   UNL     1       7.171   7.498  17.882  0.00  0.00    +0.000 N 
ATOM     14  H   UNL     1       6.649   7.673  18.728  0.00  0.00    +0.000 HD
BRANCH  13  15
ATOM     15  C   UNL     1       8.236   8.412  17.533  0.00  0.00    +0.000 C 
BRANCH  15  16
ATOM     16  C   UNL     1       8.045   9.795  18.152  0.00  0.00    +0.000 C 
BRANCH  16  17
ATOM     17  C   UNL     1       9.340  10.607  18.167  0.00  0.00    +0.000 C 
BRANCH  17  18
ATOM     18  N   UNL     1       9.444  11.452  19.339  0.00  0.00    +0.000 N 
ATOM     19  C   UNL     1       9.397  11.043  20.641  0.00  0.00    +0.000 A 
ATOM     20  C   UNL     1       9.503  12.199  21.378  0.00  0.00    +0.000 A 
ATOM     21  N   UNL     1       9.609  13.292  20.556  0.00  0.00    +0.000 NA
ATOM     22  C   UNL     1       9.571  12.811  19.334  0.00  0.00    +0.000 A 
ENDBRANCH  17  18
ENDBRANCH  16  17
ENDBRANCH  15  16
ENDBRANCH  13  15
ENDBRANCH   6  11
BRANCH   1  24
ATOM     23  C   UNL     1       1.490   2.666  21.617  0.00  0.00    +0.000 C 
ATOM     24  O   UNL     1       1.733   2.211  20.292  0.00  0.00    +0.000 OA
ENDBRANCH   1  24
TORSDOF 6
ENDMDL
