MODEL 1
REMARK VINA RESULT:      -7.0      0.000      0.000
REMARK  Name = 
REMARK  2 active torsions:
REMARK  status: ('A' for Active; 'I' for Inactive)
REMARK    1  A    between atoms: O_1  and  N_2
REMARK    2  A    between atoms: C_3  and  C_4
REMARK                            x       y       z     vdW  Elec       q    Type
REMARK                         _______ _______ _______ _____ _____    ______ ____
ROOT
ATOM      1  N   UNL     1       5.403   4.426  18.468  0.00  0.00    +0.000 N 
ATOM      2  C   UNL     1       4.131   3.905  18.309  0.00  0.00    +0.000 A 
ATOM      3  N   UNL     1       3.914   3.652  17.027  0.00  0.00    +0.000 NA
ATOM      4  C   UNL     1       5.038   4.080  16.371  0.00  0.00    +0.000 A 
ATOM      5  N   UNL     1       5.219   4.047  15.031  0.00  0.00    +0.000 NA
ATOM      6  C   UNL     1       6.416   4.521  14.616  0.00  0.00    +0.000 A 
ATOM      7  C   UNL     1       7.431   5.001  15.440  0.00  0.00    +0.000 A 
ATOM      8  C   UNL     1       7.239   5.023  16.819  0.00  0.00    +0.000 A 
ATOM      9  C   UNL     1       6.000   4.552  17.249  0.00  0.00    +0.000 A 
ENDROOT
BRANCH   2  10
ATOM     10  C   UNL     1       3.180   3.637  19.400  0.00  0.00    +0.000 A 
ATOM     11  C   UNL     1       3.468   2.738  20.434  0.00  0.00    +0.000 A 
ATOM     12  C   UNL     1       2.542   2.480  21.445  0.00  0.00    +0.000 A 
ATOM     13  C   UNL     1       1.313   3.145  21.450  0.00  0.00    +0.000 A 
ATOM     14  C   UNL     1       1.023   4.062  20.446  0.00  0.00    +0.000 A 
ATOM     15  C   UNL     1       1.945   4.303  19.421  0.00  0.00    +0.000 A 
ENDBRANCH   2  10
BRANCH   1  16
ATOM     16  O   UNL     1       6.024   4.786  19.667  0.00  0.00    +0.000 OA
ATOM     17  H   UNL     1       6.801   5.256  19.316  0.00  0.00    +0.000 HD
ENDBRANCH   1  16
TORSDOF 2
ENDMDL
MODEL 2
REMARK VINA RESULT:      -7.0      2.264      5.535
REMARK  Name = 
REMARK  2 active torsions:
REMARK  status: ('A' for Active; 'I' for Inactive)
REMARK    1  A    between atoms: O_1  and  N_2
REMARK    2  A    between atoms: C_3  and  C_4
REMARK                            x       y       z     vdW  Elec       q    Type
REMARK                         _______ _______ _______ _____ _____    ______ ____
ROOT
ATOM      1  N   UNL     1       4.103   3.777  18.042  0.00  0.00    +0.000 N 
ATOM      2  C   UNL     1       4.463   4.925  18.727  0.00  0.00    +0.000 A 
ATOM      3  N   UNL     1       3.548   5.198  19.645  0.00  0.00    +0.000 NA
ATOM      4  C   UNL     1       2.573   4.248  19.487  0.00  0.00    +0.000 A 
ATOM      5  N   UNL     1       1.425   4.184  20.200  0.00  0.00    +0.000 NA
ATOM      6  C   UNL     1       0.617   3.151  19.867  0.00  0.00    +0.000 A 
ATOM      7  C   UNL     1       0.886   2.187  18.898  0.00  0.00    +0.000 A 
ATOM      8  C   UNL     1       2.074   2.257  18.176  0.00  0.00    +0.000 A 
ATOM      9  C   UNL     1       2.901   3.329  18.503  0.00  0.00    +0.000 A 
ENDROOT
BRANCH   2  10
ATOM     10  C   UNL     1       5.693   5.699  18.497  0.00  0.00    +0.000 A 
ATOM     11  C   UNL     1       6.853   5.498  19.257  0.00  0.00    +0.000 A 
ATOM     12  C   UNL     1       7.999   6.262  19.039  0.00  0.00    +0.000 A 
ATOM     13  C   UNL     1       8.012   7.228  18.030  0.00  0.00    +0.000 A 
ATOM     14  C   UNL     1       6.878   7.421  17.248  0.00  0.00    +0.000 A 
ATOM     15  C   UNL     1       5.722   6.668  17.483  0.00  0.00    +0.000 A 
ENDBRANCH   2  10
BRANCH   1  16
ATOM     16  O   UNL     1       4.820   3.139  17.027  0.00  0.00    +0.000 OA
ATOM     17  H   UNL     1       4.207   3.272  16.283  0.00  0.00    +0.000 HD
ENDBRANCH   1  16
TORSDOF 2
ENDMDL
MODEL 3
REMARK VINA RESULT:      -7.0      0.053      1.205
REMARK  Name = 
REMARK  2 active torsions:
REMARK  status: ('A' for Active; 'I' for Inactive)
REMARK    1  A    between atoms: O_1  and  N_2
REMARK    2  A    between atoms: C_3  and  C_4
REMARK                            x       y       z     vdW  Elec       q    Type
REMARK                         _______ _______ _______ _____ _____    ______ ____
ROOT
ATOM      1  N   UNL     1       5.387   4.424  18.443  0.00  0.00    +0.000 N 
ATOM      2  C   UNL     1       4.102   3.939  18.268  0.00  0.00    +0.000 A 
ATOM      3  N   UNL     1       3.887   3.711  16.981  0.00  0.00    +0.000 NA
ATOM      4  C   UNL     1       5.027   4.119  16.339  0.00  0.00    +0.000 A 
ATOM      5  N   UNL     1       5.215   4.100  15.000  0.00  0.00    +0.000 NA
ATOM      6  C   UNL     1       6.427   4.548  14.599  0.00  0.00    +0.000 A 
ATOM      7  C   UNL     1       7.449   4.988  15.436  0.00  0.00    +0.000 A 
ATOM      8  C   UNL     1       7.249   4.996  16.814  0.00  0.00    +0.000 A 
ATOM      9  C   UNL     1       5.995   4.552  17.230  0.00  0.00    +0.000 A 
ENDROOT
BRANCH   2  10
ATOM     10  C   UNL     1       3.138   3.681  19.349  0.00  0.00    +0.000 A 
ATOM     11  C   UNL     1       1.902   4.337  19.417  0.00  0.00    +0.000 A 
ATOM     12  C   UNL     1       1.014   4.096  20.466  0.00  0.00    +0.000 A 
ATOM     13  C   UNL     1       1.341   3.166  21.457  0.00  0.00    +0.000 A 
ATOM     14  C   UNL     1       2.552   2.487  21.389  0.00  0.00    +0.000 A 
ATOM     15  C   UNL     1       3.451   2.746  20.347  0.00  0.00    +0.000 A 
ENDBRANCH   2  10
BRANCH   1  16
ATOM     16  O   UNL     1       6.010   4.750  19.650  0.00  0.00    +0.000 OA
ATOM     17  H   UNL     1       5.347   4.408  20.276  0.00  0.00    +0.000 HD
ENDBRANCH   1  16
TORSDOF 2
ENDMDL
MODEL 4
REMARK VINA RESULT:      -7.0      2.189      5.406
REMARK  Name = 
REMARK  2 active torsions:
REMARK  status: ('A' for Active; 'I' for Inactive)
REMARK    1  A    between atoms: O_1  and  N_2
REMARK    2  A    between atoms: C_3  and  C_4
REMARK                            x       y       z     vdW  Elec       q    Type
REMARK                         _______ _______ _______ _____ _____    ______ ____
ROOT
ATOM      1  N   UNL     1       3.363   5.202  19.393  0.00  0.00    +0.000 N 
ATOM      2  C   UNL     1       4.436   4.848  18.594  0.00  0.00    +0.000 A 
ATOM      3  N   UNL     1       4.182   3.692  17.998  0.00  0.00    +0.000 NA
ATOM      4  C   UNL     1       2.964   3.289  18.480  0.00  0.00    +0.000 A 
ATOM      5  N   UNL     1       2.345   2.130  18.162  0.00  0.00    +0.000 NA
ATOM      6  C   UNL     1       1.145   1.953  18.760  0.00  0.00    +0.000 A 
ATOM      7  C   UNL     1       0.528   2.852  19.627  0.00  0.00    +0.000 A 
ATOM      8  C   UNL     1       1.169   4.047  19.942  0.00  0.00    +0.000 A 
ATOM      9  C   UNL     1       2.414   4.225  19.341  0.00  0.00    +0.000 A 
ENDROOT
BRANCH   2  10
ATOM     10  C   UNL     1       5.656   5.650  18.407  0.00  0.00    +0.000 A 
ATOM     11  C   UNL     1       6.803   5.454  19.185  0.00  0.00    +0.000 A 
ATOM     12  C   UNL     1       7.939   6.243  19.008  0.00  0.00    +0.000 A 
ATOM     13  C   UNL     1       7.954   7.232  18.021  0.00  0.00    +0.000 A 
ATOM     14  C   UNL     1       6.833   7.421  17.221  0.00  0.00    +0.000 A 
ATOM     15  C   UNL     1       5.686   6.642  17.415  0.00  0.00    +0.000 A 
ENDBRANCH   2  10
BRANCH   1  16
ATOM     16  O   UNL     1       3.224   6.366  20.154  0.00  0.00    +0.000 OA
ATOM     17  H   UNL     1       4.023   6.844  19.872  0.00  0.00    +0.000 HD
ENDBRANCH   1  16
TORSDOF 2
ENDMDL
MODEL 5
REMARK VINA RESULT:      -7.0      2.264      5.654
REMARK  Name = 
REMARK  2 active torsions:
REMARK  status: ('A' for Active; 'I' for Inactive)
REMARK    1  A    between atoms: O_1  and  N_2
REMARK    2  A    between atoms: C_3  and  C_4
REMARK                            x       y       z     vdW  Elec       q    Type
REMARK                         _______ _______ _______ _____ _____    ______ ____
ROOT
ATOM      1  N   UNL     1       4.083   3.784  18.041  0.00  0.00    +0.000 N 
ATOM      2  C   UNL     1       4.431   4.945  18.709  0.00  0.00    +0.000 A 
ATOM      3  N   UNL     1       3.511   5.223  19.621  0.00  0.00    +0.000 NA
ATOM      4  C   UNL     1       2.545   4.262  19.475  0.00  0.00    +0.000 A 
ATOM      5  N   UNL     1       1.397   4.197  20.186  0.00  0.00    +0.000 NA
ATOM      6  C   UNL     1       0.600   3.152  19.868  0.00  0.00    +0.000 A 
ATOM      7  C   UNL     1       0.880   2.176  18.915  0.00  0.00    +0.000 A 
ATOM      8  C   UNL     1       2.069   2.246  18.194  0.00  0.00    +0.000 A 
ATOM      9  C   UNL     1       2.885   3.331  18.507  0.00  0.00    +0.000 A 
ENDROOT
BRANCH   2  10
ATOM     10  C   UNL     1       5.654   5.728  18.470  0.00  0.00    +0.000 A 
ATOM     11  C   UNL     1       5.728   6.709  17.473  0.00  0.00    +0.000 A 
ATOM     12  C   UNL     1       6.905   7.421  17.246  0.00  0.00    +0.000 A 
ATOM     13  C   UNL     1       8.029   7.180  18.041  0.00  0.00    +0.000 A 
ATOM     14  C   UNL     1       7.964   6.230  19.054  0.00  0.00    +0.000 A 
ATOM     15  C   UNL     1       6.788   5.501  19.265  0.00  0.00    +0.000 A 
ENDBRANCH   2  10
BRANCH   1  16
ATOM     16  O   UNL     1       4.809   3.138  17.037  0.00  0.00    +0.000 OA
ATOM     17  H   UNL     1       5.467   2.672  17.583  0.00  0.00    +0.000 HD
ENDBRANCH   1  16
TORSDOF 2
ENDMDL
MODEL 6
REMARK VINA RESULT:      -7.0      2.205      5.531
REMARK  Name = 
REMARK  2 active torsions:
REMARK  status: ('A' for Active; 'I' for Inactive)
REMARK    1  A    between atoms: O_1  and  N_2
REMARK    2  A    between atoms: C_3  and  C_4
REMARK                            x       y       z     vdW  Elec       q    Type
REMARK                         _______ _______ _______ _____ _____    ______ ____
ROOT
ATOM      1  N   UNL     1       3.335   5.225  19.376  0.00  0.00    +0.000 N 
ATOM      2  C   UNL     1       4.406   4.883  18.568  0.00  0.00    +0.000 A 
ATOM      3  N   UNL     1       4.159   3.727  17.972  0.00  0.00    +0.000 NA
ATOM      4  C   UNL     1       2.949   3.310  18.463  0.00  0.00    +0.000 A 
ATOM      5  N   UNL     1       2.340   2.144  18.147  0.00  0.00    +0.000 NA
ATOM      6  C   UNL     1       1.147   1.954  18.756  0.00  0.00    +0.000 A 
ATOM      7  C   UNL     1       0.528   2.845  19.629  0.00  0.00    +0.000 A 
ATOM      8  C   UNL     1       1.159   4.046  19.941  0.00  0.00    +0.000 A 
ATOM      9  C   UNL     1       2.396   4.238  19.330  0.00  0.00    +0.000 A 
ENDROOT
BRANCH   2  10
ATOM     10  C   UNL     1       5.615   5.699  18.372  0.00  0.00    +0.000 A 
ATOM     11  C   UNL     1       5.675   6.726  17.423  0.00  0.00    +0.000 A 
ATOM     12  C   UNL     1       6.840   7.470  17.236  0.00  0.00    +0.000 A 
ATOM     13  C   UNL     1       7.966   7.212  18.024  0.00  0.00    +0.000 A 
ATOM     14  C   UNL     1       7.914   6.213  18.990  0.00  0.00    +0.000 A 
ATOM     15  C   UNL     1       6.750   5.454  19.161  0.00  0.00    +0.000 A 
ENDBRANCH   2  10
BRANCH   1  16
ATOM     16  O   UNL     1       3.190   6.385  20.141  0.00  0.00    +0.000 OA
ATOM     17  H   UNL     1       3.183   5.996  21.033  0.00  0.00    +0.000 HD
ENDBRANCH   1  16
TORSDOF 2
ENDMDL
MODEL 7
REMARK VINA RESULT:      -6.8      1.544      5.656
REMARK  Name = 
REMARK  2 active torsions:
REMARK  status: ('A' for Active; 'I' for Inactive)
REMARK    1  A    between atoms: O_1  and  N_2
REMARK    2  A    between atoms: C_3  and  C_4
REMARK                            x       y       z     vdW  Elec       q    Type
REMARK                         _______ _______ _______ _____ _____    ______ ____
ROOT
ATOM      1  N   UNL     1       4.275   3.513  19.006  0.00  0.00    +0.000 N 
ATOM      2  C   UNL     1       3.831   4.055  17.812  0.00  0.00    +0.000 A 
ATOM      3  N   UNL     1       2.516   4.211  17.858  0.00  0.00    +0.000 NA
ATOM      4  C   UNL     1       2.127   3.699  19.068  0.00  0.00    +0.000 A 
ATOM      5  N   UNL     1       0.850   3.620  19.506  0.00  0.00    +0.000 NA
ATOM      6  C   UNL     1       0.713   3.080  20.739  0.00  0.00    +0.000 A 
ATOM      7  C   UNL     1       1.753   2.640  21.554  0.00  0.00    +0.000 A 
ATOM      8  C   UNL     1       3.065   2.733  21.098  0.00  0.00    +0.000 A 
ATOM      9  C   UNL     1       3.209   3.273  19.821  0.00  0.00    +0.000 A 
ENDROOT
BRANCH   2  10
ATOM     10  C   UNL     1       4.693   4.436  16.682  0.00  0.00    +0.000 A 
ATOM     11  C   UNL     1       5.348   3.484  15.891  0.00  0.00    +0.000 A 
ATOM     12  C   UNL     1       6.181   3.869  14.840  0.00  0.00    +0.000 A 
ATOM     13  C   UNL     1       6.350   5.224  14.544  0.00  0.00    +0.000 A 
ATOM     14  C   UNL     1       5.684   6.181  15.302  0.00  0.00    +0.000 A 
ATOM     15  C   UNL     1       4.866   5.794  16.370  0.00  0.00    +0.000 A 
ENDBRANCH   2  10
BRANCH   1  16
ATOM     16  O   UNL     1       5.595   3.233  19.368  0.00  0.00    +0.000 OA
ATOM     17  H   UNL     1       5.990   4.114  19.246  0.00  0.00    +0.000 HD
ENDBRANCH   1  16
TORSDOF 2
ENDMDL
MODEL 8
REMARK VINA RESULT:      -6.8      1.554      5.742
REMARK  Name = 
REMARK  2 active torsions:
REMARK  status: ('A' for Active; 'I' for Inactive)
REMARK    1  A    between atoms: O_1  and  N_2
REMARK    2  A    between atoms: C_3  and  C_4
REMARK                            x       y       z     vdW  Elec       q    Type
REMARK                         _______ _______ _______ _____ _____    ______ ____
ROOT
ATOM      1  N   UNL     1       4.275   3.529  19.016  0.00  0.00    +0.000 N 
ATOM      2  C   UNL     1       3.828   4.092  17.833  0.00  0.00    +0.000 A 
ATOM      3  N   UNL     1       2.513   4.249  17.887  0.00  0.00    +0.000 NA
ATOM      4  C   UNL     1       2.128   3.718  19.090  0.00  0.00    +0.000 A 
ATOM      5  N   UNL     1       0.852   3.633  19.531  0.00  0.00    +0.000 NA
ATOM      6  C   UNL     1       0.719   3.074  20.755  0.00  0.00    +0.000 A 
ATOM      7  C   UNL     1       1.761   2.618  21.559  0.00  0.00    +0.000 A 
ATOM      8  C   UNL     1       3.072   2.717  21.100  0.00  0.00    +0.000 A 
ATOM      9  C   UNL     1       3.212   3.277  19.832  0.00  0.00    +0.000 A 
ENDROOT
BRANCH   2  10
ATOM     10  C   UNL     1       4.685   4.490  16.706  0.00  0.00    +0.000 A 
ATOM     11  C   UNL     1       4.886   5.832  16.360  0.00  0.00    +0.000 A 
ATOM     12  C   UNL     1       5.683   6.186  15.271  0.00  0.00    +0.000 A 
ATOM     13  C   UNL     1       6.319   5.193  14.521  0.00  0.00    +0.000 A 
ATOM     14  C   UNL     1       6.153   3.857  14.868  0.00  0.00    +0.000 A 
ATOM     15  C   UNL     1       5.336   3.503  15.948  0.00  0.00    +0.000 A 
ENDBRANCH   2  10
BRANCH   1  16
ATOM     16  O   UNL     1       5.596   3.241  19.369  0.00  0.00    +0.000 OA
ATOM     17  H   UNL     1       5.850   2.681  18.614  0.00  0.00    +0.000 HD
ENDBRANCH   1  16
TORSDOF 2
ENDMDL
MODEL 9
REMARK VINA RESULT:      -6.8      1.402      1.899
REMARK  Name = 
REMARK  2 active torsions:
REMARK  status: ('A' for Active; 'I' for Inactive)
REMARK    1  A    between atoms: O_1  and  N_2
REMARK    2  A    between atoms: C_3  and  C_4
REMARK                            x       y       z     vdW  Elec       q    Type
REMARK                         _______ _______ _______ _____ _____    ______ ____
ROOT
ATOM      1  N   UNL     1       3.830   3.766  17.077  0.00  0.00    +0.000 N 
ATOM      2  C   UNL     1       4.115   3.906  18.425  0.00  0.00    +0.000 A 
ATOM      3  N   UNL     1       5.343   4.381  18.570  0.00  0.00    +0.000 NA
ATOM      4  C   UNL     1       5.853   4.478  17.302  0.00  0.00    +0.000 A 
ATOM      5  N   UNL     1       7.107   4.883  16.996  0.00  0.00    +0.000 NA
ATOM      6  C   UNL     1       7.380   4.902  15.672  0.00  0.00    +0.000 A 
ATOM      7  C   UNL     1       6.493   4.565  14.653  0.00  0.00    +0.000 A 
ATOM      8  C   UNL     1       5.202   4.158  14.977  0.00  0.00    +0.000 A 
ATOM      9  C   UNL     1       4.922   4.120  16.342  0.00  0.00    +0.000 A 
ENDROOT
BRANCH   2  10
ATOM     10  C   UNL     1       3.183   3.608  19.524  0.00  0.00    +0.000 A 
ATOM     11  C   UNL     1       3.490   2.685  20.532  0.00  0.00    +0.000 A 
ATOM     12  C   UNL     1       2.581   2.399  21.550  0.00  0.00    +0.000 A 
ATOM     13  C   UNL     1       1.350   3.059  21.592  0.00  0.00    +0.000 A 
ATOM     14  C   UNL     1       1.041   3.999  20.615  0.00  0.00    +0.000 A 
ATOM     15  C   UNL     1       1.946   4.269  19.581  0.00  0.00    +0.000 A 
ENDBRANCH   2  10
BRANCH   1  16
ATOM     16  O   UNL     1       2.630   3.333  16.508  0.00  0.00    +0.000 OA
ATOM     17  H   UNL     1       2.965   2.981  15.665  0.00  0.00    +0.000 HD
ENDBRANCH   1  16
TORSDOF 2
ENDMDL
