MODEL 1
REMARK VINA RESULT:      -9.2      0.000      0.000
REMARK  Name = 
REMARK  4 active torsions:
REMARK  status: ('A' for Active; 'I' for Inactive)
REMARK    1  A    between atoms: C_1  and  N_2
REMARK    2  A    between atoms: N_7  and  C_8
REMARK    3  A    between atoms: C_17  and  C_18
REMARK    4  A    between atoms: C_18  and  O_20
REMARK                            x       y       z     vdW  Elec       q    Type
REMARK                         _______ _______ _______ _____ _____    ______ ____
ROOT
ATOM      1  C   UNL     1       2.162   8.138  19.148  0.00  0.00    +0.000 A 
ATOM      2  N   UNL     1       2.571   6.850  19.326  0.00  0.00    +0.000 NA
ATOM      3  C   UNL     1       3.437   6.206  18.484  0.00  0.00    +0.000 A 
ATOM      4  C   UNL     1       3.943   6.906  17.369  0.00  0.00    +0.000 A 
ATOM      5  C   UNL     1       3.535   8.232  17.160  0.00  0.00    +0.000 A 
ATOM      6  C   UNL     1       2.648   8.851  18.035  0.00  0.00    +0.000 A 
ATOM      7  F   UNL     1       2.297  10.136  17.785  0.00  0.00    +0.000 F 
ATOM      8  C   UNL     1       4.840   6.269  16.493  0.00  0.00    +0.000 A 
ATOM      9  O   UNL     1       5.279   6.878  15.529  0.00  0.00    +0.000 OA
ATOM     10  C   UNL     1       5.231   4.935  16.728  0.00  0.00    +0.000 A 
ATOM     11  C   UNL     1       4.694   4.283  17.854  0.00  0.00    +0.000 A 
ATOM     12  N   UNL     1       3.815   4.899  18.711  0.00  0.00    +0.000 N 
ATOM     13  C   UNL     1       3.297   4.140  19.839  0.00  0.00    +0.000 A 
ATOM     14  N   UNL     1       2.412   4.629  20.740  0.00  0.00    +0.000 NA
ATOM     15  C   UNL     1       2.064   3.714  21.682  0.00  0.00    +0.000 A 
ATOM     16  C   UNL     1       2.669   2.472  21.547  0.00  0.00    +0.000 A 
ATOM     17  S   UNL     1       3.672   2.530  20.203  0.00  0.00    +0.000 S 
ENDROOT
BRANCH   1  24
ATOM     18  C   UNL     1      -1.972  11.992  21.101  0.00  0.00    +0.000 C 
ATOM     19  N   UNL     1      -0.790  11.336  21.681  0.00  0.00    +0.000 NA
ATOM     20  C   UNL     1      -1.105  10.775  23.025  0.00  0.00    +0.000 C 
ATOM     21  C   UNL     1      -0.562   9.384  23.029  0.00  0.00    +0.000 C 
ATOM     22  C   UNL     1      -0.153   9.113  21.816  0.00  0.00    +0.000 C 
ATOM     23  C   UNL     1       0.620   8.020  21.199  0.00  0.00    +0.000 C 
ATOM     24  N   UNL     1       1.273   8.739  20.105  0.00  0.00    +0.000 N 
ATOM     25  C   UNL     1       0.948  10.168  20.137  0.00  0.00    +0.000 C 
ATOM     26  C   UNL     1      -0.388  10.171  20.874  0.00  0.00    +0.000 C 
ENDBRANCH   1  24
BRANCH  10  27
ATOM     27  C   UNL     1       6.192   4.231  15.802  0.00  0.00    +0.000 C 
ATOM     28  O   UNL     1       5.851   3.199  15.245  0.00  0.00    +0.000 OA
BRANCH  27  29
ATOM     29  O   UNL     1       7.443   4.685  15.552  0.00  0.00    +0.000 OA
ATOM     30  H   UNL     1       7.794   4.906  14.682  0.00  0.00    +0.000 HD
ENDBRANCH  27  29
ENDBRANCH  10  27
TORSDOF 3
ENDMDL
MODEL 2
REMARK VINA RESULT:      -7.8      5.379      9.286
REMARK  Name = 
REMARK  4 active torsions:
REMARK  status: ('A' for Active; 'I' for Inactive)
REMARK    1  A    between atoms: C_1  and  N_2
REMARK    2  A    between atoms: N_7  and  C_8
REMARK    3  A    between atoms: C_17  and  C_18
REMARK    4  A    between atoms: C_18  and  O_20
REMARK                            x       y       z     vdW  Elec       q    Type
REMARK                         _______ _______ _______ _____ _____    ______ ____
ROOT
ATOM      1  C   UNL     1       0.596   9.633  20.052  0.00  0.00    +0.000 A 
ATOM      2  N   UNL     1      -0.472  10.112  19.353  0.00  0.00    +0.000 NA
ATOM      3  C   UNL     1      -1.357  11.027  19.854  0.00  0.00    +0.000 A 
ATOM      4  C   UNL     1      -1.162  11.512  21.163  0.00  0.00    +0.000 A 
ATOM      5  C   UNL     1      -0.073  11.032  21.907  0.00  0.00    +0.000 A 
ATOM      6  C   UNL     1       0.803  10.096  21.365  0.00  0.00    +0.000 A 
ATOM      7  F   UNL     1       1.840   9.677  22.129  0.00  0.00    +0.000 F 
ATOM      8  C   UNL     1      -2.053  12.459  21.698  0.00  0.00    +0.000 A 
ATOM      9  O   UNL     1      -1.881  12.878  22.832  0.00  0.00    +0.000 OA
ATOM     10  C   UNL     1      -3.139  12.921  20.927  0.00  0.00    +0.000 A 
ATOM     11  C   UNL     1      -3.289  12.403  19.627  0.00  0.00    +0.000 A 
ATOM     12  N   UNL     1      -2.423  11.476  19.101  0.00  0.00    +0.000 N 
ATOM     13  C   UNL     1      -2.667  10.982  17.754  0.00  0.00    +0.000 A 
ATOM     14  N   UNL     1      -1.898  10.055  17.135  0.00  0.00    +0.000 NA
ATOM     15  C   UNL     1      -2.352   9.744  15.892  0.00  0.00    +0.000 A 
ATOM     16  C   UNL     1      -3.498  10.421  15.498  0.00  0.00    +0.000 A 
ATOM     17  S   UNL     1      -3.950  11.443  16.751  0.00  0.00    +0.000 S 
ENDROOT
BRANCH   1  24
ATOM     18  C   UNL     1       2.930   4.251  18.889  0.00  0.00    +0.000 C 
ATOM     19  N   UNL     1       3.454   5.621  19.006  0.00  0.00    +0.000 NA
ATOM     20  C   UNL     1       4.368   5.935  17.872  0.00  0.00    +0.000 C 
ATOM     21  C   UNL     1       3.949   7.274  17.363  0.00  0.00    +0.000 C 
ATOM     22  C   UNL     1       2.850   7.611  17.987  0.00  0.00    +0.000 C 
ATOM     23  C   UNL     1       2.042   8.841  18.082  0.00  0.00    +0.000 C 
ATOM     24  N   UNL     1       1.489   8.695  19.428  0.00  0.00    +0.000 N 
ATOM     25  C   UNL     1       2.003   7.490  20.087  0.00  0.00    +0.000 C 
ATOM     26  C   UNL     1       2.368   6.609  18.896  0.00  0.00    +0.000 C 
ENDBRANCH   1  24
BRANCH  10  27
ATOM     27  C   UNL     1      -4.109  13.937  21.479  0.00  0.00    +0.000 C 
ATOM     28  O   UNL     1      -4.457  14.882  20.789  0.00  0.00    +0.000 OA
BRANCH  27  29
ATOM     29  O   UNL     1      -4.626  13.861  22.729  0.00  0.00    +0.000 OA
ATOM     30  H   UNL     1      -5.563  13.793  22.944  0.00  0.00    +0.000 HD
ENDBRANCH  27  29
ENDBRANCH  10  27
TORSDOF 3
ENDMDL
MODEL 3
REMARK VINA RESULT:      -7.7      5.117      9.162
REMARK  Name = 
REMARK  4 active torsions:
REMARK  status: ('A' for Active; 'I' for Inactive)
REMARK    1  A    between atoms: C_1  and  N_2
REMARK    2  A    between atoms: N_7  and  C_8
REMARK    3  A    between atoms: C_17  and  C_18
REMARK    4  A    between atoms: C_18  and  O_20
REMARK                            x       y       z     vdW  Elec       q    Type
REMARK                         _______ _______ _______ _____ _____    ______ ____
ROOT
ATOM      1  C   UNL     1       1.292   8.789  20.158  0.00  0.00    +0.000 A 
ATOM      2  N   UNL     1       1.344  10.148  20.059  0.00  0.00    +0.000 NA
ATOM      3  C   UNL     1       0.637  10.996  20.867  0.00  0.00    +0.000 A 
ATOM      4  C   UNL     1      -0.193  10.445  21.865  0.00  0.00    +0.000 A 
ATOM      5  C   UNL     1      -0.270   9.049  21.987  0.00  0.00    +0.000 A 
ATOM      6  C   UNL     1       0.460   8.219  21.141  0.00  0.00    +0.000 A 
ATOM      7  F   UNL     1       0.351   6.879  21.313  0.00  0.00    +0.000 F 
ATOM      8  C   UNL     1      -0.924  11.295  22.714  0.00  0.00    +0.000 A 
ATOM      9  O   UNL     1      -1.641  10.814  23.579  0.00  0.00    +0.000 OA
ATOM     10  C   UNL     1      -0.828  12.694  22.567  0.00  0.00    +0.000 A 
ATOM     11  C   UNL     1       0.013  13.191  21.553  0.00  0.00    +0.000 A 
ATOM     12  N   UNL     1       0.727  12.364  20.720  0.00  0.00    +0.000 N 
ATOM     13  C   UNL     1       1.557  12.968  19.688  0.00  0.00    +0.000 A 
ATOM     14  N   UNL     1       2.290  12.261  18.795  0.00  0.00    +0.000 NA
ATOM     15  C   UNL     1       2.957  13.057  17.919  0.00  0.00    +0.000 A 
ATOM     16  C   UNL     1       2.764  14.420  18.098  0.00  0.00    +0.000 A 
ATOM     17  S   UNL     1       1.727  14.627  19.401  0.00  0.00    +0.000 S 
ENDROOT
BRANCH   1  24
ATOM     18  C   UNL     1       3.165   3.737  17.566  0.00  0.00    +0.000 C 
ATOM     19  N   UNL     1       3.800   4.987  18.012  0.00  0.00    +0.000 NA
ATOM     20  C   UNL     1       4.717   5.516  16.964  0.00  0.00    +0.000 C 
ATOM     21  C   UNL     1       4.399   6.968  16.833  0.00  0.00    +0.000 C 
ATOM     22  C   UNL     1       3.341   7.212  17.562  0.00  0.00    +0.000 C 
ATOM     23  C   UNL     1       2.637   8.431  18.000  0.00  0.00    +0.000 C 
ATOM     24  N   UNL     1       2.096   7.982  19.282  0.00  0.00    +0.000 N 
ATOM     25  C   UNL     1       2.521   6.613  19.590  0.00  0.00    +0.000 C 
ATOM     26  C   UNL     1       2.795   6.047  18.200  0.00  0.00    +0.000 C 
ENDBRANCH   1  24
BRANCH  10  27
ATOM     27  C   UNL     1      -1.603  13.626  23.465  0.00  0.00    +0.000 C 
ATOM     28  O   UNL     1      -1.016  14.497  24.087  0.00  0.00    +0.000 OA
BRANCH  27  29
ATOM     29  O   UNL     1      -2.945  13.547  23.629  0.00  0.00    +0.000 OA
ATOM     30  H   UNL     1      -3.600  13.616  22.926  0.00  0.00    +0.000 HD
ENDBRANCH  27  29
ENDBRANCH  10  27
TORSDOF 3
ENDMDL
MODEL 4
REMARK VINA RESULT:      -7.4      5.508      9.513
REMARK  Name = 
REMARK  4 active torsions:
REMARK  status: ('A' for Active; 'I' for Inactive)
REMARK    1  A    between atoms: C_1  and  N_2
REMARK    2  A    between atoms: N_7  and  C_8
REMARK    3  A    between atoms: C_17  and  C_18
REMARK    4  A    between atoms: C_18  and  O_20
REMARK                            x       y       z     vdW  Elec       q    Type
REMARK                         _______ _______ _______ _____ _____    ______ ____
ROOT
ATOM      1  C   UNL     1       0.801   9.639  20.554  0.00  0.00    +0.000 A 
ATOM      2  N   UNL     1       1.039  10.976  20.434  0.00  0.00    +0.000 NA
ATOM      3  C   UNL     1       0.391  11.931  21.170  0.00  0.00    +0.000 A 
ATOM      4  C   UNL     1      -0.576  11.520  22.110  0.00  0.00    +0.000 A 
ATOM      5  C   UNL     1      -0.845  10.150  22.250  0.00  0.00    +0.000 A 
ATOM      6  C   UNL     1      -0.169   9.209  21.479  0.00  0.00    +0.000 A 
ATOM      7  F   UNL     1      -0.466   7.900  21.666  0.00  0.00    +0.000 F 
ATOM      8  C   UNL     1      -1.251  12.481  22.884  0.00  0.00    +0.000 A 
ATOM      9  O   UNL     1      -2.087  12.122  23.699  0.00  0.00    +0.000 OA
ATOM     10  C   UNL     1      -0.961  13.851  22.719  0.00  0.00    +0.000 A 
ATOM     11  C   UNL     1       0.012  14.206  21.765  0.00  0.00    +0.000 A 
ATOM     12  N   UNL     1       0.671  13.272  21.005  0.00  0.00    +0.000 N 
ATOM     13  C   UNL     1       1.648  13.733  20.030  0.00  0.00    +0.000 A 
ATOM     14  N   UNL     1       2.346  12.912  19.210  0.00  0.00    +0.000 NA
ATOM     15  C   UNL     1       3.175  13.591  18.374  0.00  0.00    +0.000 A 
ATOM     16  C   UNL     1       3.150  14.972  18.513  0.00  0.00    +0.000 A 
ATOM     17  S   UNL     1       2.054  15.348  19.727  0.00  0.00    +0.000 S 
ENDROOT
BRANCH   1  24
ATOM     18  C   UNL     1       2.698   4.259  18.761  0.00  0.00    +0.000 C 
ATOM     19  N   UNL     1       3.297   5.597  18.884  0.00  0.00    +0.000 NA
ATOM     20  C   UNL     1       4.061   5.948  17.654  0.00  0.00    +0.000 C 
ATOM     21  C   UNL     1       3.640   7.333  17.289  0.00  0.00    +0.000 C 
ATOM     22  C   UNL     1       2.653   7.671  18.079  0.00  0.00    +0.000 C 
ATOM     23  C   UNL     1       1.926   8.922  18.359  0.00  0.00    +0.000 C 
ATOM     24  N   UNL     1       1.555   8.710  19.758  0.00  0.00    +0.000 N 
ATOM     25  C   UNL     1       2.096   7.446  20.266  0.00  0.00    +0.000 C 
ATOM     26  C   UNL     1       2.254   6.631  18.985  0.00  0.00    +0.000 C 
ENDBRANCH   1  24
BRANCH  10  27
ATOM     27  C   UNL     1      -1.671  14.901  23.538  0.00  0.00    +0.000 C 
ATOM     28  O   UNL     1      -2.249  15.819  22.978  0.00  0.00    +0.000 OA
BRANCH  27  29
ATOM     29  O   UNL     1      -1.702  14.885  24.892  0.00  0.00    +0.000 OA
ATOM     30  H   UNL     1      -2.445  14.594  25.432  0.00  0.00    +0.000 HD
ENDBRANCH  27  29
ENDBRANCH  10  27
TORSDOF 3
ENDMDL
MODEL 5
REMARK VINA RESULT:      -7.2      5.216      9.067
REMARK  Name = 
REMARK  4 active torsions:
REMARK  status: ('A' for Active; 'I' for Inactive)
REMARK    1  A    between atoms: C_1  and  N_2
REMARK    2  A    between atoms: N_7  and  C_8
REMARK    3  A    between atoms: C_17  and  C_18
REMARK    4  A    between atoms: C_18  and  O_20
REMARK                            x       y       z     vdW  Elec       q    Type
REMARK                         _______ _______ _______ _____ _____    ______ ____
ROOT
ATOM      1  C   UNL     1       0.831   9.102  20.487  0.00  0.00    +0.000 A 
ATOM      2  N   UNL     1      -0.168   9.732  19.806  0.00  0.00    +0.000 NA
ATOM      3  C   UNL     1      -0.910  10.757  20.325  0.00  0.00    +0.000 A 
ATOM      4  C   UNL     1      -0.634  11.197  21.636  0.00  0.00    +0.000 A 
ATOM      5  C   UNL     1       0.386  10.563  22.362  0.00  0.00    +0.000 A 
ATOM      6  C   UNL     1       1.116   9.519  21.802  0.00  0.00    +0.000 A 
ATOM      7  F   UNL     1       2.093   8.952  22.549  0.00  0.00    +0.000 F 
ATOM      8  C   UNL     1      -1.378  12.254  22.190  0.00  0.00    +0.000 A 
ATOM      9  O   UNL     1      -1.134  12.635  23.325  0.00  0.00    +0.000 OA
ATOM     10  C   UNL     1      -2.397  12.872  21.436  0.00  0.00    +0.000 A 
ATOM     11  C   UNL     1      -2.633  12.392  20.134  0.00  0.00    +0.000 A 
ATOM     12  N   UNL     1      -1.912  11.358  19.590  0.00  0.00    +0.000 N 
ATOM     13  C   UNL     1      -2.239  10.916  18.242  0.00  0.00    +0.000 A 
ATOM     14  N   UNL     1      -1.614   9.896  17.607  0.00  0.00    +0.000 NA
ATOM     15  C   UNL     1      -2.121   9.664  16.368  0.00  0.00    +0.000 A 
ATOM     16  C   UNL     1      -3.166  10.498  15.993  0.00  0.00    +0.000 A 
ATOM     17  S   UNL     1      -3.456  11.560  17.260  0.00  0.00    +0.000 S 
ENDROOT
BRANCH   1  24
ATOM     18  C   UNL     1       5.139   6.770  17.058  0.00  0.00    +0.000 C 
ATOM     19  N   UNL     1       3.736   6.441  17.350  0.00  0.00    +0.000 NA
ATOM     20  C   UNL     1       3.583   4.986  17.633  0.00  0.00    +0.000 C 
ATOM     21  C   UNL     1       2.755   4.892  18.871  0.00  0.00    +0.000 C 
ATOM     22  C   UNL     1       2.598   6.103  19.339  0.00  0.00    +0.000 C 
ATOM     23  C   UNL     1       1.768   6.712  20.395  0.00  0.00    +0.000 C 
ATOM     24  N   UNL     1       1.577   8.054  19.845  0.00  0.00    +0.000 N 
ATOM     25  C   UNL     1       2.200   8.183  18.525  0.00  0.00    +0.000 C 
ATOM     26  C   UNL     1       3.285   7.111  18.582  0.00  0.00    +0.000 C 
ENDBRANCH   1  24
BRANCH  10  27
ATOM     27  C   UNL     1      -3.209  14.007  22.009  0.00  0.00    +0.000 C 
ATOM     28  O   UNL     1      -3.360  15.032  21.362  0.00  0.00    +0.000 OA
BRANCH  27  29
ATOM     29  O   UNL     1      -3.790  13.957  23.232  0.00  0.00    +0.000 OA
ATOM     30  H   UNL     1      -4.717  14.140  23.418  0.00  0.00    +0.000 HD
ENDBRANCH  27  29
ENDBRANCH  10  27
TORSDOF 3
ENDMDL
MODEL 6
REMARK VINA RESULT:      -7.1      5.112      8.074
REMARK  Name = 
REMARK  4 active torsions:
REMARK  status: ('A' for Active; 'I' for Inactive)
REMARK    1  A    between atoms: C_1  and  N_2
REMARK    2  A    between atoms: N_7  and  C_8
REMARK    3  A    between atoms: C_17  and  C_18
REMARK    4  A    between atoms: C_18  and  O_20
REMARK                            x       y       z     vdW  Elec       q    Type
REMARK                         _______ _______ _______ _____ _____    ______ ____
ROOT
ATOM      1  C   UNL     1      -2.650  12.693  21.433  0.00  0.00    +0.000 A 
ATOM      2  N   UNL     1      -2.591  12.094  20.209  0.00  0.00    +0.000 NA
ATOM      3  C   UNL     1      -1.542  11.321  19.793  0.00  0.00    +0.000 A 
ATOM      4  C   UNL     1      -0.457  11.123  20.671  0.00  0.00    +0.000 A 
ATOM      5  C   UNL     1      -0.489  11.732  21.935  0.00  0.00    +0.000 A 
ATOM      6  C   UNL     1      -1.571  12.517  22.321  0.00  0.00    +0.000 A 
ATOM      7  F   UNL     1      -1.549  13.071  23.557  0.00  0.00    +0.000 F 
ATOM      8  C   UNL     1       0.631  10.327  20.270  0.00  0.00    +0.000 A 
ATOM      9  O   UNL     1       1.569  10.156  21.033  0.00  0.00    +0.000 OA
ATOM     10  C   UNL     1       0.636   9.729  18.993  0.00  0.00    +0.000 A 
ATOM     11  C   UNL     1      -0.472   9.961  18.155  0.00  0.00    +0.000 A 
ATOM     12  N   UNL     1      -1.535  10.741  18.542  0.00  0.00    +0.000 N 
ATOM     13  C   UNL     1      -2.628  10.940  17.601  0.00  0.00    +0.000 A 
ATOM     14  N   UNL     1      -3.718  11.701  17.858  0.00  0.00    +0.000 NA
ATOM     15  C   UNL     1      -4.581  11.748  16.809  0.00  0.00    +0.000 A 
ATOM     16  C   UNL     1      -4.190  11.022  15.692  0.00  0.00    +0.000 A 
ATOM     17  S   UNL     1      -2.716  10.299  16.038  0.00  0.00    +0.000 S 
ENDROOT
BRANCH   1  24
ATOM     18  C   UNL     1      -7.780  13.840  24.284  0.00  0.00    +0.000 C 
ATOM     19  N   UNL     1      -7.229  14.136  22.952  0.00  0.00    +0.000 NA
ATOM     20  C   UNL     1      -7.451  15.566  22.596  0.00  0.00    +0.000 C 
ATOM     21  C   UNL     1      -6.144  16.071  22.081  0.00  0.00    +0.000 C 
ATOM     22  C   UNL     1      -5.252  15.133  22.273  0.00  0.00    +0.000 C 
ATOM     23  C   UNL     1      -3.856  14.922  21.848  0.00  0.00    +0.000 C 
ATOM     24  N   UNL     1      -3.810  13.462  21.792  0.00  0.00    +0.000 N 
ATOM     25  C   UNL     1      -5.119  12.876  22.099  0.00  0.00    +0.000 C 
ATOM     26  C   UNL     1      -5.765  13.971  22.942  0.00  0.00    +0.000 C 
ENDBRANCH   1  24
BRANCH  10  27
ATOM     27  C   UNL     1       1.791   8.871  18.539  0.00  0.00    +0.000 C 
ATOM     28  O   UNL     1       2.315   9.081  17.457  0.00  0.00    +0.000 OA
BRANCH  27  29
ATOM     29  O   UNL     1       2.290   7.853  19.280  0.00  0.00    +0.000 OA
ATOM     30  H   UNL     1       3.012   7.923  19.914  0.00  0.00    +0.000 HD
ENDBRANCH  27  29
ENDBRANCH  10  27
TORSDOF 3
ENDMDL
MODEL 7
REMARK VINA RESULT:      -6.9      5.114      8.022
REMARK  Name = 
REMARK  4 active torsions:
REMARK  status: ('A' for Active; 'I' for Inactive)
REMARK    1  A    between atoms: C_1  and  N_2
REMARK    2  A    between atoms: N_7  and  C_8
REMARK    3  A    between atoms: C_17  and  C_18
REMARK    4  A    between atoms: C_18  and  O_20
REMARK                            x       y       z     vdW  Elec       q    Type
REMARK                         _______ _______ _______ _____ _____    ______ ____
ROOT
ATOM      1  C   UNL     1      -2.648  12.678  21.459  0.00  0.00    +0.000 A 
ATOM      2  N   UNL     1      -2.592  12.082  20.234  0.00  0.00    +0.000 NA
ATOM      3  C   UNL     1      -1.541  11.316  19.811  0.00  0.00    +0.000 A 
ATOM      4  C   UNL     1      -0.451  11.121  20.683  0.00  0.00    +0.000 A 
ATOM      5  C   UNL     1      -0.480  11.726  21.949  0.00  0.00    +0.000 A 
ATOM      6  C   UNL     1      -1.565  12.505  22.341  0.00  0.00    +0.000 A 
ATOM      7  F   UNL     1      -1.539  13.057  23.578  0.00  0.00    +0.000 F 
ATOM      8  C   UNL     1       0.638  10.331  20.275  0.00  0.00    +0.000 A 
ATOM      9  O   UNL     1       1.581  10.162  21.034  0.00  0.00    +0.000 OA
ATOM     10  C   UNL     1       0.640   9.735  18.997  0.00  0.00    +0.000 A 
ATOM     11  C   UNL     1      -0.472   9.964  18.165  0.00  0.00    +0.000 A 
ATOM     12  N   UNL     1      -1.537  10.738  18.558  0.00  0.00    +0.000 N 
ATOM     13  C   UNL     1      -2.636  10.934  17.623  0.00  0.00    +0.000 A 
ATOM     14  N   UNL     1      -3.728  11.690  17.886  0.00  0.00    +0.000 NA
ATOM     15  C   UNL     1      -4.596  11.734  16.842  0.00  0.00    +0.000 A 
ATOM     16  C   UNL     1      -4.207  11.013  15.721  0.00  0.00    +0.000 A 
ATOM     17  S   UNL     1      -2.728  10.295  16.059  0.00  0.00    +0.000 S 
ENDROOT
BRANCH   1  24
ATOM     18  C   UNL     1      -7.242  16.404  20.578  0.00  0.00    +0.000 C 
ATOM     19  N   UNL     1      -6.310  16.128  21.682  0.00  0.00    +0.000 NA
ATOM     20  C   UNL     1      -7.044  16.001  22.973  0.00  0.00    +0.000 C 
ATOM     21  C   UNL     1      -6.517  14.767  23.627  0.00  0.00    +0.000 C 
ATOM     22  C   UNL     1      -5.727  14.169  22.773  0.00  0.00    +0.000 C 
ATOM     23  C   UNL     1      -4.780  13.041  22.844  0.00  0.00    +0.000 C 
ATOM     24  N   UNL     1      -3.810  13.441  21.825  0.00  0.00    +0.000 N 
ATOM     25  C   UNL     1      -4.145  14.749  21.254  0.00  0.00    +0.000 C 
ATOM     26  C   UNL     1      -5.650  14.824  21.497  0.00  0.00    +0.000 C 
ENDBRANCH   1  24
BRANCH  10  27
ATOM     27  C   UNL     1       1.797   8.884  18.536  0.00  0.00    +0.000 C 
ATOM     28  O   UNL     1       2.311   9.095  17.448  0.00  0.00    +0.000 OA
BRANCH  27  29
ATOM     29  O   UNL     1       2.309   7.871  19.276  0.00  0.00    +0.000 OA
ATOM     30  H   UNL     1       1.881   7.461  20.035  0.00  0.00    +0.000 HD
ENDBRANCH  27  29
ENDBRANCH  10  27
TORSDOF 3
ENDMDL
MODEL 8
REMARK VINA RESULT:      -6.8      5.680      9.603
REMARK  Name = 
REMARK  4 active torsions:
REMARK  status: ('A' for Active; 'I' for Inactive)
REMARK    1  A    between atoms: C_1  and  N_2
REMARK    2  A    between atoms: N_7  and  C_8
REMARK    3  A    between atoms: C_17  and  C_18
REMARK    4  A    between atoms: C_18  and  O_20
REMARK                            x       y       z     vdW  Elec       q    Type
REMARK                         _______ _______ _______ _____ _____    ______ ____
ROOT
ATOM      1  C   UNL     1       0.425   9.999  21.189  0.00  0.00    +0.000 A 
ATOM      2  N   UNL     1       0.762  11.257  20.786  0.00  0.00    +0.000 NA
ATOM      3  C   UNL     1       0.242  12.395  21.340  0.00  0.00    +0.000 A 
ATOM      4  C   UNL     1      -0.691  12.273  22.389  0.00  0.00    +0.000 A 
ATOM      5  C   UNL     1      -1.060  10.989  22.820  0.00  0.00    +0.000 A 
ATOM      6  C   UNL     1      -0.515   9.854  22.227  0.00  0.00    +0.000 A 
ATOM      7  F   UNL     1      -0.904   8.643  22.693  0.00  0.00    +0.000 F 
ATOM      8  C   UNL     1      -1.234  13.428  22.980  0.00  0.00    +0.000 A 
ATOM      9  O   UNL     1      -2.042  13.319  23.890  0.00  0.00    +0.000 OA
ATOM     10  C   UNL     1      -0.845  14.704  22.525  0.00  0.00    +0.000 A 
ATOM     11  C   UNL     1       0.089  14.769  21.473  0.00  0.00    +0.000 A 
ATOM     12  N   UNL     1       0.619  13.644  20.891  0.00  0.00    +0.000 N 
ATOM     13  C   UNL     1       1.565  13.809  19.796  0.00  0.00    +0.000 A 
ATOM     14  N   UNL     1       2.139  12.779  19.130  0.00  0.00    +0.000 NA
ATOM     15  C   UNL     1       2.964  13.196  18.134  0.00  0.00    +0.000 A 
ATOM     16  C   UNL     1       3.061  14.573  17.988  0.00  0.00    +0.000 A 
ATOM     17  S   UNL     1       2.080  15.285  19.150  0.00  0.00    +0.000 S 
ENDROOT
BRANCH   1  24
ATOM     18  C   UNL     1       4.048   7.164  17.369  0.00  0.00    +0.000 C 
ATOM     19  N   UNL     1       2.725   6.900  17.954  0.00  0.00    +0.000 NA
ATOM     20  C   UNL     1       2.637   5.498  18.450  0.00  0.00    +0.000 C 
ATOM     21  C   UNL     1       2.051   5.581  19.821  0.00  0.00    +0.000 C 
ATOM     22  C   UNL     1       1.973   6.846  20.144  0.00  0.00    +0.000 C 
ATOM     23  C   UNL     1       1.347   7.603  21.244  0.00  0.00    +0.000 C 
ATOM     24  N   UNL     1       1.048   8.863  20.566  0.00  0.00    +0.000 N 
ATOM     25  C   UNL     1       1.417   8.807  19.148  0.00  0.00    +0.000 C 
ATOM     26  C   UNL     1       2.503   7.734  19.147  0.00  0.00    +0.000 C 
ENDBRANCH   1  24
BRANCH  10  27
ATOM     27  C   UNL     1      -1.413  15.958  23.143  0.00  0.00    +0.000 C 
ATOM     28  O   UNL     1      -0.666  16.866  23.471  0.00  0.00    +0.000 OA
BRANCH  27  29
ATOM     29  O   UNL     1      -2.738  16.137  23.365  0.00  0.00    +0.000 OA
ATOM     30  H   UNL     1      -3.430  15.497  23.164  0.00  0.00    +0.000 HD
ENDBRANCH  27  29
ENDBRANCH  10  27
TORSDOF 3
ENDMDL
MODEL 9
REMARK VINA RESULT:      -6.8      0.758      1.455
REMARK  Name = 
REMARK  4 active torsions:
REMARK  status: ('A' for Active; 'I' for Inactive)
REMARK    1  A    between atoms: C_1  and  N_2
REMARK    2  A    between atoms: N_7  and  C_8
REMARK    3  A    between atoms: C_17  and  C_18
REMARK    4  A    between atoms: C_18  and  O_20
REMARK                            x       y       z     vdW  Elec       q    Type
REMARK                         _______ _______ _______ _____ _____    ______ ____
ROOT
ATOM      1  C   UNL     1       2.316   8.121  18.971  0.00  0.00    +0.000 A 
ATOM      2  N   UNL     1       2.696   6.824  19.152  0.00  0.00    +0.000 NA
ATOM      3  C   UNL     1       3.501   6.141  18.281  0.00  0.00    +0.000 A 
ATOM      4  C   UNL     1       3.972   6.806  17.131  0.00  0.00    +0.000 A 
ATOM      5  C   UNL     1       3.592   8.140  16.917  0.00  0.00    +0.000 A 
ATOM      6  C   UNL     1       2.767   8.799  17.823  0.00  0.00    +0.000 A 
ATOM      7  F   UNL     1       2.441  10.090  17.566  0.00  0.00    +0.000 F 
ATOM      8  C   UNL     1       4.806   6.128  16.224  0.00  0.00    +0.000 A 
ATOM      9  O   UNL     1       5.214   6.707  15.229  0.00  0.00    +0.000 OA
ATOM     10  C   UNL     1       5.170   4.787  16.465  0.00  0.00    +0.000 A 
ATOM     11  C   UNL     1       4.670   4.170  17.628  0.00  0.00    +0.000 A 
ATOM     12  N   UNL     1       3.853   4.827  18.514  0.00  0.00    +0.000 N 
ATOM     13  C   UNL     1       3.369   4.103  19.681  0.00  0.00    +0.000 A 
ATOM     14  N   UNL     1       2.543   4.634  20.613  0.00  0.00    +0.000 NA
ATOM     15  C   UNL     1       2.216   3.746  21.589  0.00  0.00    +0.000 A 
ATOM     16  C   UNL     1       2.777   2.484  21.447  0.00  0.00    +0.000 A 
ATOM     17  S   UNL     1       3.715   2.490  20.055  0.00  0.00    +0.000 S 
ENDROOT
BRANCH   1  24
ATOM     18  C   UNL     1       0.369   9.385  24.482  0.00  0.00    +0.000 C 
ATOM     19  N   UNL     1      -0.250   9.246  23.155  0.00  0.00    +0.000 NA
ATOM     20  C   UNL     1      -1.181  10.379  22.886  0.00  0.00    +0.000 C 
ATOM     21  C   UNL     1      -0.855  10.863  21.512  0.00  0.00    +0.000 C 
ATOM     22  C   UNL     1       0.216  10.229  21.109  0.00  0.00    +0.000 C 
ATOM     23  C   UNL     1       0.935  10.109  19.828  0.00  0.00    +0.000 C 
ATOM     24  N   UNL     1       1.493   8.764  19.958  0.00  0.00    +0.000 N 
ATOM     25  C   UNL     1       1.064   8.127  21.207  0.00  0.00    +0.000 C 
ATOM     26  C   UNL     1       0.764   9.335  22.091  0.00  0.00    +0.000 C 
ENDBRANCH   1  24
BRANCH  10  27
ATOM     27  C   UNL     1       6.064   4.039  15.507  0.00  0.00    +0.000 C 
ATOM     28  O   UNL     1       7.159   3.646  15.879  0.00  0.00    +0.000 OA
BRANCH  27  29
ATOM     29  O   UNL     1       5.715   3.776  14.225  0.00  0.00    +0.000 OA
ATOM     30  H   UNL     1       5.593   4.434  13.532  0.00  0.00    +0.000 HD
ENDBRANCH  27  29
ENDBRANCH  10  27
TORSDOF 3
ENDMDL
