MODEL 1
REMARK VINA RESULT:      -6.5      0.000      0.000
REMARK  Name = 
REMARK  7 active torsions:
REMARK  status: ('A' for Active; 'I' for Inactive)
REMARK    1  A    between atoms: C_1  and  C_2
REMARK    2  A    between atoms: C_2  and  C_3
REMARK    3  A    between atoms: C_3  and  C_4
REMARK    4  A    between atoms: C_4  and  C_5
REMARK    5  A    between atoms: C_5  and  C_6
REMARK    6  A    between atoms: C_6  and  N_7
REMARK    7  A    between atoms: C_10  and  N_11
REMARK                            x       y       z     vdW  Elec       q    Type
REMARK                         _______ _______ _______ _____ _____    ______ ____
ROOT
ATOM      1  N   UNL     1       4.355   4.360  17.900  0.00  0.00    +0.000 N 
ATOM      2  C   UNL     1       4.528   4.804  19.193  0.00  0.00    +0.000 A 
ATOM      3  N   UNL     1       5.637   5.243  19.712  0.00  0.00    +0.000 NA
ATOM      4  C   UNL     1       6.773   5.234  18.908  0.00  0.00    +0.000 A 
ATOM      5  C   UNL     1       6.726   4.873  17.608  0.00  0.00    +0.000 A 
ATOM      6  N   UNL     1       7.664   4.789  16.616  0.00  0.00    +0.000 NA
ATOM      7  C   UNL     1       6.979   4.302  15.621  0.00  0.00    +0.000 A 
ATOM      8  N   UNL     1       5.630   4.048  15.834  0.00  0.00    +0.000 NA
ATOM      9  C   UNL     1       5.447   4.395  17.076  0.00  0.00    +0.000 A 
ENDROOT
BRANCH   4  10
ATOM     10  N   UNL     1       7.978   5.605  19.477  0.00  0.00    +0.000 N 
ATOM     11  H   UNL     1       7.828   6.272  20.225  0.00  0.00    +0.000 HD
ATOM     12  H   UNL     1       8.658   5.891  18.778  0.00  0.00    +0.000 HD
ENDBRANCH   4  10
BRANCH   1  13
ATOM     13  C   UNL     1       3.130   3.702  17.464  0.00  0.00    +0.000 C 
BRANCH  13  14
ATOM     14  C   UNL     1       3.106   2.251  17.955  0.00  0.00    +0.000 C 
BRANCH  14  15
ATOM     15  C   UNL     1       1.951   1.996  18.924  0.00  0.00    +0.000 C 
BRANCH  15  16
ATOM     16  C   UNL     1       1.120   3.265  19.115  0.00  0.00    +0.000 C 
BRANCH  16  18
ATOM     17  C   UNL     1       1.949   2.806  21.443  0.00  0.00    +0.000 C 
ATOM     18  C   UNL     1       1.053   3.681  20.582  0.00  0.00    +0.000 C 
ENDBRANCH  16  18
ENDBRANCH  15  16
ENDBRANCH  14  15
ENDBRANCH  13  14
ENDBRANCH   1  13
TORSDOF 6
ENDMDL
MODEL 2
REMARK VINA RESULT:      -6.2      0.877      1.048
REMARK  Name = 
REMARK  7 active torsions:
REMARK  status: ('A' for Active; 'I' for Inactive)
REMARK    1  A    between atoms: C_1  and  C_2
REMARK    2  A    between atoms: C_2  and  C_3
REMARK    3  A    between atoms: C_3  and  C_4
REMARK    4  A    between atoms: C_4  and  C_5
REMARK    5  A    between atoms: C_5  and  C_6
REMARK    6  A    between atoms: C_6  and  N_7
REMARK    7  A    between atoms: C_10  and  N_11
REMARK                            x       y       z     vdW  Elec       q    Type
REMARK                         _______ _______ _______ _____ _____    ______ ____
ROOT
ATOM      1  N   UNL     1       4.894   3.936  17.921  0.00  0.00    +0.000 N 
ATOM      2  C   UNL     1       5.165   4.326  19.214  0.00  0.00    +0.000 A 
ATOM      3  N   UNL     1       6.131   5.109  19.594  0.00  0.00    +0.000 NA
ATOM      4  C   UNL     1       7.005   5.575  18.615  0.00  0.00    +0.000 A 
ATOM      5  C   UNL     1       6.819   5.310  17.305  0.00  0.00    +0.000 A 
ATOM      6  N   UNL     1       7.498   5.645  16.166  0.00  0.00    +0.000 NA
ATOM      7  C   UNL     1       6.837   5.006  15.244  0.00  0.00    +0.000 A 
ATOM      8  N   UNL     1       5.738   4.257  15.645  0.00  0.00    +0.000 NA
ATOM      9  C   UNL     1       5.708   4.428  16.936  0.00  0.00    +0.000 A 
ENDROOT
BRANCH   4  10
ATOM     10  N   UNL     1       8.094   6.327  19.018  0.00  0.00    +0.000 N 
ATOM     11  H   UNL     1       8.014   6.573  19.998  0.00  0.00    +0.000 HD
ATOM     12  H   UNL     1       8.268   7.111  18.393  0.00  0.00    +0.000 HD
ENDBRANCH   4  10
BRANCH   1  13
ATOM     13  C   UNL     1       3.915   2.901  17.611  0.00  0.00    +0.000 C 
BRANCH  13  14
ATOM     14  C   UNL     1       3.173   2.479  18.884  0.00  0.00    +0.000 C 
BRANCH  14  15
ATOM     15  C   UNL     1       1.713   2.931  18.869  0.00  0.00    +0.000 C 
BRANCH  15  16
ATOM     16  C   UNL     1       1.148   2.973  20.289  0.00  0.00    +0.000 C 
BRANCH  16  18
ATOM     17  C   UNL     1       1.804   5.380  20.593  0.00  0.00    +0.000 C 
ATOM     18  C   UNL     1       1.895   3.974  21.165  0.00  0.00    +0.000 C 
ENDBRANCH  16  18
ENDBRANCH  15  16
ENDBRANCH  14  15
ENDBRANCH  13  14
ENDBRANCH   1  13
TORSDOF 6
ENDMDL
MODEL 3
REMARK VINA RESULT:      -6.2      1.079      2.516
REMARK  Name = 
REMARK  7 active torsions:
REMARK  status: ('A' for Active; 'I' for Inactive)
REMARK    1  A    between atoms: C_1  and  C_2
REMARK    2  A    between atoms: C_2  and  C_3
REMARK    3  A    between atoms: C_3  and  C_4
REMARK    4  A    between atoms: C_4  and  C_5
REMARK    5  A    between atoms: C_5  and  C_6
REMARK    6  A    between atoms: C_6  and  N_7
REMARK    7  A    between atoms: C_10  and  N_11
REMARK                            x       y       z     vdW  Elec       q    Type
REMARK                         _______ _______ _______ _____ _____    ______ ____
ROOT
ATOM      1  N   UNL     1       5.026   3.971  18.000  0.00  0.00    +0.000 N 
ATOM      2  C   UNL     1       4.876   3.719  16.654  0.00  0.00    +0.000 A 
ATOM      3  N   UNL     1       5.655   4.145  15.702  0.00  0.00    +0.000 NA
ATOM      4  C   UNL     1       6.723   4.964  16.060  0.00  0.00    +0.000 A 
ATOM      5  C   UNL     1       7.010   5.242  17.348  0.00  0.00    +0.000 A 
ATOM      6  N   UNL     1       7.980   5.986  17.962  0.00  0.00    +0.000 NA
ATOM      7  C   UNL     1       7.645   5.905  19.219  0.00  0.00    +0.000 A 
ATOM      8  N   UNL     1       6.522   5.152  19.536  0.00  0.00    +0.000 NA
ATOM      9  C   UNL     1       6.102   4.729  18.379  0.00  0.00    +0.000 A 
ENDROOT
BRANCH   4  10
ATOM     10  N   UNL     1       7.497   5.503  15.049  0.00  0.00    +0.000 N 
ATOM     11  H   UNL     1       7.574   4.855  14.273  0.00  0.00    +0.000 HD
ATOM     12  H   UNL     1       8.384   5.860  15.397  0.00  0.00    +0.000 HD
ENDBRANCH   4  10
BRANCH   1  13
ATOM     13  C   UNL     1       3.999   3.621  18.973  0.00  0.00    +0.000 C 
BRANCH  13  14
ATOM     14  C   UNL     1       2.650   4.212  18.553  0.00  0.00    +0.000 C 
BRANCH  14  15
ATOM     15  C   UNL     1       1.651   3.126  18.153  0.00  0.00    +0.000 C 
BRANCH  15  16
ATOM     16  C   UNL     1       0.693   2.825  19.306  0.00  0.00    +0.000 C 
BRANCH  16  18
ATOM     17  C   UNL     1       1.539   2.715  21.671  0.00  0.00    +0.000 C 
ATOM     18  C   UNL     1       1.046   3.625  20.557  0.00  0.00    +0.000 C 
ENDBRANCH  16  18
ENDBRANCH  15  16
ENDBRANCH  14  15
ENDBRANCH  13  14
ENDBRANCH   1  13
TORSDOF 6
ENDMDL
MODEL 4
REMARK VINA RESULT:      -6.2      2.958      5.557
REMARK  Name = 
REMARK  7 active torsions:
REMARK  status: ('A' for Active; 'I' for Inactive)
REMARK    1  A    between atoms: C_1  and  C_2
REMARK    2  A    between atoms: C_2  and  C_3
REMARK    3  A    between atoms: C_3  and  C_4
REMARK    4  A    between atoms: C_4  and  C_5
REMARK    5  A    between atoms: C_5  and  C_6
REMARK    6  A    between atoms: C_6  and  N_7
REMARK    7  A    between atoms: C_10  and  N_11
REMARK                            x       y       z     vdW  Elec       q    Type
REMARK                         _______ _______ _______ _____ _____    ______ ____
ROOT
ATOM      1  N   UNL     1       5.884   4.380  15.671  0.00  0.00    +0.000 N 
ATOM      2  C   UNL     1       7.164   4.793  15.972  0.00  0.00    +0.000 A 
ATOM      3  N   UNL     1       7.632   5.037  17.161  0.00  0.00    +0.000 NA
ATOM      4  C   UNL     1       6.758   4.909  18.237  0.00  0.00    +0.000 A 
ATOM      5  C   UNL     1       5.495   4.460  18.082  0.00  0.00    +0.000 A 
ATOM      6  N   UNL     1       4.459   4.232  18.947  0.00  0.00    +0.000 NA
ATOM      7  C   UNL     1       3.495   3.878  18.146  0.00  0.00    +0.000 A 
ATOM      8  N   UNL     1       3.776   3.828  16.786  0.00  0.00    +0.000 NA
ATOM      9  C   UNL     1       5.024   4.193  16.720  0.00  0.00    +0.000 A 
ENDROOT
BRANCH   4  10
ATOM     10  N   UNL     1       7.215   5.261  19.494  0.00  0.00    +0.000 N 
ATOM     11  H   UNL     1       6.455   5.611  20.065  0.00  0.00    +0.000 HD
ATOM     12  H   UNL     1       8.030   5.868  19.446  0.00  0.00    +0.000 HD
ENDBRANCH   4  10
BRANCH   1  13
ATOM     13  C   UNL     1       5.391   4.322  14.301  0.00  0.00    +0.000 C 
BRANCH  13  14
ATOM     14  C   UNL     1       6.295   3.423  13.451  0.00  0.00    +0.000 C 
BRANCH  14  15
ATOM     15  C   UNL     1       5.786   3.298  12.015  0.00  0.00    +0.000 C 
BRANCH  15  16
ATOM     16  C   UNL     1       4.299   3.644  11.939  0.00  0.00    +0.000 C 
BRANCH  16  18
ATOM     17  C   UNL     1       3.061   4.118   9.803  0.00  0.00    +0.000 C 
ATOM     18  C   UNL     1       3.640   3.038  10.703  0.00  0.00    +0.000 C 
ENDBRANCH  16  18
ENDBRANCH  15  16
ENDBRANCH  14  15
ENDBRANCH  13  14
ENDBRANCH   1  13
TORSDOF 6
ENDMDL
MODEL 5
REMARK VINA RESULT:      -6.1      1.422      2.855
REMARK  Name = 
REMARK  7 active torsions:
REMARK  status: ('A' for Active; 'I' for Inactive)
REMARK    1  A    between atoms: C_1  and  C_2
REMARK    2  A    between atoms: C_2  and  C_3
REMARK    3  A    between atoms: C_3  and  C_4
REMARK    4  A    between atoms: C_4  and  C_5
REMARK    5  A    between atoms: C_5  and  C_6
REMARK    6  A    between atoms: C_6  and  N_7
REMARK    7  A    between atoms: C_10  and  N_11
REMARK                            x       y       z     vdW  Elec       q    Type
REMARK                         _______ _______ _______ _____ _____    ______ ____
ROOT
ATOM      1  N   UNL     1       5.246   4.067  17.014  0.00  0.00    +0.000 N 
ATOM      2  C   UNL     1       5.347   3.482  15.770  0.00  0.00    +0.000 A 
ATOM      3  N   UNL     1       6.143   3.854  14.810  0.00  0.00    +0.000 NA
ATOM      4  C   UNL     1       6.945   4.970  15.033  0.00  0.00    +0.000 A 
ATOM      5  C   UNL     1       6.978   5.600  16.226  0.00  0.00    +0.000 A 
ATOM      6  N   UNL     1       7.666   6.680  16.706  0.00  0.00    +0.000 NA
ATOM      7  C   UNL     1       7.182   6.812  17.908  0.00  0.00    +0.000 A 
ATOM      8  N   UNL     1       6.214   5.901  18.313  0.00  0.00    +0.000 NA
ATOM      9  C   UNL     1       6.066   5.132  17.273  0.00  0.00    +0.000 A 
ENDROOT
BRANCH   4  10
ATOM     10  N   UNL     1       7.721   5.434  13.986  0.00  0.00    +0.000 N 
ATOM     11  H   UNL     1       7.235   5.320  13.104  0.00  0.00    +0.000 HD
ATOM     12  H   UNL     1       8.662   5.048  14.009  0.00  0.00    +0.000 HD
ENDBRANCH   4  10
BRANCH   1  13
ATOM     13  C   UNL     1       4.190   3.710  17.954  0.00  0.00    +0.000 C 
BRANCH  13  14
ATOM     14  C   UNL     1       2.880   3.451  17.204  0.00  0.00    +0.000 C 
BRANCH  14  15
ATOM     15  C   UNL     1       1.673   4.016  17.953  0.00  0.00    +0.000 C 
BRANCH  15  16
ATOM     16  C   UNL     1       1.197   3.035  19.024  0.00  0.00    +0.000 C 
BRANCH  16  18
ATOM     17  C   UNL     1       1.737   5.008  20.486  0.00  0.00    +0.000 C 
ATOM     18  C   UNL     1       0.910   3.739  20.348  0.00  0.00    +0.000 C 
ENDBRANCH  16  18
ENDBRANCH  15  16
ENDBRANCH  14  15
ENDBRANCH  13  14
ENDBRANCH   1  13
TORSDOF 6
ENDMDL
MODEL 6
REMARK VINA RESULT:      -6.1      2.673      5.499
REMARK  Name = 
REMARK  7 active torsions:
REMARK  status: ('A' for Active; 'I' for Inactive)
REMARK    1  A    between atoms: C_1  and  C_2
REMARK    2  A    between atoms: C_2  and  C_3
REMARK    3  A    between atoms: C_3  and  C_4
REMARK    4  A    between atoms: C_4  and  C_5
REMARK    5  A    between atoms: C_5  and  C_6
REMARK    6  A    between atoms: C_6  and  N_7
REMARK    7  A    between atoms: C_10  and  N_11
REMARK                            x       y       z     vdW  Elec       q    Type
REMARK                         _______ _______ _______ _____ _____    ______ ____
ROOT
ATOM      1  N   UNL     1       5.781   4.710  16.158  0.00  0.00    +0.000 N 
ATOM      2  C   UNL     1       4.559   4.100  16.342  0.00  0.00    +0.000 A 
ATOM      3  N   UNL     1       3.995   3.839  17.485  0.00  0.00    +0.000 NA
ATOM      4  C   UNL     1       4.700   4.168  18.641  0.00  0.00    +0.000 A 
ATOM      5  C   UNL     1       5.882   4.817  18.597  0.00  0.00    +0.000 A 
ATOM      6  N   UNL     1       6.753   5.261  19.554  0.00  0.00    +0.000 NA
ATOM      7  C   UNL     1       7.737   5.734  18.843  0.00  0.00    +0.000 A 
ATOM      8  N   UNL     1       7.619   5.668  17.460  0.00  0.00    +0.000 NA
ATOM      9  C   UNL     1       6.465   5.092  17.280  0.00  0.00    +0.000 A 
ENDROOT
BRANCH   4  10
ATOM     10  N   UNL     1       4.156   3.806  19.860  0.00  0.00    +0.000 N 
ATOM     11  H   UNL     1       3.184   4.088  19.915  0.00  0.00    +0.000 HD
ATOM     12  H   UNL     1       4.735   4.109  20.640  0.00  0.00    +0.000 HD
ENDBRANCH   4  10
BRANCH   1  13
ATOM     13  C   UNL     1       6.421   4.783  14.851  0.00  0.00    +0.000 C 
BRANCH  13  14
ATOM     14  C   UNL     1       5.654   3.927  13.837  0.00  0.00    +0.000 C 
BRANCH  14  15
ATOM     15  C   UNL     1       6.475   3.666  12.575  0.00  0.00    +0.000 C 
BRANCH  15  16
ATOM     16  C   UNL     1       5.628   2.955  11.519  0.00  0.00    +0.000 C 
BRANCH  16  18
ATOM     17  C   UNL     1       3.499   3.602  10.351  0.00  0.00    +0.000 C 
ATOM     18  C   UNL     1       4.143   3.264  11.686  0.00  0.00    +0.000 C 
ENDBRANCH  16  18
ENDBRANCH  15  16
ENDBRANCH  14  15
ENDBRANCH  13  14
ENDBRANCH   1  13
TORSDOF 6
ENDMDL
MODEL 7
REMARK VINA RESULT:      -6.1      2.417      5.558
REMARK  Name = 
REMARK  7 active torsions:
REMARK  status: ('A' for Active; 'I' for Inactive)
REMARK    1  A    between atoms: C_1  and  C_2
REMARK    2  A    between atoms: C_2  and  C_3
REMARK    3  A    between atoms: C_3  and  C_4
REMARK    4  A    between atoms: C_4  and  C_5
REMARK    5  A    between atoms: C_5  and  C_6
REMARK    6  A    between atoms: C_6  and  N_7
REMARK    7  A    between atoms: C_10  and  N_11
REMARK                            x       y       z     vdW  Elec       q    Type
REMARK                         _______ _______ _______ _____ _____    ______ ____
ROOT
ATOM      1  N   UNL     1       5.639   4.227  16.483  0.00  0.00    +0.000 N 
ATOM      2  C   UNL     1       4.275   4.233  16.679  0.00  0.00    +0.000 A 
ATOM      3  N   UNL     1       3.657   4.615  17.759  0.00  0.00    +0.000 NA
ATOM      4  C   UNL     1       4.436   5.022  18.839  0.00  0.00    +0.000 A 
ATOM      5  C   UNL     1       5.780   5.112  18.756  0.00  0.00    +0.000 A 
ATOM      6  N   UNL     1       6.759   5.486  19.636  0.00  0.00    +0.000 NA
ATOM      7  C   UNL     1       7.848   5.274  18.954  0.00  0.00    +0.000 A 
ATOM      8  N   UNL     1       7.711   4.791  17.659  0.00  0.00    +0.000 NA
ATOM      9  C   UNL     1       6.422   4.676  17.512  0.00  0.00    +0.000 A 
ENDROOT
BRANCH   4  10
ATOM     10  N   UNL     1       3.795   5.334  20.023  0.00  0.00    +0.000 N 
ATOM     11  H   UNL     1       4.184   4.799  20.791  0.00  0.00    +0.000 HD
ATOM     12  H   UNL     1       2.784   5.283  19.934  0.00  0.00    +0.000 HD
ENDBRANCH   4  10
BRANCH   1  13
ATOM     13  C   UNL     1       6.251   3.599  15.319  0.00  0.00    +0.000 C 
BRANCH  13  14
ATOM     14  C   UNL     1       6.034   4.467  14.075  0.00  0.00    +0.000 C 
BRANCH  14  15
ATOM     15  C   UNL     1       6.521   3.772  12.803  0.00  0.00    +0.000 C 
BRANCH  15  16
ATOM     16  C   UNL     1       5.342   3.190  12.023  0.00  0.00    +0.000 C 
BRANCH  16  18
ATOM     17  C   UNL     1       7.163   1.744  11.068  0.00  0.00    +0.000 C 
ATOM     18  C   UNL     1       5.684   1.835  11.410  0.00  0.00    +0.000 C 
ENDBRANCH  16  18
ENDBRANCH  15  16
ENDBRANCH  14  15
ENDBRANCH  13  14
ENDBRANCH   1  13
TORSDOF 6
ENDMDL
MODEL 8
REMARK VINA RESULT:      -6.0      1.362      1.525
REMARK  Name = 
REMARK  7 active torsions:
REMARK  status: ('A' for Active; 'I' for Inactive)
REMARK    1  A    between atoms: C_1  and  C_2
REMARK    2  A    between atoms: C_2  and  C_3
REMARK    3  A    between atoms: C_3  and  C_4
REMARK    4  A    between atoms: C_4  and  C_5
REMARK    5  A    between atoms: C_5  and  C_6
REMARK    6  A    between atoms: C_6  and  N_7
REMARK    7  A    between atoms: C_10  and  N_11
REMARK                            x       y       z     vdW  Elec       q    Type
REMARK                         _______ _______ _______ _____ _____    ______ ____
ROOT
ATOM      1  N   UNL     1       4.942   4.323  17.397  0.00  0.00    +0.000 N 
ATOM      2  C   UNL     1       5.176   5.301  18.340  0.00  0.00    +0.000 A 
ATOM      3  N   UNL     1       6.028   6.278  18.237  0.00  0.00    +0.000 NA
ATOM      4  C   UNL     1       6.812   6.332  17.088  0.00  0.00    +0.000 A 
ATOM      5  C   UNL     1       6.645   5.466  16.067  0.00  0.00    +0.000 A 
ATOM      6  N   UNL     1       7.252   5.308  14.851  0.00  0.00    +0.000 NA
ATOM      7  C   UNL     1       6.673   4.239  14.383  0.00  0.00    +0.000 A 
ATOM      8  N   UNL     1       5.697   3.641  15.170  0.00  0.00    +0.000 NA
ATOM      9  C   UNL     1       5.663   4.390  16.235  0.00  0.00    +0.000 A 
ENDROOT
BRANCH   4  10
ATOM     10  N   UNL     1       7.790   7.307  17.012  0.00  0.00    +0.000 N 
ATOM     11  H   UNL     1       8.702   6.914  17.213  0.00  0.00    +0.000 HD
ATOM     12  H   UNL     1       7.549   8.132  17.557  0.00  0.00    +0.000 HD
ENDBRANCH   4  10
BRANCH   1  13
ATOM     13  C   UNL     1       4.114   3.157  17.677  0.00  0.00    +0.000 C 
BRANCH  13  14
ATOM     14  C   UNL     1       2.674   3.409  17.219  0.00  0.00    +0.000 C 
BRANCH  14  15
ATOM     15  C   UNL     1       1.679   3.289  18.373  0.00  0.00    +0.000 C 
BRANCH  15  16
ATOM     16  C   UNL     1       1.676   4.565  19.215  0.00  0.00    +0.000 C 
BRANCH  16  18
ATOM     17  C   UNL     1       1.312   2.875  21.039  0.00  0.00    +0.000 C 
ATOM     18  C   UNL     1       1.835   4.262  20.702  0.00  0.00    +0.000 C 
ENDBRANCH  16  18
ENDBRANCH  15  16
ENDBRANCH  14  15
ENDBRANCH  13  14
ENDBRANCH   1  13
TORSDOF 6
ENDMDL
MODEL 9
REMARK VINA RESULT:      -6.0      1.142      2.861
REMARK  Name = 
REMARK  7 active torsions:
REMARK  status: ('A' for Active; 'I' for Inactive)
REMARK    1  A    between atoms: C_1  and  C_2
REMARK    2  A    between atoms: C_2  and  C_3
REMARK    3  A    between atoms: C_3  and  C_4
REMARK    4  A    between atoms: C_4  and  C_5
REMARK    5  A    between atoms: C_5  and  C_6
REMARK    6  A    between atoms: C_6  and  N_7
REMARK    7  A    between atoms: C_10  and  N_11
REMARK                            x       y       z     vdW  Elec       q    Type
REMARK                         _______ _______ _______ _____ _____    ______ ____
ROOT
ATOM      1  N   UNL     1       4.445   4.796  18.562  0.00  0.00    +0.000 N 
ATOM      2  C   UNL     1       3.749   4.356  17.457  0.00  0.00    +0.000 A 
ATOM      3  N   UNL     1       4.265   4.001  16.317  0.00  0.00    +0.000 NA
ATOM      4  C   UNL     1       5.647   4.107  16.173  0.00  0.00    +0.000 A 
ATOM      5  C   UNL     1       6.446   4.474  17.197  0.00  0.00    +0.000 A 
ATOM      6  N   UNL     1       7.797   4.640  17.329  0.00  0.00    +0.000 NA
ATOM      7  C   UNL     1       7.909   5.080  18.550  0.00  0.00    +0.000 A 
ATOM      8  N   UNL     1       6.742   5.225  19.290  0.00  0.00    +0.000 NA
ATOM      9  C   UNL     1       5.809   4.855  18.461  0.00  0.00    +0.000 A 
ENDROOT
BRANCH   4  10
ATOM     10  N   UNL     1       6.196   3.828  14.935  0.00  0.00    +0.000 N 
ATOM     11  H   UNL     1       5.474   3.563  14.276  0.00  0.00    +0.000 HD
ATOM     12  H   UNL     1       6.975   3.177  15.002  0.00  0.00    +0.000 HD
ENDBRANCH   4  10
BRANCH   1  13
ATOM     13  C   UNL     1       3.773   5.359  19.727  0.00  0.00    +0.000 C 
BRANCH  13  14
ATOM     14  C   UNL     1       2.290   5.592  19.420  0.00  0.00    +0.000 C 
BRANCH  14  15
ATOM     15  C   UNL     1       1.398   5.222  20.605  0.00  0.00    +0.000 C 
BRANCH  15  16
ATOM     16  C   UNL     1       1.416   3.712  20.841  0.00  0.00    +0.000 C 
BRANCH  16  18
ATOM     17  C   UNL     1       1.751   1.903  19.127  0.00  0.00    +0.000 C 
ATOM     18  C   UNL     1       0.794   2.951  19.673  0.00  0.00    +0.000 C 
ENDBRANCH  16  18
ENDBRANCH  15  16
ENDBRANCH  14  15
ENDBRANCH  13  14
ENDBRANCH   1  13
TORSDOF 6
ENDMDL
