MODEL 1
REMARK VINA RESULT:      -7.5      0.000      0.000
REMARK  Name = 
REMARK  6 active torsions:
REMARK  status: ('A' for Active; 'I' for Inactive)
REMARK    1  A    between atoms: C_1  and  C_2
REMARK    2  A    between atoms: C_2  and  O_3
REMARK    3  A    between atoms: O_3  and  C_4
REMARK    4  A    between atoms: C_7  and  N_8
REMARK    5  A    between atoms: C_12  and  N_13
REMARK    6  A    between atoms: C_16  and  C_17
REMARK                            x       y       z     vdW  Elec       q    Type
REMARK                         _______ _______ _______ _____ _____    ______ ____
ROOT
ATOM      1  N   UNL     1       3.159   5.510  18.209  0.00  0.00    +0.000 N 
ATOM      2  C   UNL     1       2.480   4.454  17.644  0.00  0.00    +0.000 C 
ATOM      3  O   UNL     1       1.276   4.313  17.470  0.00  0.00    +0.000 OA
ATOM      4  C   UNL     1       3.447   3.378  17.260  0.00  0.00    +0.000 C 
ATOM      5  C   UNL     1       4.802   3.961  17.593  0.00  0.00    +0.000 C 
ATOM      6  C   UNL     1       4.510   5.249  18.297  0.00  0.00    +0.000 C 
ATOM      7  O   UNL     1       5.369   5.875  18.911  0.00  0.00    +0.000 OA
ENDROOT
BRANCH   1  11
ATOM      8  C   UNL     1       1.333   9.060  19.686  0.00  0.00    +0.000 A 
ATOM      9  C   UNL     1       1.758   8.986  18.363  0.00  0.00    +0.000 A 
ATOM     10  C   UNL     1       2.358   7.822  17.873  0.00  0.00    +0.000 A 
ATOM     11  C   UNL     1       2.545   6.702  18.694  0.00  0.00    +0.000 A 
ATOM     12  C   UNL     1       2.129   6.803  20.031  0.00  0.00    +0.000 A 
ATOM     13  C   UNL     1       1.545   7.975  20.529  0.00  0.00    +0.000 A 
BRANCH   8  14
ATOM     14  O   UNL     1       0.744  10.238  20.045  0.00  0.00    +0.000 OA
BRANCH  14  16
ATOM     15  C   UNL     1      -1.330  10.810  19.041  0.00  0.00    +0.000 C 
ATOM     16  C   UNL     1       0.175  11.001  18.982  0.00  0.00    +0.000 C 
ENDBRANCH  14  16
ENDBRANCH   8  14
ENDBRANCH   1  11
BRANCH   5  17
ATOM     17  N   UNL     1       5.632   4.192  16.430  0.00  0.00    +0.000 N 
ATOM     18  C   UNL     1       6.867   4.769  16.412  0.00  0.00    +0.000 A 
ATOM     19  C   UNL     1       7.292   4.712  15.106  0.00  0.00    +0.000 A 
ATOM     20  C   UNL     1       6.243   4.074  14.406  0.00  0.00    +0.000 A 
ATOM     21  C   UNL     1       6.175   3.746  12.963  0.00  0.00    +0.000 C 
ATOM     22  N   UNL     1       5.232   3.749  15.223  0.00  0.00    +0.000 NA
ENDBRANCH   5  17
TORSDOF 4
ENDMDL
MODEL 2
REMARK VINA RESULT:      -7.5      0.877      1.369
REMARK  Name = 
REMARK  6 active torsions:
REMARK  status: ('A' for Active; 'I' for Inactive)
REMARK    1  A    between atoms: C_1  and  C_2
REMARK    2  A    between atoms: C_2  and  O_3
REMARK    3  A    between atoms: O_3  and  C_4
REMARK    4  A    between atoms: C_7  and  N_8
REMARK    5  A    between atoms: C_12  and  N_13
REMARK    6  A    between atoms: C_16  and  C_17
REMARK                            x       y       z     vdW  Elec       q    Type
REMARK                         _______ _______ _______ _____ _____    ______ ____
ROOT
ATOM      1  N   UNL     1       3.126   5.471  18.278  0.00  0.00    +0.000 N 
ATOM      2  C   UNL     1       2.437   4.445  17.671  0.00  0.00    +0.000 C 
ATOM      3  O   UNL     1       1.233   4.330  17.479  0.00  0.00    +0.000 OA
ATOM      4  C   UNL     1       3.390   3.367  17.262  0.00  0.00    +0.000 C 
ATOM      5  C   UNL     1       4.751   3.916  17.629  0.00  0.00    +0.000 C 
ATOM      6  C   UNL     1       4.472   5.185  18.372  0.00  0.00    +0.000 C 
ATOM      7  O   UNL     1       5.334   5.777  19.015  0.00  0.00    +0.000 OA
ENDROOT
BRANCH   1  11
ATOM      8  C   UNL     1       1.329   9.019  19.794  0.00  0.00    +0.000 A 
ATOM      9  C   UNL     1       1.516   7.917  20.623  0.00  0.00    +0.000 A 
ATOM     10  C   UNL     1       2.107   6.748  20.130  0.00  0.00    +0.000 A 
ATOM     11  C   UNL     1       2.526   6.656  18.795  0.00  0.00    +0.000 A 
ATOM     12  C   UNL     1       2.309   7.771  17.970  0.00  0.00    +0.000 A 
ATOM     13  C   UNL     1       1.701   8.934  18.457  0.00  0.00    +0.000 A 
BRANCH   8  14
ATOM     14  O   UNL     1       0.761  10.107  20.391  0.00  0.00    +0.000 OA
BRANCH  14  16
ATOM     15  C   UNL     1      -0.439  11.068  22.200  0.00  0.00    +0.000 C 
ATOM     16  C   UNL     1      -0.276   9.834  21.332  0.00  0.00    +0.000 C 
ENDBRANCH  14  16
ENDBRANCH   8  14
ENDBRANCH   1  11
BRANCH   5  17
ATOM     17  N   UNL     1       5.597   4.171  16.482  0.00  0.00    +0.000 N 
ATOM     18  C   UNL     1       6.820   4.775  16.492  0.00  0.00    +0.000 A 
ATOM     19  C   UNL     1       7.270   4.735  15.193  0.00  0.00    +0.000 A 
ATOM     20  C   UNL     1       6.249   4.078  14.470  0.00  0.00    +0.000 A 
ATOM     21  C   UNL     1       6.215   3.757  13.024  0.00  0.00    +0.000 C 
ATOM     22  N   UNL     1       5.230   3.727  15.266  0.00  0.00    +0.000 NA
ENDBRANCH   5  17
TORSDOF 4
ENDMDL
MODEL 3
REMARK VINA RESULT:      -7.3      1.088      1.157
REMARK  Name = 
REMARK  6 active torsions:
REMARK  status: ('A' for Active; 'I' for Inactive)
REMARK    1  A    between atoms: C_1  and  C_2
REMARK    2  A    between atoms: C_2  and  O_3
REMARK    3  A    between atoms: O_3  and  C_4
REMARK    4  A    between atoms: C_7  and  N_8
REMARK    5  A    between atoms: C_12  and  N_13
REMARK    6  A    between atoms: C_16  and  C_17
REMARK                            x       y       z     vdW  Elec       q    Type
REMARK                         _______ _______ _______ _____ _____    ______ ____
ROOT
ATOM      1  N   UNL     1       3.049   5.307  18.532  0.00  0.00    +0.000 N 
ATOM      2  C   UNL     1       2.394   4.294  17.867  0.00  0.00    +0.000 C 
ATOM      3  O   UNL     1       1.196   4.158  17.652  0.00  0.00    +0.000 OA
ATOM      4  C   UNL     1       3.380   3.261  17.420  0.00  0.00    +0.000 C 
ATOM      5  C   UNL     1       4.722   3.825  17.831  0.00  0.00    +0.000 C 
ATOM      6  C   UNL     1       4.400   5.050  18.630  0.00  0.00    +0.000 C 
ATOM      7  O   UNL     1       5.239   5.631  19.313  0.00  0.00    +0.000 OA
ENDROOT
BRANCH   1  11
ATOM      8  C   UNL     1       1.151   8.708  20.246  0.00  0.00    +0.000 A 
ATOM      9  C   UNL     1       1.728   8.788  18.983  0.00  0.00    +0.000 A 
ATOM     10  C   UNL     1       2.352   7.673  18.414  0.00  0.00    +0.000 A 
ATOM     11  C   UNL     1       2.413   6.450  19.097  0.00  0.00    +0.000 A 
ATOM     12  C   UNL     1       1.844   6.395  20.379  0.00  0.00    +0.000 A 
ATOM     13  C   UNL     1       1.235   7.516  20.957  0.00  0.00    +0.000 A 
BRANCH   8  14
ATOM     14  O   UNL     1       0.554   9.853  20.688  0.00  0.00    +0.000 OA
BRANCH  14  16
ATOM     15  C   UNL     1      -0.553  10.288  22.743  0.00  0.00    +0.000 C 
ATOM     16  C   UNL     1       0.796  10.198  22.051  0.00  0.00    +0.000 C 
ENDBRANCH  14  16
ENDBRANCH   8  14
ENDBRANCH   1  11
BRANCH   5  17
ATOM     17  N   UNL     1       5.576   4.157  16.711  0.00  0.00    +0.000 N 
ATOM     18  C   UNL     1       6.735   4.873  16.755  0.00  0.00    +0.000 A 
ATOM     19  C   UNL     1       7.228   4.873  15.471  0.00  0.00    +0.000 A 
ATOM     20  C   UNL     1       6.297   4.120  14.720  0.00  0.00    +0.000 A 
ATOM     21  C   UNL     1       6.339   3.793  13.276  0.00  0.00    +0.000 C 
ATOM     22  N   UNL     1       5.291   3.676  15.486  0.00  0.00    +0.000 NA
ENDBRANCH   5  17
TORSDOF 4
ENDMDL
MODEL 4
REMARK VINA RESULT:      -6.9      2.907      7.158
REMARK  Name = 
REMARK  6 active torsions:
REMARK  status: ('A' for Active; 'I' for Inactive)
REMARK    1  A    between atoms: C_1  and  C_2
REMARK    2  A    between atoms: C_2  and  O_3
REMARK    3  A    between atoms: O_3  and  C_4
REMARK    4  A    between atoms: C_7  and  N_8
REMARK    5  A    between atoms: C_12  and  N_13
REMARK    6  A    between atoms: C_16  and  C_17
REMARK                            x       y       z     vdW  Elec       q    Type
REMARK                         _______ _______ _______ _____ _____    ______ ____
ROOT
ATOM      1  N   UNL     1       4.734   5.431  17.553  0.00  0.00    +0.000 N 
ATOM      2  C   UNL     1       3.965   6.555  17.751  0.00  0.00    +0.000 C 
ATOM      3  O   UNL     1       3.709   7.465  16.971  0.00  0.00    +0.000 OA
ATOM      4  C   UNL     1       3.451   6.576  19.156  0.00  0.00    +0.000 C 
ATOM      5  C   UNL     1       3.945   5.277  19.752  0.00  0.00    +0.000 C 
ATOM      6  C   UNL     1       4.843   4.687  18.709  0.00  0.00    +0.000 C 
ATOM      7  O   UNL     1       5.596   3.746  18.942  0.00  0.00    +0.000 OA
ENDROOT
BRANCH   1  11
ATOM      8  C   UNL     1       6.702   4.443  13.910  0.00  0.00    +0.000 A 
ATOM      9  C   UNL     1       5.388   4.039  14.131  0.00  0.00    +0.000 A 
ATOM     10  C   UNL     1       4.737   4.362  15.326  0.00  0.00    +0.000 A 
ATOM     11  C   UNL     1       5.384   5.098  16.328  0.00  0.00    +0.000 A 
ATOM     12  C   UNL     1       6.716   5.477  16.096  0.00  0.00    +0.000 A 
ATOM     13  C   UNL     1       7.375   5.139  14.907  0.00  0.00    +0.000 A 
BRANCH   8  14
ATOM     14  O   UNL     1       7.225   4.087  12.701  0.00  0.00    +0.000 OA
BRANCH  14  16
ATOM     15  C   UNL     1       7.353   2.202  11.263  0.00  0.00    +0.000 C 
ATOM     16  C   UNL     1       6.423   3.216  11.905  0.00  0.00    +0.000 C 
ENDBRANCH  14  16
ENDBRANCH   8  14
ENDBRANCH   1  11
BRANCH   5  17
ATOM     17  N   UNL     1       2.881   4.356  20.089  0.00  0.00    +0.000 N 
ATOM     18  C   UNL     1       2.307   4.188  21.314  0.00  0.00    +0.000 A 
ATOM     19  C   UNL     1       1.303   3.265  21.137  0.00  0.00    +0.000 A 
ATOM     20  C   UNL     1       1.344   2.937  19.763  0.00  0.00    +0.000 A 
ATOM     21  C   UNL     1       0.475   1.992  19.023  0.00  0.00    +0.000 C 
ATOM     22  N   UNL     1       2.306   3.614  19.123  0.00  0.00    +0.000 NA
ENDBRANCH   5  17
TORSDOF 4
ENDMDL
MODEL 5
REMARK VINA RESULT:      -6.9      3.839      6.007
REMARK  Name = 
REMARK  6 active torsions:
REMARK  status: ('A' for Active; 'I' for Inactive)
REMARK    1  A    between atoms: C_1  and  C_2
REMARK    2  A    between atoms: C_2  and  O_3
REMARK    3  A    between atoms: O_3  and  C_4
REMARK    4  A    between atoms: C_7  and  N_8
REMARK    5  A    between atoms: C_12  and  N_13
REMARK    6  A    between atoms: C_16  and  C_17
REMARK                            x       y       z     vdW  Elec       q    Type
REMARK                         _______ _______ _______ _____ _____    ______ ____
ROOT
ATOM      1  N   UNL     1       6.169   5.711  17.001  0.00  0.00    +0.000 N 
ATOM      2  C   UNL     1       6.658   4.635  16.295  0.00  0.00    +0.000 C 
ATOM      3  O   UNL     1       7.817   4.362  16.005  0.00  0.00    +0.000 OA
ATOM      4  C   UNL     1       5.525   3.768  15.843  0.00  0.00    +0.000 C 
ATOM      5  C   UNL     1       4.298   4.420  16.440  0.00  0.00    +0.000 C 
ATOM      6  C   UNL     1       4.791   5.699  17.043  0.00  0.00    +0.000 C 
ATOM      7  O   UNL     1       4.032   6.589  17.414  0.00  0.00    +0.000 OA
ENDROOT
BRANCH   1  11
ATOM      8  C   UNL     1       8.590   8.762  18.718  0.00  0.00    +0.000 A 
ATOM      9  C   UNL     1       7.789   9.038  17.614  0.00  0.00    +0.000 A 
ATOM     10  C   UNL     1       6.991   8.039  17.046  0.00  0.00    +0.000 A 
ATOM     11  C   UNL     1       6.974   6.740  17.571  0.00  0.00    +0.000 A 
ATOM     12  C   UNL     1       7.805   6.475  18.672  0.00  0.00    +0.000 A 
ATOM     13  C   UNL     1       8.618   7.469  19.230  0.00  0.00    +0.000 A 
BRANCH   8  14
ATOM     14  O   UNL     1       9.308   9.819  19.197  0.00  0.00    +0.000 OA
BRANCH  14  16
ATOM     15  C   UNL     1      10.870  11.463  18.493  0.00  0.00    +0.000 C 
ATOM     16  C   UNL     1       9.464  10.923  18.307  0.00  0.00    +0.000 C 
ENDBRANCH  14  16
ENDBRANCH   8  14
ENDBRANCH   1  11
BRANCH   5  17
ATOM     17  N   UNL     1       3.641   3.605  17.439  0.00  0.00    +0.000 N 
ATOM     18  C   UNL     1       4.212   3.064  18.553  0.00  0.00    +0.000 A 
ATOM     19  C   UNL     1       3.194   2.436  19.231  0.00  0.00    +0.000 A 
ATOM     20  C   UNL     1       2.038   2.659  18.449  0.00  0.00    +0.000 A 
ATOM     21  C   UNL     1       0.653   2.209  18.717  0.00  0.00    +0.000 C 
ATOM     22  N   UNL     1       2.315   3.384  17.357  0.00  0.00    +0.000 NA
ENDBRANCH   5  17
TORSDOF 4
ENDMDL
MODEL 6
REMARK VINA RESULT:      -6.8      3.018      4.380
REMARK  Name = 
REMARK  6 active torsions:
REMARK  status: ('A' for Active; 'I' for Inactive)
REMARK    1  A    between atoms: C_1  and  C_2
REMARK    2  A    between atoms: C_2  and  O_3
REMARK    3  A    between atoms: O_3  and  C_4
REMARK    4  A    between atoms: C_7  and  N_8
REMARK    5  A    between atoms: C_12  and  N_13
REMARK    6  A    between atoms: C_16  and  C_17
REMARK                            x       y       z     vdW  Elec       q    Type
REMARK                         _______ _______ _______ _____ _____    ______ ____
ROOT
ATOM      1  N   UNL     1       5.584   5.116  16.942  0.00  0.00    +0.000 N 
ATOM      2  C   UNL     1       6.813   4.588  17.270  0.00  0.00    +0.000 C 
ATOM      3  O   UNL     1       7.137   3.940  18.258  0.00  0.00    +0.000 OA
ATOM      4  C   UNL     1       7.816   4.948  16.220  0.00  0.00    +0.000 C 
ATOM      5  C   UNL     1       7.011   5.692  15.177  0.00  0.00    +0.000 C 
ATOM      6  C   UNL     1       5.650   5.853  15.779  0.00  0.00    +0.000 C 
ATOM      7  O   UNL     1       4.805   6.608  15.306  0.00  0.00    +0.000 OA
ENDROOT
BRANCH   1  11
ATOM      8  C   UNL     1       2.063   4.708  19.298  0.00  0.00    +0.000 A 
ATOM      9  C   UNL     1       2.243   3.925  18.162  0.00  0.00    +0.000 A 
ATOM     10  C   UNL     1       3.399   4.055  17.384  0.00  0.00    +0.000 A 
ATOM     11  C   UNL     1       4.403   4.971  17.727  0.00  0.00    +0.000 A 
ATOM     12  C   UNL     1       4.194   5.767  18.864  0.00  0.00    +0.000 A 
ATOM     13  C   UNL     1       3.028   5.651  19.633  0.00  0.00    +0.000 A 
BRANCH   8  14
ATOM     14  O   UNL     1       0.907   4.480  19.986  0.00  0.00    +0.000 OA
BRANCH  14  16
ATOM     15  C   UNL     1       1.504   2.804  21.559  0.00  0.00    +0.000 C 
ATOM     16  C   UNL     1       0.651   3.123  20.344  0.00  0.00    +0.000 C 
ENDBRANCH  14  16
ENDBRANCH   8  14
ENDBRANCH   1  11
BRANCH   5  17
ATOM     17  N   UNL     1       6.930   4.998  13.909  0.00  0.00    +0.000 N 
ATOM     18  C   UNL     1       7.753   5.165  12.836  0.00  0.00    +0.000 A 
ATOM     19  C   UNL     1       7.338   4.251  11.896  0.00  0.00    +0.000 A 
ATOM     20  C   UNL     1       6.257   3.570  12.499  0.00  0.00    +0.000 A 
ATOM     21  C   UNL     1       5.438   2.473  11.932  0.00  0.00    +0.000 C 
ATOM     22  N   UNL     1       6.016   4.024  13.736  0.00  0.00    +0.000 NA
ENDBRANCH   5  17
TORSDOF 4
ENDMDL
MODEL 7
REMARK VINA RESULT:      -6.8      3.846      6.069
REMARK  Name = 
REMARK  6 active torsions:
REMARK  status: ('A' for Active; 'I' for Inactive)
REMARK    1  A    between atoms: C_1  and  C_2
REMARK    2  A    between atoms: C_2  and  O_3
REMARK    3  A    between atoms: O_3  and  C_4
REMARK    4  A    between atoms: C_7  and  N_8
REMARK    5  A    between atoms: C_12  and  N_13
REMARK    6  A    between atoms: C_16  and  C_17
REMARK                            x       y       z     vdW  Elec       q    Type
REMARK                         _______ _______ _______ _____ _____    ______ ____
ROOT
ATOM      1  N   UNL     1       6.223   5.746  17.044  0.00  0.00    +0.000 N 
ATOM      2  C   UNL     1       6.710   4.644  16.378  0.00  0.00    +0.000 C 
ATOM      3  O   UNL     1       7.867   4.359  16.097  0.00  0.00    +0.000 OA
ATOM      4  C   UNL     1       5.575   3.763  15.960  0.00  0.00    +0.000 C 
ATOM      5  C   UNL     1       4.350   4.438  16.534  0.00  0.00    +0.000 C 
ATOM      6  C   UNL     1       4.845   5.738  17.088  0.00  0.00    +0.000 C 
ATOM      7  O   UNL     1       4.087   6.642  17.427  0.00  0.00    +0.000 OA
ENDROOT
BRANCH   1  11
ATOM      8  C   UNL     1       8.614   8.896  18.616  0.00  0.00    +0.000 A 
ATOM      9  C   UNL     1       8.666   7.626  19.182  0.00  0.00    +0.000 A 
ATOM     10  C   UNL     1       7.882   6.587  18.668  0.00  0.00    +0.000 A 
ATOM     11  C   UNL     1       7.030   6.794  17.575  0.00  0.00    +0.000 A 
ATOM     12  C   UNL     1       6.976   8.088  17.032  0.00  0.00    +0.000 A 
ATOM     13  C   UNL     1       7.746   9.134  17.557  0.00  0.00    +0.000 A 
BRANCH   8  14
ATOM     14  O   UNL     1       9.437   9.823  19.189  0.00  0.00    +0.000 OA
BRANCH  14  16
ATOM     15  C   UNL     1      10.601  11.549  18.046  0.00  0.00    +0.000 C 
ATOM     16  C   UNL     1       9.294  11.162  18.717  0.00  0.00    +0.000 C 
ENDBRANCH  14  16
ENDBRANCH   8  14
ENDBRANCH   1  11
BRANCH   5  17
ATOM     17  N   UNL     1       3.692   3.662  17.563  0.00  0.00    +0.000 N 
ATOM     18  C   UNL     1       4.245   3.222  18.729  0.00  0.00    +0.000 A 
ATOM     19  C   UNL     1       3.232   2.594  19.414  0.00  0.00    +0.000 A 
ATOM     20  C   UNL     1       2.097   2.712  18.581  0.00  0.00    +0.000 A 
ATOM     21  C   UNL     1       0.723   2.217  18.832  0.00  0.00    +0.000 C 
ATOM     22  N   UNL     1       2.381   3.375  17.452  0.00  0.00    +0.000 NA
ENDBRANCH   5  17
TORSDOF 4
ENDMDL
MODEL 8
REMARK VINA RESULT:      -6.7      1.141      1.387
REMARK  Name = 
REMARK  6 active torsions:
REMARK  status: ('A' for Active; 'I' for Inactive)
REMARK    1  A    between atoms: C_1  and  C_2
REMARK    2  A    between atoms: C_2  and  O_3
REMARK    3  A    between atoms: O_3  and  C_4
REMARK    4  A    between atoms: C_7  and  N_8
REMARK    5  A    between atoms: C_12  and  N_13
REMARK    6  A    between atoms: C_16  and  C_17
REMARK                            x       y       z     vdW  Elec       q    Type
REMARK                         _______ _______ _______ _____ _____    ______ ____
ROOT
ATOM      1  N   UNL     1       3.903   5.784  17.956  0.00  0.00    +0.000 N 
ATOM      2  C   UNL     1       3.483   4.473  17.995  0.00  0.00    +0.000 C 
ATOM      3  O   UNL     1       2.399   4.018  18.338  0.00  0.00    +0.000 OA
ATOM      4  C   UNL     1       4.599   3.571  17.571  0.00  0.00    +0.000 C 
ATOM      5  C   UNL     1       5.717   4.516  17.193  0.00  0.00    +0.000 C 
ATOM      6  C   UNL     1       5.228   5.875  17.586  0.00  0.00    +0.000 C 
ATOM      7  O   UNL     1       5.967   6.854  17.635  0.00  0.00    +0.000 OA
ENDROOT
BRANCH   1  11
ATOM      8  C   UNL     1       1.492   9.125  19.023  0.00  0.00    +0.000 A 
ATOM      9  C   UNL     1       2.067   9.049  17.758  0.00  0.00    +0.000 A 
ATOM     10  C   UNL     1       2.859   7.953  17.402  0.00  0.00    +0.000 A 
ATOM     11  C   UNL     1       3.094   6.905  18.303  0.00  0.00    +0.000 A 
ATOM     12  C   UNL     1       2.523   7.011  19.582  0.00  0.00    +0.000 A 
ATOM     13  C   UNL     1       1.745   8.116  19.946  0.00  0.00    +0.000 A 
BRANCH   8  14
ATOM     14  O   UNL     1       0.724  10.231  19.249  0.00  0.00    +0.000 OA
BRANCH  14  16
ATOM     15  C   UNL     1      -1.402  10.342  18.198  0.00  0.00    +0.000 C 
ATOM     16  C   UNL     1      -0.664   9.991  19.478  0.00  0.00    +0.000 C 
ENDBRANCH  14  16
ENDBRANCH   8  14
ENDBRANCH   1  11
BRANCH   5  17
ATOM     17  N   UNL     1       6.050   4.481  15.785  0.00  0.00    +0.000 N 
ATOM     18  C   UNL     1       5.326   3.892  14.791  0.00  0.00    +0.000 A 
ATOM     19  C   UNL     1       5.990   4.175  13.621  0.00  0.00    +0.000 A 
ATOM     20  C   UNL     1       7.106   4.949  14.010  0.00  0.00    +0.000 A 
ATOM     21  C   UNL     1       8.160   5.533  13.148  0.00  0.00    +0.000 C 
ATOM     22  N   UNL     1       7.134   5.142  15.336  0.00  0.00    +0.000 NA
ENDBRANCH   5  17
TORSDOF 4
ENDMDL
MODEL 9
REMARK VINA RESULT:      -6.7      1.131      1.722
REMARK  Name = 
REMARK  6 active torsions:
REMARK  status: ('A' for Active; 'I' for Inactive)
REMARK    1  A    between atoms: C_1  and  C_2
REMARK    2  A    between atoms: C_2  and  O_3
REMARK    3  A    between atoms: O_3  and  C_4
REMARK    4  A    between atoms: C_7  and  N_8
REMARK    5  A    between atoms: C_12  and  N_13
REMARK    6  A    between atoms: C_16  and  C_17
REMARK                            x       y       z     vdW  Elec       q    Type
REMARK                         _______ _______ _______ _____ _____    ______ ____
ROOT
ATOM      1  N   UNL     1       3.987   5.614  17.871  0.00  0.00    +0.000 N 
ATOM      2  C   UNL     1       3.545   4.311  17.814  0.00  0.00    +0.000 C 
ATOM      3  O   UNL     1       2.449   3.852  18.112  0.00  0.00    +0.000 OA
ATOM      4  C   UNL     1       4.652   3.421  17.342  0.00  0.00    +0.000 C 
ATOM      5  C   UNL     1       5.791   4.370  17.045  0.00  0.00    +0.000 C 
ATOM      6  C   UNL     1       5.319   5.707  17.525  0.00  0.00    +0.000 C 
ATOM      7  O   UNL     1       6.073   6.667  17.651  0.00  0.00    +0.000 OA
ENDROOT
BRANCH   1  11
ATOM      8  C   UNL     1       1.611   8.931  19.079  0.00  0.00    +0.000 A 
ATOM      9  C   UNL     1       1.845   7.878  19.958  0.00  0.00    +0.000 A 
ATOM     10  C   UNL     1       2.626   6.785  19.566  0.00  0.00    +0.000 A 
ATOM     11  C   UNL     1       3.193   6.722  18.285  0.00  0.00    +0.000 A 
ATOM     12  C   UNL     1       2.927   7.784  17.406  0.00  0.00    +0.000 A 
ATOM     13  C   UNL     1       2.130   8.870  17.791  0.00  0.00    +0.000 A 
BRANCH   8  14
ATOM     14  O   UNL     1       0.851   9.949  19.579  0.00  0.00    +0.000 OA
BRANCH  14  16
ATOM     15  C   UNL     1      -1.333  10.327  18.729  0.00  0.00    +0.000 C 
ATOM     16  C   UNL     1       0.129  10.720  18.620  0.00  0.00    +0.000 C 
ENDBRANCH  14  16
ENDBRANCH   8  14
ENDBRANCH   1  11
BRANCH   5  17
ATOM     17  N   UNL     1       6.142   4.427  15.642  0.00  0.00    +0.000 N 
ATOM     18  C   UNL     1       5.437   3.895  14.604  0.00  0.00    +0.000 A 
ATOM     19  C   UNL     1       6.114   4.256  13.463  0.00  0.00    +0.000 A 
ATOM     20  C   UNL     1       7.217   5.015  13.915  0.00  0.00    +0.000 A 
ATOM     21  C   UNL     1       8.275   5.661  13.105  0.00  0.00    +0.000 C 
ATOM     22  N   UNL     1       7.225   5.124  15.250  0.00  0.00    +0.000 NA
ENDBRANCH   5  17
TORSDOF 4
ENDMDL
