MODEL 1
REMARK VINA RESULT:      -7.2      0.000      0.000
REMARK  Name = 
REMARK  7 active torsions:
REMARK  status: ('A' for Active; 'I' for Inactive)
REMARK    1  A    between atoms: C_1  and  O_2
REMARK    2  A    between atoms: O_2  and  C_3
REMARK    3  A    between atoms: C_5  and  N_6
REMARK    4  A    between atoms: N_9  and  C_10
REMARK    5  A    between atoms: C_15  and  N_16
REMARK    6  A    between atoms: N_23  and  C_24
REMARK    7  A    between atoms: C_26  and  C_27
REMARK                            x       y       z     vdW  Elec       q    Type
REMARK                         _______ _______ _______ _____ _____    ______ ____
ROOT
ATOM      1  N   UNL     1      -1.226  11.237  21.892  0.00  0.00    +0.000 N 
ATOM      2  C   UNL     1      -1.262  12.601  22.174  0.00  0.00    +0.000 A 
ATOM      3  N   UNL     1      -2.453  13.217  22.085  0.00  0.00    +0.000 NA
ATOM      4  C   UNL     1      -2.411  14.535  21.820  0.00  0.00    +0.000 A 
ATOM      5  C   UNL     1      -1.218  15.189  21.633  0.00  0.00    +0.000 A 
ATOM      6  C   UNL     1      -0.113  14.608  22.204  0.00  0.00    +0.000 A 
ATOM      7  N   UNL     1      -0.121  13.279  22.395  0.00  0.00    +0.000 NA
ATOM      8  N   UNL     1       1.121  15.302  22.219  0.00  0.00    +0.000 N 
ATOM      9  C   UNL     1       1.052  16.739  22.552  0.00  0.00    +0.000 C 
ATOM     10  C   UNL     1       1.886  15.152  21.025  0.00  0.00    +0.000 A 
ATOM     11  C   UNL     1       3.261  14.838  21.144  0.00  0.00    +0.000 A 
ATOM     12  C   UNL     1       3.999  14.945  22.453  0.00  0.00    +0.000 C 
ATOM     13  C   UNL     1       3.962  14.447  20.003  0.00  0.00    +0.000 A 
ATOM     14  C   UNL     1       3.314  14.338  18.772  0.00  0.00    +0.000 A 
ATOM     15  C   UNL     1       1.973  14.715  18.648  0.00  0.00    +0.000 A 
ATOM     16  C   UNL     1       1.253  15.173  19.762  0.00  0.00    +0.000 A 
ATOM     17  C   UNL     1      -0.129  15.751  19.522  0.00  0.00    +0.000 C 
ATOM     18  O   UNL     1      -0.485  15.986  18.356  0.00  0.00    +0.000 OA
ATOM     19  N   UNL     1      -1.055  16.067  20.533  0.00  0.00    +0.000 N 
ATOM     20  H   UNL     1      -2.127  10.788  21.940  0.00  0.00    +0.000 HD
ATOM     21  H   UNL     1      -1.915  16.408  20.111  0.00  0.00    +0.000 HD
ENDROOT
BRANCH   1  27
ATOM     22  C   UNL     1       0.104  10.424  20.014  0.00  0.00    +0.000 A 
ATOM     23  C   UNL     1       0.937   9.426  19.484  0.00  0.00    +0.000 A 
ATOM     24  C   UNL     1       1.564   8.475  20.293  0.00  0.00    +0.000 A 
ATOM     25  C   UNL     1       1.422   8.611  21.673  0.00  0.00    +0.000 A 
ATOM     26  C   UNL     1       0.552   9.566  22.213  0.00  0.00    +0.000 A 
ATOM     27  C   UNL     1      -0.171  10.446  21.392  0.00  0.00    +0.000 A 
BRANCH  24  28
ATOM     28  N   UNL     1       2.229   7.366  19.774  0.00  0.00    +0.000 N 
ATOM     29  C   UNL     1       1.892   6.037  20.311  0.00  0.00    +0.000 C 
ATOM     30  C   UNL     1       3.048   5.062  20.004  0.00  0.00    +0.000 C 
ATOM     31  N   UNL     1       3.346   4.969  18.555  0.00  0.00    +0.000 NA
ATOM     32  C   UNL     1       4.519   4.122  18.349  0.00  0.00    +0.000 C 
ATOM     33  C   UNL     1       3.589   6.327  18.005  0.00  0.00    +0.000 C 
ATOM     34  C   UNL     1       2.458   7.342  18.321  0.00  0.00    +0.000 C 
ENDBRANCH  24  28
BRANCH  22  36
ATOM     35  C   UNL     1      -1.420  10.865  18.255  0.00  0.00    +0.000 C 
ATOM     36  O   UNL     1      -0.521  11.375  19.238  0.00  0.00    +0.000 OA
ENDBRANCH  22  36
ENDBRANCH   1  27
TORSDOF 3
ENDMDL
MODEL 2
REMARK VINA RESULT:      -7.0      4.058      6.639
REMARK  Name = 
REMARK  7 active torsions:
REMARK  status: ('A' for Active; 'I' for Inactive)
REMARK    1  A    between atoms: C_1  and  O_2
REMARK    2  A    between atoms: O_2  and  C_3
REMARK    3  A    between atoms: C_5  and  N_6
REMARK    4  A    between atoms: N_9  and  C_10
REMARK    5  A    between atoms: C_15  and  N_16
REMARK    6  A    between atoms: N_23  and  C_24
REMARK    7  A    between atoms: C_26  and  C_27
REMARK                            x       y       z     vdW  Elec       q    Type
REMARK                         _______ _______ _______ _____ _____    ______ ____
ROOT
ATOM      1  N   UNL     1      -0.230  13.453  21.854  0.00  0.00    +0.000 N 
ATOM      2  C   UNL     1      -1.067  14.270  22.612  0.00  0.00    +0.000 A 
ATOM      3  N   UNL     1      -0.832  14.333  23.934  0.00  0.00    +0.000 NA
ATOM      4  C   UNL     1      -1.892  14.643  24.701  0.00  0.00    +0.000 A 
ATOM      5  C   UNL     1      -3.133  14.857  24.154  0.00  0.00    +0.000 A 
ATOM      6  C   UNL     1      -3.156  15.237  22.835  0.00  0.00    +0.000 A 
ATOM      7  N   UNL     1      -2.137  14.858  22.046  0.00  0.00    +0.000 NA
ATOM      8  N   UNL     1      -4.372  15.653  22.241  0.00  0.00    +0.000 N 
ATOM      9  C   UNL     1      -5.220  16.543  23.059  0.00  0.00    +0.000 C 
ATOM     10  C   UNL     1      -5.179  14.582  21.756  0.00  0.00    +0.000 A 
ATOM     11  C   UNL     1      -5.724  14.689  20.455  0.00  0.00    +0.000 A 
ATOM     12  C   UNL     1      -5.733  15.987  19.691  0.00  0.00    +0.000 C 
ATOM     13  C   UNL     1      -6.302  13.559  19.874  0.00  0.00    +0.000 A 
ATOM     14  C   UNL     1      -6.315  12.339  20.551  0.00  0.00    +0.000 A 
ATOM     15  C   UNL     1      -5.837  12.257  21.862  0.00  0.00    +0.000 A 
ATOM     16  C   UNL     1      -5.305  13.387  22.501  0.00  0.00    +0.000 A 
ATOM     17  C   UNL     1      -4.989  13.280  23.981  0.00  0.00    +0.000 C 
ATOM     18  O   UNL     1      -5.394  12.290  24.609  0.00  0.00    +0.000 OA
ATOM     19  N   UNL     1      -4.275  14.240  24.722  0.00  0.00    +0.000 N 
ATOM     20  H   UNL     1       0.639  13.226  22.310  0.00  0.00    +0.000 HD
ATOM     21  H   UNL     1      -4.170  13.919  25.681  0.00  0.00    +0.000 HD
ENDROOT
BRANCH   1  27
ATOM     22  C   UNL     1      -0.286  13.418  19.414  0.00  0.00    +0.000 A 
ATOM     23  C   UNL     1      -0.820  12.864  18.239  0.00  0.00    +0.000 A 
ATOM     24  C   UNL     1      -1.502  11.644  18.237  0.00  0.00    +0.000 A 
ATOM     25  C   UNL     1      -1.546  10.930  19.433  0.00  0.00    +0.000 A 
ATOM     26  C   UNL     1      -1.068  11.494  20.622  0.00  0.00    +0.000 A 
ATOM     27  C   UNL     1      -0.488  12.772  20.646  0.00  0.00    +0.000 A 
BRANCH  24  28
ATOM     28  N   UNL     1      -2.205  11.178  17.128  0.00  0.00    +0.000 N 
ATOM     29  C   UNL     1      -1.915   9.820  16.639  0.00  0.00    +0.000 C 
ATOM     30  C   UNL     1      -2.382   9.701  15.173  0.00  0.00    +0.000 C 
ATOM     31  N   UNL     1      -3.822  10.010  15.007  0.00  0.00    +0.000 NA
ATOM     32  C   UNL     1      -4.168   9.990  13.587  0.00  0.00    +0.000 C 
ATOM     33  C   UNL     1      -4.121  11.342  15.591  0.00  0.00    +0.000 C 
ATOM     34  C   UNL     1      -3.637  11.506  17.057  0.00  0.00    +0.000 C 
ENDBRANCH  24  28
BRANCH  22  36
ATOM     35  C   UNL     1      -0.344  15.746  18.981  0.00  0.00    +0.000 C 
ATOM     36  O   UNL     1       0.394  14.616  19.442  0.00  0.00    +0.000 OA
ENDBRANCH  22  36
ENDBRANCH   1  27
TORSDOF 3
ENDMDL
MODEL 3
REMARK VINA RESULT:      -6.9      1.945      2.897
REMARK  Name = 
REMARK  7 active torsions:
REMARK  status: ('A' for Active; 'I' for Inactive)
REMARK    1  A    between atoms: C_1  and  O_2
REMARK    2  A    between atoms: O_2  and  C_3
REMARK    3  A    between atoms: C_5  and  N_6
REMARK    4  A    between atoms: N_9  and  C_10
REMARK    5  A    between atoms: C_15  and  N_16
REMARK    6  A    between atoms: N_23  and  C_24
REMARK    7  A    between atoms: C_26  and  C_27
REMARK                            x       y       z     vdW  Elec       q    Type
REMARK                         _______ _______ _______ _____ _____    ______ ____
ROOT
ATOM      1  N   UNL     1      -1.699  14.177  19.735  0.00  0.00    +0.000 N 
ATOM      2  C   UNL     1      -1.202  15.404  20.171  0.00  0.00    +0.000 A 
ATOM      3  N   UNL     1      -1.978  16.485  19.980  0.00  0.00    +0.000 NA
ATOM      4  C   UNL     1      -1.330  17.659  19.886  0.00  0.00    +0.000 A 
ATOM      5  C   UNL     1       0.040  17.730  19.960  0.00  0.00    +0.000 A 
ATOM      6  C   UNL     1       0.664  16.697  20.615  0.00  0.00    +0.000 A 
ATOM      7  N   UNL     1       0.055  15.500  20.641  0.00  0.00    +0.000 NA
ATOM      8  N   UNL     1       2.049  16.775  20.898  0.00  0.00    +0.000 N 
ATOM      9  C   UNL     1       2.537  18.079  21.388  0.00  0.00    +0.000 C 
ATOM     10  C   UNL     1       2.886  16.355  19.823  0.00  0.00    +0.000 A 
ATOM     11  C   UNL     1       3.947  15.463  20.107  0.00  0.00    +0.000 A 
ATOM     12  C   UNL     1       4.401  15.178  21.515  0.00  0.00    +0.000 C 
ATOM     13  C   UNL     1       4.615  14.852  19.045  0.00  0.00    +0.000 A 
ATOM     14  C   UNL     1       4.225  15.094  17.727  0.00  0.00    +0.000 A 
ATOM     15  C   UNL     1       3.223  16.028  17.451  0.00  0.00    +0.000 A 
ATOM     16  C   UNL     1       2.571  16.707  18.491  0.00  0.00    +0.000 A 
ATOM     17  C   UNL     1       1.638  17.845  18.118  0.00  0.00    +0.000 C 
ATOM     18  O   UNL     1       1.642  18.263  16.950  0.00  0.00    +0.000 OA
ATOM     19  N   UNL     1       0.764  18.492  19.010  0.00  0.00    +0.000 N 
ATOM     20  H   UNL     1      -2.696  14.169  19.593  0.00  0.00    +0.000 HD
ATOM     21  H   UNL     1       0.227  19.195  18.509  0.00  0.00    +0.000 HD
ENDROOT
BRANCH   1  27
ATOM     22  C   UNL     1      -1.713  11.844  19.017  0.00  0.00    +0.000 A 
ATOM     23  C   UNL     1      -1.020  10.630  18.889  0.00  0.00    +0.000 A 
ATOM     24  C   UNL     1       0.373  10.557  18.977  0.00  0.00    +0.000 A 
ATOM     25  C   UNL     1       1.073  11.756  19.093  0.00  0.00    +0.000 A 
ATOM     26  C   UNL     1       0.395  12.967  19.278  0.00  0.00    +0.000 A 
ATOM     27  C   UNL     1      -1.007  13.024  19.307  0.00  0.00    +0.000 A 
BRANCH  24  28
ATOM     28  N   UNL     1       1.059   9.347  19.050  0.00  0.00    +0.000 N 
ATOM     29  C   UNL     1       2.141   9.100  18.083  0.00  0.00    +0.000 C 
ATOM     30  C   UNL     1       2.400   7.581  17.994  0.00  0.00    +0.000 C 
ATOM     31  N   UNL     1       2.739   6.983  19.307  0.00  0.00    +0.000 NA
ATOM     32  C   UNL     1       2.858   5.532  19.169  0.00  0.00    +0.000 C 
ATOM     33  C   UNL     1       1.688   7.321  20.300  0.00  0.00    +0.000 C 
ATOM     34  C   UNL     1       1.381   8.840  20.393  0.00  0.00    +0.000 C 
ENDBRANCH  24  28
BRANCH  22  36
ATOM     35  C   UNL     1      -3.691  11.125  17.931  0.00  0.00    +0.000 C 
ATOM     36  O   UNL     1      -3.085  11.943  18.929  0.00  0.00    +0.000 OA
ENDBRANCH  22  36
ENDBRANCH   1  27
TORSDOF 3
ENDMDL
MODEL 4
REMARK VINA RESULT:      -6.8      0.788      1.155
REMARK  Name = 
REMARK  7 active torsions:
REMARK  status: ('A' for Active; 'I' for Inactive)
REMARK    1  A    between atoms: C_1  and  O_2
REMARK    2  A    between atoms: O_2  and  C_3
REMARK    3  A    between atoms: C_5  and  N_6
REMARK    4  A    between atoms: N_9  and  C_10
REMARK    5  A    between atoms: C_15  and  N_16
REMARK    6  A    between atoms: N_23  and  C_24
REMARK    7  A    between atoms: C_26  and  C_27
REMARK                            x       y       z     vdW  Elec       q    Type
REMARK                         _______ _______ _______ _____ _____    ______ ____
ROOT
ATOM      1  N   UNL     1      -0.995  10.787  21.239  0.00  0.00    +0.000 N 
ATOM      2  C   UNL     1      -1.061  12.109  21.675  0.00  0.00    +0.000 A 
ATOM      3  N   UNL     1      -2.266  12.703  21.660  0.00  0.00    +0.000 NA
ATOM      4  C   UNL     1      -2.256  14.043  21.547  0.00  0.00    +0.000 A 
ATOM      5  C   UNL     1      -1.080  14.743  21.433  0.00  0.00    +0.000 A 
ATOM      6  C   UNL     1       0.042  14.127  21.932  0.00  0.00    +0.000 A 
ATOM      7  N   UNL     1       0.066  12.784  21.969  0.00  0.00    +0.000 NA
ATOM      8  N   UNL     1       1.260  14.842  22.023  0.00  0.00    +0.000 N 
ATOM      9  C   UNL     1       1.158  16.230  22.517  0.00  0.00    +0.000 C 
ATOM     10  C   UNL     1       2.022  14.848  20.818  0.00  0.00    +0.000 A 
ATOM     11  C   UNL     1       3.405  14.555  20.897  0.00  0.00    +0.000 A 
ATOM     12  C   UNL     1       4.146  14.529  22.208  0.00  0.00    +0.000 C 
ATOM     13  C   UNL     1       4.109  14.313  19.717  0.00  0.00    +0.000 A 
ATOM     14  C   UNL     1       3.457  14.330  18.484  0.00  0.00    +0.000 A 
ATOM     15  C   UNL     1       2.108  14.687  18.406  0.00  0.00    +0.000 A 
ATOM     16  C   UNL     1       1.382  14.998  19.566  0.00  0.00    +0.000 A 
ATOM     17  C   UNL     1      -0.014  15.567  19.397  0.00  0.00    +0.000 C 
ATOM     18  O   UNL     1      -0.381  15.925  18.267  0.00  0.00    +0.000 OA
ATOM     19  N   UNL     1      -0.942  15.743  20.440  0.00  0.00    +0.000 N 
ATOM     20  H   UNL     1      -1.885  10.314  21.238  0.00  0.00    +0.000 HD
ATOM     21  H   UNL     1      -1.812  16.110  20.062  0.00  0.00    +0.000 HD
ENDROOT
BRANCH   1  27
ATOM     22  C   UNL     1       0.283  10.145  19.261  0.00  0.00    +0.000 A 
ATOM     23  C   UNL     1       1.141   9.223  18.641  0.00  0.00    +0.000 A 
ATOM     24  C   UNL     1       1.860   8.271  19.370  0.00  0.00    +0.000 A 
ATOM     25  C   UNL     1       1.779   8.331  20.761  0.00  0.00    +0.000 A 
ATOM     26  C   UNL     1       0.886   9.207  21.389  0.00  0.00    +0.000 A 
ATOM     27  C   UNL     1       0.076  10.083  20.650  0.00  0.00    +0.000 A 
BRANCH  24  28
ATOM     28  N   UNL     1       2.557   7.229  18.764  0.00  0.00    +0.000 N 
ATOM     29  C   UNL     1       3.765   7.557  17.988  0.00  0.00    +0.000 C 
ATOM     30  C   UNL     1       4.068   6.399  17.014  0.00  0.00    +0.000 C 
ATOM     31  N   UNL     1       4.240   5.101  17.708  0.00  0.00    +0.000 NA
ATOM     32  C   UNL     1       4.409   4.036  16.720  0.00  0.00    +0.000 C 
ATOM     33  C   UNL     1       3.058   4.827  18.562  0.00  0.00    +0.000 C 
ATOM     34  C   UNL     1       2.706   5.985  19.535  0.00  0.00    +0.000 C 
ENDBRANCH  24  28
BRANCH  22  36
ATOM     35  C   UNL     1      -1.488  10.589  17.752  0.00  0.00    +0.000 C 
ATOM     36  O   UNL     1      -0.432  11.096  18.565  0.00  0.00    +0.000 OA
ENDBRANCH  22  36
ENDBRANCH   1  27
TORSDOF 3
ENDMDL
MODEL 5
REMARK VINA RESULT:      -6.8      3.823      6.532
REMARK  Name = 
REMARK  7 active torsions:
REMARK  status: ('A' for Active; 'I' for Inactive)
REMARK    1  A    between atoms: C_1  and  O_2
REMARK    2  A    between atoms: O_2  and  C_3
REMARK    3  A    between atoms: C_5  and  N_6
REMARK    4  A    between atoms: N_9  and  C_10
REMARK    5  A    between atoms: C_15  and  N_16
REMARK    6  A    between atoms: N_23  and  C_24
REMARK    7  A    between atoms: C_26  and  C_27
REMARK                            x       y       z     vdW  Elec       q    Type
REMARK                         _______ _______ _______ _____ _____    ______ ____
ROOT
ATOM      1  N   UNL     1      -2.290  14.254  21.804  0.00  0.00    +0.000 N 
ATOM      2  C   UNL     1      -3.493  14.935  21.619  0.00  0.00    +0.000 A 
ATOM      3  N   UNL     1      -3.906  15.735  22.617  0.00  0.00    +0.000 NA
ATOM      4  C   UNL     1      -5.233  15.941  22.688  0.00  0.00    +0.000 A 
ATOM      5  C   UNL     1      -6.098  15.346  21.803  0.00  0.00    +0.000 A 
ATOM      6  C   UNL     1      -5.565  14.973  20.594  0.00  0.00    +0.000 A 
ATOM      7  N   UNL     1      -4.254  14.687  20.538  0.00  0.00    +0.000 NA
ATOM      8  N   UNL     1      -6.416  14.521  19.557  0.00  0.00    +0.000 N 
ATOM      9  C   UNL     1      -7.666  15.283  19.367  0.00  0.00    +0.000 C 
ATOM     10  C   UNL     1      -6.741  13.135  19.634  0.00  0.00    +0.000 A 
ATOM     11  C   UNL     1      -6.634  12.353  18.459  0.00  0.00    +0.000 A 
ATOM     12  C   UNL     1      -6.480  12.973  17.095  0.00  0.00    +0.000 C 
ATOM     13  C   UNL     1      -6.705  10.964  18.566  0.00  0.00    +0.000 A 
ATOM     14  C   UNL     1      -6.850  10.354  19.813  0.00  0.00    +0.000 A 
ATOM     15  C   UNL     1      -7.024  11.132  20.961  0.00  0.00    +0.000 A 
ATOM     16  C   UNL     1      -7.020  12.533  20.883  0.00  0.00    +0.000 A 
ATOM     17  C   UNL     1      -7.410  13.313  22.125  0.00  0.00    +0.000 C 
ATOM     18  O   UNL     1      -7.909  12.701  23.082  0.00  0.00    +0.000 OA
ATOM     19  N   UNL     1      -7.268  14.704  22.278  0.00  0.00    +0.000 N 
ATOM     20  H   UNL     1      -1.707  14.647  22.525  0.00  0.00    +0.000 HD
ATOM     21  H   UNL     1      -7.572  14.976  23.210  0.00  0.00    +0.000 HD
ENDROOT
BRANCH   1  27
ATOM     22  C   UNL     1      -1.494  11.968  22.119  0.00  0.00    +0.000 A 
ATOM     23  C   UNL     1      -0.786  10.869  21.607  0.00  0.00    +0.000 A 
ATOM     24  C   UNL     1      -0.480  10.751  20.248  0.00  0.00    +0.000 A 
ATOM     25  C   UNL     1      -0.996  11.717  19.386  0.00  0.00    +0.000 A 
ATOM     26  C   UNL     1      -1.654  12.846  19.888  0.00  0.00    +0.000 A 
ATOM     27  C   UNL     1      -1.858  13.024  21.265  0.00  0.00    +0.000 A 
BRANCH  24  28
ATOM     28  N   UNL     1       0.385   9.777  19.754  0.00  0.00    +0.000 N 
ATOM     29  C   UNL     1       1.224  10.114  18.593  0.00  0.00    +0.000 C 
ATOM     30  C   UNL     1       1.689   8.810  17.910  0.00  0.00    +0.000 C 
ATOM     31  N   UNL     1       2.426   7.915  18.834  0.00  0.00    +0.000 NA
ATOM     32  C   UNL     1       2.733   6.657  18.156  0.00  0.00    +0.000 C 
ATOM     33  C   UNL     1       1.607   7.660  20.046  0.00  0.00    +0.000 C 
ATOM     34  C   UNL     1       1.098   8.951  20.741  0.00  0.00    +0.000 C 
ENDBRANCH  24  28
BRANCH  22  36
ATOM     35  C   UNL     1      -3.185  11.901  23.776  0.00  0.00    +0.000 C 
ATOM     36  O   UNL     1      -1.811  12.106  23.452  0.00  0.00    +0.000 OA
ENDBRANCH  22  36
ENDBRANCH   1  27
TORSDOF 3
ENDMDL
MODEL 6
REMARK VINA RESULT:      -6.8      3.918      8.834
REMARK  Name = 
REMARK  7 active torsions:
REMARK  status: ('A' for Active; 'I' for Inactive)
REMARK    1  A    between atoms: C_1  and  O_2
REMARK    2  A    between atoms: O_2  and  C_3
REMARK    3  A    between atoms: C_5  and  N_6
REMARK    4  A    between atoms: N_9  and  C_10
REMARK    5  A    between atoms: C_15  and  N_16
REMARK    6  A    between atoms: N_23  and  C_24
REMARK    7  A    between atoms: C_26  and  C_27
REMARK                            x       y       z     vdW  Elec       q    Type
REMARK                         _______ _______ _______ _____ _____    ______ ____
ROOT
ATOM      1  N   UNL     1      -4.565  11.398  17.910  0.00  0.00    +0.000 N 
ATOM      2  C   UNL     1      -3.199  11.204  17.710  0.00  0.00    +0.000 A 
ATOM      3  N   UNL     1      -2.816  10.028  17.183  0.00  0.00    +0.000 NA
ATOM      4  C   UNL     1      -1.567   9.632  17.486  0.00  0.00    +0.000 A 
ATOM      5  C   UNL     1      -0.756  10.382  18.301  0.00  0.00    +0.000 A 
ATOM      6  C   UNL     1      -1.045  11.723  18.374  0.00  0.00    +0.000 A 
ATOM      7  N   UNL     1      -2.311  12.113  18.152  0.00  0.00    +0.000 NA
ATOM      8  N   UNL     1      -0.158  12.602  19.041  0.00  0.00    +0.000 N 
ATOM      9  C   UNL     1       1.280  12.388  18.783  0.00  0.00    +0.000 C 
ATOM     10  C   UNL     1      -0.357  12.668  20.451  0.00  0.00    +0.000 A 
ATOM     11  C   UNL     1      -0.411  13.944  21.062  0.00  0.00    +0.000 A 
ATOM     12  C   UNL     1       0.020  15.196  20.345  0.00  0.00    +0.000 C 
ATOM     13  C   UNL     1      -0.848  14.039  22.384  0.00  0.00    +0.000 A 
ATOM     14  C   UNL     1      -1.254  12.901  23.082  0.00  0.00    +0.000 A 
ATOM     15  C   UNL     1      -1.134  11.637  22.497  0.00  0.00    +0.000 A 
ATOM     16  C   UNL     1      -0.639  11.497  21.191  0.00  0.00    +0.000 A 
ATOM     17  C   UNL     1      -0.349  10.094  20.690  0.00  0.00    +0.000 C 
ATOM     18  O   UNL     1      -0.360   9.156  21.502  0.00  0.00    +0.000 OA
ATOM     19  N   UNL     1      -0.044   9.764  19.357  0.00  0.00    +0.000 N 
ATOM     20  H   UNL     1      -5.148  10.774  17.376  0.00  0.00    +0.000 HD
ATOM     21  H   UNL     1       0.077   8.758  19.276  0.00  0.00    +0.000 HD
ENDROOT
BRANCH   1  27
ATOM     22  C   UNL     1      -6.091  13.231  18.431  0.00  0.00    +0.000 A 
ATOM     23  C   UNL     1      -6.511  14.213  19.343  0.00  0.00    +0.000 A 
ATOM     24  C   UNL     1      -6.154  14.173  20.694  0.00  0.00    +0.000 A 
ATOM     25  C   UNL     1      -5.445  13.058  21.139  0.00  0.00    +0.000 A 
ATOM     26  C   UNL     1      -4.973  12.101  20.233  0.00  0.00    +0.000 A 
ATOM     27  C   UNL     1      -5.232  12.203  18.858  0.00  0.00    +0.000 A 
BRANCH  24  28
ATOM     28  N   UNL     1      -6.392  15.233  21.566  0.00  0.00    +0.000 N 
ATOM     29  C   UNL     1      -7.612  16.034  21.372  0.00  0.00    +0.000 C 
ATOM     30  C   UNL     1      -7.430  17.403  22.062  0.00  0.00    +0.000 C 
ATOM     31  N   UNL     1      -7.123  17.277  23.506  0.00  0.00    +0.000 NA
ATOM     32  C   UNL     1      -6.852  18.600  24.067  0.00  0.00    +0.000 C 
ATOM     33  C   UNL     1      -5.949  16.388  23.695  0.00  0.00    +0.000 C 
ATOM     34  C   UNL     1      -6.085  15.012  22.988  0.00  0.00    +0.000 C 
ENDBRANCH  24  28
BRANCH  22  36
ATOM     35  C   UNL     1      -7.173  14.386  16.670  0.00  0.00    +0.000 C 
ATOM     36  O   UNL     1      -6.433  13.245  17.097  0.00  0.00    +0.000 OA
ENDBRANCH  22  36
ENDBRANCH   1  27
TORSDOF 3
ENDMDL
MODEL 7
REMARK VINA RESULT:      -6.8      3.440      5.252
REMARK  Name = 
REMARK  7 active torsions:
REMARK  status: ('A' for Active; 'I' for Inactive)
REMARK    1  A    between atoms: C_1  and  O_2
REMARK    2  A    between atoms: O_2  and  C_3
REMARK    3  A    between atoms: C_5  and  N_6
REMARK    4  A    between atoms: N_9  and  C_10
REMARK    5  A    between atoms: C_15  and  N_16
REMARK    6  A    between atoms: N_23  and  C_24
REMARK    7  A    between atoms: C_26  and  C_27
REMARK                            x       y       z     vdW  Elec       q    Type
REMARK                         _______ _______ _______ _____ _____    ______ ____
ROOT
ATOM      1  N   UNL     1      -4.881  12.310  17.926  0.00  0.00    +0.000 N 
ATOM      2  C   UNL     1      -5.676  12.933  18.887  0.00  0.00    +0.000 A 
ATOM      3  N   UNL     1      -6.612  13.791  18.448  0.00  0.00    +0.000 NA
ATOM      4  C   UNL     1      -6.976  14.752  19.317  0.00  0.00    +0.000 A 
ATOM      5  C   UNL     1      -6.402  14.847  20.560  0.00  0.00    +0.000 A 
ATOM      6  C   UNL     1      -5.853  13.693  21.064  0.00  0.00    +0.000 A 
ATOM      7  N   UNL     1      -5.413  12.767  20.196  0.00  0.00    +0.000 NA
ATOM      8  N   UNL     1      -5.403  13.652  22.406  0.00  0.00    +0.000 N 
ATOM      9  C   UNL     1      -6.283  14.294  23.402  0.00  0.00    +0.000 C 
ATOM     10  C   UNL     1      -4.079  14.146  22.590  0.00  0.00    +0.000 A 
ATOM     11  C   UNL     1      -3.179  13.379  23.369  0.00  0.00    +0.000 A 
ATOM     12  C   UNL     1      -3.640  12.238  24.237  0.00  0.00    +0.000 C 
ATOM     13  C   UNL     1      -1.824  13.714  23.355  0.00  0.00    +0.000 A 
ATOM     14  C   UNL     1      -1.360  14.766  22.565  0.00  0.00    +0.000 A 
ATOM     15  C   UNL     1      -2.262  15.562  21.853  0.00  0.00    +0.000 A 
ATOM     16  C   UNL     1      -3.638  15.294  21.892  0.00  0.00    +0.000 A 
ATOM     17  C   UNL     1      -4.575  16.307  21.262  0.00  0.00    +0.000 C 
ATOM     18  O   UNL     1      -4.122  17.412  20.926  0.00  0.00    +0.000 OA
ATOM     19  N   UNL     1      -5.949  16.102  21.038  0.00  0.00    +0.000 N 
ATOM     20  H   UNL     1      -5.273  12.332  16.998  0.00  0.00    +0.000 HD
ATOM     21  H   UNL     1      -6.343  16.917  20.576  0.00  0.00    +0.000 HD
ENDROOT
BRANCH   1  27
ATOM     22  C   UNL     1      -3.044  10.979  17.025  0.00  0.00    +0.000 A 
ATOM     23  C   UNL     1      -1.866  10.253  17.263  0.00  0.00    +0.000 A 
ATOM     24  C   UNL     1      -1.143  10.382  18.452  0.00  0.00    +0.000 A 
ATOM     25  C   UNL     1      -1.572  11.343  19.365  0.00  0.00    +0.000 A 
ATOM     26  C   UNL     1      -2.774  12.033  19.167  0.00  0.00    +0.000 A 
ATOM     27  C   UNL     1      -3.563  11.818  18.026  0.00  0.00    +0.000 A 
BRANCH  24  28
ATOM     28  N   UNL     1      -0.091   9.532  18.788  0.00  0.00    +0.000 N 
ATOM     29  C   UNL     1       1.075   9.479  17.891  0.00  0.00    +0.000 C 
ATOM     30  C   UNL     1       1.844   8.164  18.141  0.00  0.00    +0.000 C 
ATOM     31  N   UNL     1       2.273   8.014  19.551  0.00  0.00    +0.000 NA
ATOM     32  C   UNL     1       2.890   6.702  19.739  0.00  0.00    +0.000 C 
ATOM     33  C   UNL     1       1.103   8.166  20.452  0.00  0.00    +0.000 C 
ATOM     34  C   UNL     1       0.289   9.466  20.207  0.00  0.00    +0.000 C 
ENDBRANCH  24  28
BRANCH  22  36
ATOM     35  C   UNL     1      -3.093  10.251  14.771  0.00  0.00    +0.000 C 
ATOM     36  O   UNL     1      -3.772  10.874  15.860  0.00  0.00    +0.000 OA
ENDBRANCH  22  36
ENDBRANCH   1  27
TORSDOF 3
ENDMDL
MODEL 8
REMARK VINA RESULT:      -6.7      0.618      1.038
REMARK  Name = 
REMARK  7 active torsions:
REMARK  status: ('A' for Active; 'I' for Inactive)
REMARK    1  A    between atoms: C_1  and  O_2
REMARK    2  A    between atoms: O_2  and  C_3
REMARK    3  A    between atoms: C_5  and  N_6
REMARK    4  A    between atoms: N_9  and  C_10
REMARK    5  A    between atoms: C_15  and  N_16
REMARK    6  A    between atoms: N_23  and  C_24
REMARK    7  A    between atoms: C_26  and  C_27
REMARK                            x       y       z     vdW  Elec       q    Type
REMARK                         _______ _______ _______ _____ _____    ______ ____
ROOT
ATOM      1  N   UNL     1      -1.318  11.531  22.450  0.00  0.00    +0.000 N 
ATOM      2  C   UNL     1      -1.238  12.907  22.664  0.00  0.00    +0.000 A 
ATOM      3  N   UNL     1      -2.394  13.591  22.701  0.00  0.00    +0.000 NA
ATOM      4  C   UNL     1      -2.314  14.891  22.367  0.00  0.00    +0.000 A 
ATOM      5  C   UNL     1      -1.122  15.462  21.992  0.00  0.00    +0.000 A 
ATOM      6  C   UNL     1       0.015  14.838  22.443  0.00  0.00    +0.000 A 
ATOM      7  N   UNL     1      -0.042  13.520  22.700  0.00  0.00    +0.000 NA
ATOM      8  N   UNL     1       1.277  15.453  22.261  0.00  0.00    +0.000 N 
ATOM      9  C   UNL     1       1.334  16.904  22.526  0.00  0.00    +0.000 C 
ATOM     10  C   UNL     1       1.866  15.205  20.986  0.00  0.00    +0.000 A 
ATOM     11  C   UNL     1       3.225  14.811  20.940  0.00  0.00    +0.000 A 
ATOM     12  C   UNL     1       4.136  14.927  22.133  0.00  0.00    +0.000 C 
ATOM     13  C   UNL     1       3.744  14.328  19.738  0.00  0.00    +0.000 A 
ATOM     14  C   UNL     1       2.931  14.207  18.610  0.00  0.00    +0.000 A 
ATOM     15  C   UNL     1       1.610  14.662  18.643  0.00  0.00    +0.000 A 
ATOM     16  C   UNL     1       1.071  15.211  19.817  0.00  0.00    +0.000 A 
ATOM     17  C   UNL     1      -0.296  15.863  19.731  0.00  0.00    +0.000 C 
ATOM     18  O   UNL     1      -0.790  16.070  18.612  0.00  0.00    +0.000 OA
ATOM     19  N   UNL     1      -1.059  16.279  20.837  0.00  0.00    +0.000 N 
ATOM     20  H   UNL     1      -2.228  11.142  22.638  0.00  0.00    +0.000 HD
ATOM     21  H   UNL     1      -1.947  16.655  20.515  0.00  0.00    +0.000 HD
ENDROOT
BRANCH   1  27
ATOM     22  C   UNL     1      -0.173  10.685  20.468  0.00  0.00    +0.000 A 
ATOM     23  C   UNL     1       0.514   9.631  19.844  0.00  0.00    +0.000 A 
ATOM     24  C   UNL     1       1.059   8.567  20.569  0.00  0.00    +0.000 A 
ATOM     25  C   UNL     1       0.991   8.636  21.960  0.00  0.00    +0.000 A 
ATOM     26  C   UNL     1       0.263   9.651  22.592  0.00  0.00    +0.000 A 
ATOM     27  C   UNL     1      -0.384  10.656  21.857  0.00  0.00    +0.000 A 
BRANCH  24  28
ATOM     28  N   UNL     1       1.565   7.423  19.958  0.00  0.00    +0.000 N 
ATOM     29  C   UNL     1       2.583   7.586  18.907  0.00  0.00    +0.000 C 
ATOM     30  C   UNL     1       2.620   6.311  18.039  0.00  0.00    +0.000 C 
ATOM     31  N   UNL     1       2.892   5.088  18.832  0.00  0.00    +0.000 NA
ATOM     32  C   UNL     1       2.799   3.912  17.968  0.00  0.00    +0.000 C 
ATOM     33  C   UNL     1       1.918   4.986  19.948  0.00  0.00    +0.000 C 
ATOM     34  C   UNL     1       1.834   6.264  20.825  0.00  0.00    +0.000 C 
ENDBRANCH  24  28
BRANCH  22  36
ATOM     35  C   UNL     1      -1.381  11.407  18.563  0.00  0.00    +0.000 C 
ATOM     36  O   UNL     1      -0.714  11.747  19.776  0.00  0.00    +0.000 OA
ENDBRANCH  22  36
ENDBRANCH   1  27
TORSDOF 3
ENDMDL
MODEL 9
REMARK VINA RESULT:      -6.7      4.003      6.761
REMARK  Name = 
REMARK  7 active torsions:
REMARK  status: ('A' for Active; 'I' for Inactive)
REMARK    1  A    between atoms: C_1  and  O_2
REMARK    2  A    between atoms: O_2  and  C_3
REMARK    3  A    between atoms: C_5  and  N_6
REMARK    4  A    between atoms: N_9  and  C_10
REMARK    5  A    between atoms: C_15  and  N_16
REMARK    6  A    between atoms: N_23  and  C_24
REMARK    7  A    between atoms: C_26  and  C_27
REMARK                            x       y       z     vdW  Elec       q    Type
REMARK                         _______ _______ _______ _____ _____    ______ ____
ROOT
ATOM      1  N   UNL     1      -2.377  14.824  22.782  0.00  0.00    +0.000 N 
ATOM      2  C   UNL     1      -3.578  15.530  22.825  0.00  0.00    +0.000 A 
ATOM      3  N   UNL     1      -3.894  16.137  23.982  0.00  0.00    +0.000 NA
ATOM      4  C   UNL     1      -5.207  16.330  24.200  0.00  0.00    +0.000 A 
ATOM      5  C   UNL     1      -6.152  15.908  23.299  0.00  0.00    +0.000 A 
ATOM      6  C   UNL     1      -5.728  15.758  22.001  0.00  0.00    +0.000 A 
ATOM      7  N   UNL     1      -4.431  15.484  21.785  0.00  0.00    +0.000 NA
ATOM      8  N   UNL     1      -6.669  15.504  20.975  0.00  0.00    +0.000 N 
ATOM      9  C   UNL     1      -7.917  16.291  21.032  0.00  0.00    +0.000 C 
ATOM     10  C   UNL     1      -7.011  14.128  20.829  0.00  0.00    +0.000 A 
ATOM     11  C   UNL     1      -7.015  13.572  19.527  0.00  0.00    +0.000 A 
ATOM     12  C   UNL     1      -6.962  14.428  18.289  0.00  0.00    +0.000 C 
ATOM     13  C   UNL     1      -7.101  12.186  19.388  0.00  0.00    +0.000 A 
ATOM     14  C   UNL     1      -7.154  11.361  20.512  0.00  0.00    +0.000 A 
ATOM     15  C   UNL     1      -7.219  11.919  21.792  0.00  0.00    +0.000 A 
ATOM     16  C   UNL     1      -7.197  13.311  21.967  0.00  0.00    +0.000 A 
ATOM     17  C   UNL     1      -7.470  13.853  23.358  0.00  0.00    +0.000 C 
ATOM     18  O   UNL     1      -7.898  13.080  24.228  0.00  0.00    +0.000 OA
ATOM     19  N   UNL     1      -7.291  15.193  23.747  0.00  0.00    +0.000 N 
ATOM     20  H   UNL     1      -1.729  15.079  23.511  0.00  0.00    +0.000 HD
ATOM     21  H   UNL     1      -7.512  15.293  24.734  0.00  0.00    +0.000 HD
ENDROOT
BRANCH   1  27
ATOM     22  C   UNL     1      -1.980  12.426  22.565  0.00  0.00    +0.000 A 
ATOM     23  C   UNL     1      -1.336  11.379  21.886  0.00  0.00    +0.000 A 
ATOM     24  C   UNL     1      -0.773  11.551  20.618  0.00  0.00    +0.000 A 
ATOM     25  C   UNL     1      -0.963  12.782  19.992  0.00  0.00    +0.000 A 
ATOM     26  C   UNL     1      -1.553  13.851  20.678  0.00  0.00    +0.000 A 
ATOM     27  C   UNL     1      -2.013  13.711  21.996  0.00  0.00    +0.000 A 
BRANCH  24  28
ATOM     28  N   UNL     1       0.035  10.589  20.017  0.00  0.00    +0.000 N 
ATOM     29  C   UNL     1       0.200   9.293  20.697  0.00  0.00    +0.000 C 
ATOM     30  C   UNL     1       1.479   8.608  20.173  0.00  0.00    +0.000 C 
ATOM     31  N   UNL     1       1.464   8.418  18.703  0.00  0.00    +0.000 NA
ATOM     32  C   UNL     1       2.747   7.872  18.265  0.00  0.00    +0.000 C 
ATOM     33  C   UNL     1       1.200   9.716  18.031  0.00  0.00    +0.000 C 
ATOM     34  C   UNL     1      -0.065  10.447  18.556  0.00  0.00    +0.000 C 
ENDBRANCH  24  28
BRANCH  22  36
ATOM     35  C   UNL     1      -3.971  12.242  23.834  0.00  0.00    +0.000 C 
ATOM     36  O   UNL     1      -2.546  12.280  23.812  0.00  0.00    +0.000 OA
ENDBRANCH  22  36
ENDBRANCH   1  27
TORSDOF 3
ENDMDL
