MODEL 1
REMARK VINA RESULT:      -7.2      0.000      0.000
REMARK  Name = 
REMARK  5 active torsions:
REMARK  status: ('A' for Active; 'I' for Inactive)
REMARK    1  A    between atoms: C_2  and  C_3
REMARK    2  A    between atoms: C_7  and  C_8
REMARK    3  A    between atoms: C_7  and  C_9
REMARK    4  A    between atoms: C_15  and  C_16
REMARK    5  A    between atoms: C_15  and  C_17
REMARK                            x       y       z     vdW  Elec       q    Type
REMARK                         _______ _______ _______ _____ _____    ______ ____
ROOT
ATOM      1  C   UNL     1       2.416   4.829  18.924  0.00  0.00    +0.000 C 
ATOM      2  C   UNL     1       3.715   4.572  18.117  0.00  0.00    +0.000 C 
ATOM      3  C   UNL     1       4.194   5.764  17.290  0.00  0.00    +0.000 C 
ATOM      4  O   UNL     1       5.418   5.447  16.634  0.00  0.00    +0.000 OA
ATOM      5  C   UNL     1       6.441   5.000  17.527  0.00  0.00    +0.000 C 
ATOM      6  C   UNL     1       7.611   4.536  16.655  0.00  0.00    +0.000 C 
ATOM      7  C   UNL     1       6.941   6.136  18.431  0.00  0.00    +0.000 C 
ATOM      8  O   UNL     1       6.023   3.849  18.269  0.00  0.00    +0.000 OA
ATOM      9  C   UNL     1       4.841   4.071  19.028  0.00  0.00    +0.000 C 
ATOM     10  C   UNL     1       4.435   2.770  19.715  0.00  0.00    +0.000 C 
ATOM     11  C   UNL     1       3.104   2.928  20.425  0.00  0.00    +0.000 C 
ATOM     12  O   UNL     1       2.972   2.558  21.593  0.00  0.00    +0.000 OA
ATOM     13  C   UNL     1       1.933   3.503  19.608  0.00  0.00    +0.000 C 
ATOM     14  C   UNL     1       1.503   2.446  18.569  0.00  0.00    +0.000 C 
ATOM     15  C   UNL     1       0.709   3.758  20.512  0.00  0.00    +0.000 C 
ENDROOT
BRANCH   1  17
ATOM     16  C   UNL     1       2.110   7.181  19.839  0.00  0.00    +0.000 C 
ATOM     17  C   UNL     1       2.610   5.945  19.945  0.00  0.00    +0.000 C 
ENDBRANCH   1  17
TORSDOF 1
ENDMDL
MODEL 2
REMARK VINA RESULT:      -7.0      1.693      2.976
REMARK  Name = 
REMARK  5 active torsions:
REMARK  status: ('A' for Active; 'I' for Inactive)
REMARK    1  A    between atoms: C_2  and  C_3
REMARK    2  A    between atoms: C_7  and  C_8
REMARK    3  A    between atoms: C_7  and  C_9
REMARK    4  A    between atoms: C_15  and  C_16
REMARK    5  A    between atoms: C_15  and  C_17
REMARK                            x       y       z     vdW  Elec       q    Type
REMARK                         _______ _______ _______ _____ _____    ______ ____
ROOT
ATOM      1  C   UNL     1       3.509   3.631  20.134  0.00  0.00    +0.000 C 
ATOM      2  C   UNL     1       3.946   4.565  18.976  0.00  0.00    +0.000 C 
ATOM      3  C   UNL     1       5.456   4.755  18.848  0.00  0.00    +0.000 C 
ATOM      4  O   UNL     1       5.755   5.580  17.727  0.00  0.00    +0.000 OA
ATOM      5  C   UNL     1       5.196   5.097  16.502  0.00  0.00    +0.000 C 
ATOM      6  C   UNL     1       5.454   6.177  15.448  0.00  0.00    +0.000 C 
ATOM      7  C   UNL     1       5.880   3.804  16.038  0.00  0.00    +0.000 C 
ATOM      8  O   UNL     1       3.774   4.967  16.592  0.00  0.00    +0.000 OA
ATOM      9  C   UNL     1       3.354   4.101  17.640  0.00  0.00    +0.000 C 
ATOM     10  C   UNL     1       1.830   4.091  17.703  0.00  0.00    +0.000 C 
ATOM     11  C   UNL     1       1.345   3.287  18.894  0.00  0.00    +0.000 C 
ATOM     12  O   UNL     1       0.467   2.433  18.755  0.00  0.00    +0.000 OA
ATOM     13  C   UNL     1       1.947   3.629  20.269  0.00  0.00    +0.000 C 
ATOM     14  C   UNL     1       1.408   5.010  20.702  0.00  0.00    +0.000 C 
ATOM     15  C   UNL     1       1.482   2.618  21.337  0.00  0.00    +0.000 C 
ENDROOT
BRANCH   1  17
ATOM     16  C   UNL     1       4.956   1.628  20.733  0.00  0.00    +0.000 C 
ATOM     17  C   UNL     1       4.053   2.219  19.942  0.00  0.00    +0.000 C 
ENDBRANCH   1  17
TORSDOF 1
ENDMDL
MODEL 3
REMARK VINA RESULT:      -6.8      1.737      3.180
REMARK  Name = 
REMARK  5 active torsions:
REMARK  status: ('A' for Active; 'I' for Inactive)
REMARK    1  A    between atoms: C_2  and  C_3
REMARK    2  A    between atoms: C_7  and  C_8
REMARK    3  A    between atoms: C_7  and  C_9
REMARK    4  A    between atoms: C_15  and  C_16
REMARK    5  A    between atoms: C_15  and  C_17
REMARK                            x       y       z     vdW  Elec       q    Type
REMARK                         _______ _______ _______ _____ _____    ______ ____
ROOT
ATOM      1  C   UNL     1       3.430   3.425  19.402  0.00  0.00    +0.000 C 
ATOM      2  C   UNL     1       4.462   4.563  19.188  0.00  0.00    +0.000 C 
ATOM      3  C   UNL     1       5.917   4.149  19.397  0.00  0.00    +0.000 C 
ATOM      4  O   UNL     1       6.784   5.245  19.124  0.00  0.00    +0.000 OA
ATOM      5  C   UNL     1       6.595   5.809  17.824  0.00  0.00    +0.000 C 
ATOM      6  C   UNL     1       7.463   7.068  17.763  0.00  0.00    +0.000 C 
ATOM      7  C   UNL     1       7.062   4.853  16.718  0.00  0.00    +0.000 C 
ATOM      8  O   UNL     1       5.246   6.251  17.637  0.00  0.00    +0.000 OA
ATOM      9  C   UNL     1       4.287   5.216  17.813  0.00  0.00    +0.000 C 
ATOM     10  C   UNL     1       2.885   5.802  17.672  0.00  0.00    +0.000 C 
ATOM     11  C   UNL     1       1.830   4.759  17.988  0.00  0.00    +0.000 C 
ATOM     12  O   UNL     1       0.879   4.582  17.224  0.00  0.00    +0.000 OA
ATOM     13  C   UNL     1       1.972   3.992  19.315  0.00  0.00    +0.000 C 
ATOM     14  C   UNL     1       1.668   4.968  20.472  0.00  0.00    +0.000 C 
ATOM     15  C   UNL     1       0.928   2.860  19.406  0.00  0.00    +0.000 C 
ENDROOT
BRANCH   1  17
ATOM     16  C   UNL     1       3.942   1.025  18.733  0.00  0.00    +0.000 C 
ATOM     17  C   UNL     1       3.647   2.289  18.406  0.00  0.00    +0.000 C 
ENDBRANCH   1  17
TORSDOF 1
ENDMDL
MODEL 4
REMARK VINA RESULT:      -6.6      1.825      5.000
REMARK  Name = 
REMARK  5 active torsions:
REMARK  status: ('A' for Active; 'I' for Inactive)
REMARK    1  A    between atoms: C_2  and  C_3
REMARK    2  A    between atoms: C_7  and  C_8
REMARK    3  A    between atoms: C_7  and  C_9
REMARK    4  A    between atoms: C_15  and  C_16
REMARK    5  A    between atoms: C_15  and  C_17
REMARK                            x       y       z     vdW  Elec       q    Type
REMARK                         _______ _______ _______ _____ _____    ______ ____
ROOT
ATOM      1  C   UNL     1       5.443   6.546  18.327  0.00  0.00    +0.000 C 
ATOM      2  C   UNL     1       4.862   5.147  18.659  0.00  0.00    +0.000 C 
ATOM      3  C   UNL     1       3.503   5.173  19.356  0.00  0.00    +0.000 C 
ATOM      4  O   UNL     1       3.032   3.846  19.566  0.00  0.00    +0.000 OA
ATOM      5  C   UNL     1       2.977   3.067  18.368  0.00  0.00    +0.000 C 
ATOM      6  C   UNL     1       2.631   1.637  18.792  0.00  0.00    +0.000 C 
ATOM      7  C   UNL     1       1.879   3.563  17.418  0.00  0.00    +0.000 C 
ATOM      8  O   UNL     1       4.259   2.989  17.735  0.00  0.00    +0.000 OA
ATOM      9  C   UNL     1       4.801   4.263  17.409  0.00  0.00    +0.000 C 
ATOM     10  C   UNL     1       6.195   4.078  16.815  0.00  0.00    +0.000 C 
ATOM     11  C   UNL     1       6.863   5.419  16.580  0.00  0.00    +0.000 C 
ATOM     12  O   UNL     1       7.394   5.670  15.496  0.00  0.00    +0.000 OA
ATOM     13  C   UNL     1       6.898   6.407  17.760  0.00  0.00    +0.000 C 
ATOM     14  C   UNL     1       7.876   5.858  18.820  0.00  0.00    +0.000 C 
ATOM     15  C   UNL     1       7.453   7.775  17.312  0.00  0.00    +0.000 C 
ENDROOT
BRANCH   1  17
ATOM     16  C   UNL     1       3.336   7.807  17.668  0.00  0.00    +0.000 C 
ATOM     17  C   UNL     1       4.538   7.306  17.363  0.00  0.00    +0.000 C 
ENDBRANCH   1  17
TORSDOF 1
ENDMDL
MODEL 5
REMARK VINA RESULT:      -6.5      1.545      4.835
REMARK  Name = 
REMARK  5 active torsions:
REMARK  status: ('A' for Active; 'I' for Inactive)
REMARK    1  A    between atoms: C_2  and  C_3
REMARK    2  A    between atoms: C_7  and  C_8
REMARK    3  A    between atoms: C_7  and  C_9
REMARK    4  A    between atoms: C_15  and  C_16
REMARK    5  A    between atoms: C_15  and  C_17
REMARK                            x       y       z     vdW  Elec       q    Type
REMARK                         _______ _______ _______ _____ _____    ______ ____
ROOT
ATOM      1  C   UNL     1       4.173   6.312  18.599  0.00  0.00    +0.000 C 
ATOM      2  C   UNL     1       3.735   5.216  19.604  0.00  0.00    +0.000 C 
ATOM      3  C   UNL     1       2.672   5.661  20.606  0.00  0.00    +0.000 C 
ATOM      4  O   UNL     1       2.299   4.573  21.444  0.00  0.00    +0.000 OA
ATOM      5  C   UNL     1       1.866   3.420  20.719  0.00  0.00    +0.000 C 
ATOM      6  C   UNL     1       1.679   2.300  21.746  0.00  0.00    +0.000 C 
ATOM      7  C   UNL     1       0.518   3.660  20.024  0.00  0.00    +0.000 C 
ATOM      8  O   UNL     1       2.876   2.960  19.815  0.00  0.00    +0.000 OA
ATOM      9  C   UNL     1       3.280   3.947  18.875  0.00  0.00    +0.000 C 
ATOM     10  C   UNL     1       4.409   3.389  18.014  0.00  0.00    +0.000 C 
ATOM     11  C   UNL     1       4.961   4.457  17.089  0.00  0.00    +0.000 C 
ATOM     12  O   UNL     1       5.115   4.224  15.889  0.00  0.00    +0.000 OA
ATOM     13  C   UNL     1       5.369   5.798  17.725  0.00  0.00    +0.000 C 
ATOM     14  C   UNL     1       6.638   5.565  18.572  0.00  0.00    +0.000 C 
ATOM     15  C   UNL     1       5.746   6.827  16.638  0.00  0.00    +0.000 C 
ENDROOT
BRANCH   1  17
ATOM     16  C   UNL     1       2.421   7.969  17.793  0.00  0.00    +0.000 C 
ATOM     17  C   UNL     1       3.004   6.766  17.731  0.00  0.00    +0.000 C 
ENDBRANCH   1  17
TORSDOF 1
ENDMDL
MODEL 6
REMARK VINA RESULT:      -6.3      1.624      5.148
REMARK  Name = 
REMARK  5 active torsions:
REMARK  status: ('A' for Active; 'I' for Inactive)
REMARK    1  A    between atoms: C_2  and  C_3
REMARK    2  A    between atoms: C_7  and  C_8
REMARK    3  A    between atoms: C_7  and  C_9
REMARK    4  A    between atoms: C_15  and  C_16
REMARK    5  A    between atoms: C_15  and  C_17
REMARK                            x       y       z     vdW  Elec       q    Type
REMARK                         _______ _______ _______ _____ _____    ______ ____
ROOT
ATOM      1  C   UNL     1       5.939   4.343  18.192  0.00  0.00    +0.000 C 
ATOM      2  C   UNL     1       4.567   3.707  18.533  0.00  0.00    +0.000 C 
ATOM      3  C   UNL     1       4.541   2.916  19.840  0.00  0.00    +0.000 C 
ATOM      4  O   UNL     1       3.229   2.422  20.090  0.00  0.00    +0.000 OA
ATOM      5  C   UNL     1       2.228   3.443  20.091  0.00  0.00    +0.000 C 
ATOM      6  C   UNL     1       0.877   2.731  20.191  0.00  0.00    +0.000 C 
ATOM      7  C   UNL     1       2.368   4.374  21.303  0.00  0.00    +0.000 C 
ATOM      8  O   UNL     1       2.206   4.155  18.849  0.00  0.00    +0.000 OA
ATOM      9  C   UNL     1       3.453   4.759  18.527  0.00  0.00    +0.000 C 
ATOM     10  C   UNL     1       3.350   5.422  17.156  0.00  0.00    +0.000 C 
ATOM     11  C   UNL     1       4.697   5.961  16.715  0.00  0.00    +0.000 C 
ATOM     12  O   UNL     1       4.800   7.113  16.288  0.00  0.00    +0.000 OA
ATOM     13  C   UNL     1       5.894   4.994  16.766  0.00  0.00    +0.000 C 
ATOM     14  C   UNL     1       5.708   3.935  15.659  0.00  0.00    +0.000 C 
ATOM     15  C   UNL     1       7.210   5.736  16.452  0.00  0.00    +0.000 C 
ENDROOT
BRANCH   1  17
ATOM     16  C   UNL     1       7.612   5.543  19.684  0.00  0.00    +0.000 C 
ATOM     17  C   UNL     1       6.359   5.354  19.254  0.00  0.00    +0.000 C 
ENDBRANCH   1  17
TORSDOF 1
ENDMDL
MODEL 7
REMARK VINA RESULT:      -6.1      1.658      2.218
REMARK  Name = 
REMARK  5 active torsions:
REMARK  status: ('A' for Active; 'I' for Inactive)
REMARK    1  A    between atoms: C_2  and  C_3
REMARK    2  A    between atoms: C_7  and  C_8
REMARK    3  A    between atoms: C_7  and  C_9
REMARK    4  A    between atoms: C_15  and  C_16
REMARK    5  A    between atoms: C_15  and  C_17
REMARK                            x       y       z     vdW  Elec       q    Type
REMARK                         _______ _______ _______ _____ _____    ______ ____
ROOT
ATOM      1  C   UNL     1       3.434   5.463  18.385  0.00  0.00    +0.000 C 
ATOM      2  C   UNL     1       4.069   5.199  16.995  0.00  0.00    +0.000 C 
ATOM      3  C   UNL     1       4.968   6.323  16.483  0.00  0.00    +0.000 C 
ATOM      4  O   UNL     1       5.544   5.960  15.233  0.00  0.00    +0.000 OA
ATOM      5  C   UNL     1       6.251   4.718  15.271  0.00  0.00    +0.000 C 
ATOM      6  C   UNL     1       6.646   4.394  13.828  0.00  0.00    +0.000 C 
ATOM      7  C   UNL     1       7.535   4.823  16.106  0.00  0.00    +0.000 C 
ATOM      8  O   UNL     1       5.403   3.647  15.698  0.00  0.00    +0.000 OA
ATOM      9  C   UNL     1       4.824   3.865  16.978  0.00  0.00    +0.000 C 
ATOM     10  C   UNL     1       3.881   2.711  17.306  0.00  0.00    +0.000 C 
ATOM     11  C   UNL     1       3.138   2.972  18.602  0.00  0.00    +0.000 C 
ATOM     12  O   UNL     1       3.085   2.105  19.476  0.00  0.00    +0.000 OA
ATOM     13  C   UNL     1       2.417   4.325  18.741  0.00  0.00    +0.000 C 
ATOM     14  C   UNL     1       1.202   4.324  17.789  0.00  0.00    +0.000 C 
ATOM     15  C   UNL     1       1.860   4.503  20.169  0.00  0.00    +0.000 C 
ENDROOT
BRANCH   1  17
ATOM     16  C   UNL     1       5.788   5.266  19.325  0.00  0.00    +0.000 C 
ATOM     17  C   UNL     1       4.503   5.613  19.462  0.00  0.00    +0.000 C 
ENDBRANCH   1  17
TORSDOF 1
ENDMDL
MODEL 8
REMARK VINA RESULT:      -6.1      1.799      5.145
REMARK  Name = 
REMARK  5 active torsions:
REMARK  status: ('A' for Active; 'I' for Inactive)
REMARK    1  A    between atoms: C_2  and  C_3
REMARK    2  A    between atoms: C_7  and  C_8
REMARK    3  A    between atoms: C_7  and  C_9
REMARK    4  A    between atoms: C_15  and  C_16
REMARK    5  A    between atoms: C_15  and  C_17
REMARK                            x       y       z     vdW  Elec       q    Type
REMARK                         _______ _______ _______ _____ _____    ______ ____
ROOT
ATOM      1  C   UNL     1       4.911   5.101  16.607  0.00  0.00    +0.000 C 
ATOM      2  C   UNL     1       3.825   4.895  17.694  0.00  0.00    +0.000 C 
ATOM      3  C   UNL     1       2.536   4.248  17.191  0.00  0.00    +0.000 C 
ATOM      4  O   UNL     1       1.630   4.052  18.271  0.00  0.00    +0.000 OA
ATOM      5  C   UNL     1       2.188   3.303  19.353  0.00  0.00    +0.000 C 
ATOM      6  C   UNL     1       1.161   3.339  20.487  0.00  0.00    +0.000 C 
ATOM      7  C   UNL     1       2.421   1.836  18.966  0.00  0.00    +0.000 C 
ATOM      8  O   UNL     1       3.367   3.930  19.870  0.00  0.00    +0.000 OA
ATOM      9  C   UNL     1       4.381   4.113  18.889  0.00  0.00    +0.000 C 
ATOM     10  C   UNL     1       5.558   4.855  19.516  0.00  0.00    +0.000 C 
ATOM     11  C   UNL     1       6.603   5.191  18.470  0.00  0.00    +0.000 C 
ATOM     12  O   UNL     1       7.792   4.937  18.672  0.00  0.00    +0.000 OA
ATOM     13  C   UNL     1       6.121   5.906  17.195  0.00  0.00    +0.000 C 
ATOM     14  C   UNL     1       5.719   7.348  17.573  0.00  0.00    +0.000 C 
ATOM     15  C   UNL     1       7.265   6.021  16.166  0.00  0.00    +0.000 C 
ENDROOT
BRANCH   1  17
ATOM     16  C   UNL     1       5.719   3.572  14.743  0.00  0.00    +0.000 C 
ATOM     17  C   UNL     1       5.363   3.768  16.017  0.00  0.00    +0.000 C 
ENDBRANCH   1  17
TORSDOF 1
ENDMDL
MODEL 9
REMARK VINA RESULT:      -5.9      1.967      4.920
REMARK  Name = 
REMARK  5 active torsions:
REMARK  status: ('A' for Active; 'I' for Inactive)
REMARK    1  A    between atoms: C_2  and  C_3
REMARK    2  A    between atoms: C_7  and  C_8
REMARK    3  A    between atoms: C_7  and  C_9
REMARK    4  A    between atoms: C_15  and  C_16
REMARK    5  A    between atoms: C_15  and  C_17
REMARK                            x       y       z     vdW  Elec       q    Type
REMARK                         _______ _______ _______ _____ _____    ______ ____
ROOT
ATOM      1  C   UNL     1       4.076   4.004  16.774  0.00  0.00    +0.000 C 
ATOM      2  C   UNL     1       3.365   4.988  17.739  0.00  0.00    +0.000 C 
ATOM      3  C   UNL     1       1.913   4.631  18.055  0.00  0.00    +0.000 C 
ATOM      4  O   UNL     1       1.370   5.559  18.988  0.00  0.00    +0.000 OA
ATOM      5  C   UNL     1       2.140   5.675  20.187  0.00  0.00    +0.000 C 
ATOM      6  C   UNL     1       1.529   6.826  20.990  0.00  0.00    +0.000 C 
ATOM      7  C   UNL     1       2.057   4.401  21.040  0.00  0.00    +0.000 C 
ATOM      8  O   UNL     1       3.489   6.063  19.907  0.00  0.00    +0.000 OA
ATOM      9  C   UNL     1       4.163   5.163  19.036  0.00  0.00    +0.000 C 
ATOM     10  C   UNL     1       5.558   5.704  18.738  0.00  0.00    +0.000 C 
ATOM     11  C   UNL     1       6.260   4.844  17.704  0.00  0.00    +0.000 C 
ATOM     12  O   UNL     1       7.412   4.451  17.897  0.00  0.00    +0.000 OA
ATOM     13  C   UNL     1       5.498   4.546  16.399  0.00  0.00    +0.000 C 
ATOM     14  C   UNL     1       5.416   5.851  15.580  0.00  0.00    +0.000 C 
ATOM     15  C   UNL     1       6.271   3.528  15.535  0.00  0.00    +0.000 C 
ENDROOT
BRANCH   1  17
ATOM     16  C   UNL     1       3.107   1.899  17.821  0.00  0.00    +0.000 C 
ATOM     17  C   UNL     1       4.152   2.603  17.371  0.00  0.00    +0.000 C 
ENDBRANCH   1  17
TORSDOF 1
ENDMDL
