MODEL 1
REMARK VINA RESULT:      -6.4      0.000      0.000
REMARK  Name = 
REMARK  9 active torsions:
REMARK  status: ('A' for Active; 'I' for Inactive)
REMARK    1  A    between atoms: C_1  and  C_2
REMARK    2  A    between atoms: N_6  and  C_7
REMARK    3  A    between atoms: C_7  and  C_8
REMARK    4  A    between atoms: C_7  and  C_9
REMARK    5  A    between atoms: C_9  and  C_10
REMARK    6  A    between atoms: N_12  and  C_13
REMARK    7  A    between atoms: C_13  and  C_14
REMARK    8  A    between atoms: C_14  and  C_15
REMARK    9  A    between atoms: N_18  and  C_19
REMARK                            x       y       z     vdW  Elec       q    Type
REMARK                         _______ _______ _______ _____ _____    ______ ____
ROOT
ATOM      1  C   UNL     1       5.865   5.293  18.793  0.00  0.00    +0.000 C 
ATOM      2  O   UNL     1       6.914   5.682  19.296  0.00  0.00    +0.000 OA
ATOM      3  N   UNL     1       5.789   4.712  17.558  0.00  0.00    +0.000 N 
ATOM      4  H   UNL     1       4.886   4.453  17.173  0.00  0.00    +0.000 HD
ENDROOT
BRANCH   1   5
ATOM      5  C   UNL     1       4.532   5.432  19.501  0.00  0.00    +0.000 C 
BRANCH   5   6
ATOM      6  C   UNL     1       3.303   5.128  18.623  0.00  0.00    +0.000 C 
ATOM      7  C   UNL     1       2.555   6.424  18.270  0.00  0.00    +0.000 C 
BRANCH   6  13
ATOM      8  C   UNL     1       3.327   2.043  17.945  0.00  0.00    +0.000 C 
ATOM      9  C   UNL     1       2.445   2.732  18.922  0.00  0.00    +0.000 A 
ATOM     10  N   UNL     1       1.570   2.107  19.685  0.00  0.00    +0.000 NA
ATOM     11  C   UNL     1       0.926   3.073  20.398  0.00  0.00    +0.000 A 
ATOM     12  C   UNL     1       1.426   4.310  20.093  0.00  0.00    +0.000 A 
ATOM     13  N   UNL     1       2.419   4.096  19.167  0.00  0.00    +0.000 N 
ENDBRANCH   6  13
ENDBRANCH   5   6
ENDBRANCH   1   5
BRANCH   3  14
ATOM     14  C   UNL     1       6.952   4.442  16.743  0.00  0.00    +0.000 C 
BRANCH  14  15
ATOM     15  C   UNL     1       7.072   5.411  15.560  0.00  0.00    +0.000 C 
BRANCH  15  16
ATOM     16  C   UNL     1       6.906   4.760  14.227  0.00  0.00    +0.000 A 
ATOM     17  C   UNL     1       7.621   5.024  13.035  0.00  0.00    +0.000 A 
ATOM     18  N   UNL     1       7.206   4.277  12.007  0.00  0.00    +0.000 NA
ATOM     19  N   UNL     1       6.226   3.525  12.539  0.00  0.00    +0.000 N 
ATOM     20  C   UNL     1       5.525   2.565  11.725  0.00  0.00    +0.000 C 
ATOM     21  C   UNL     1       6.007   3.781  13.860  0.00  0.00    +0.000 A 
ENDBRANCH  15  16
ENDBRANCH  14  15
ENDBRANCH   3  14
TORSDOF 6
ENDMDL
MODEL 2
REMARK VINA RESULT:      -6.3      3.803      8.019
REMARK  Name = 
REMARK  9 active torsions:
REMARK  status: ('A' for Active; 'I' for Inactive)
REMARK    1  A    between atoms: C_1  and  C_2
REMARK    2  A    between atoms: N_6  and  C_7
REMARK    3  A    between atoms: C_7  and  C_8
REMARK    4  A    between atoms: C_7  and  C_9
REMARK    5  A    between atoms: C_9  and  C_10
REMARK    6  A    between atoms: N_12  and  C_13
REMARK    7  A    between atoms: C_13  and  C_14
REMARK    8  A    between atoms: C_14  and  C_15
REMARK    9  A    between atoms: N_18  and  C_19
REMARK                            x       y       z     vdW  Elec       q    Type
REMARK                         _______ _______ _______ _____ _____    ______ ____
ROOT
ATOM      1  C   UNL     1       3.402   7.040  17.769  0.00  0.00    +0.000 C 
ATOM      2  O   UNL     1       4.239   7.495  16.997  0.00  0.00    +0.000 OA
ATOM      3  N   UNL     1       2.360   7.770  18.271  0.00  0.00    +0.000 N 
ATOM      4  H   UNL     1       1.725   7.352  18.945  0.00  0.00    +0.000 HD
ENDROOT
BRANCH   1   5
ATOM      5  C   UNL     1       3.449   5.605  18.256  0.00  0.00    +0.000 C 
BRANCH   5   6
ATOM      6  C   UNL     1       4.064   4.607  17.256  0.00  0.00    +0.000 C 
ATOM      7  C   UNL     1       3.417   3.220  17.408  0.00  0.00    +0.000 C 
BRANCH   6  13
ATOM      8  C   UNL     1       6.001   4.026  14.830  0.00  0.00    +0.000 C 
ATOM      9  C   UNL     1       6.396   4.351  16.224  0.00  0.00    +0.000 A 
ATOM     10  N   UNL     1       7.647   4.488  16.617  0.00  0.00    +0.000 NA
ATOM     11  C   UNL     1       7.602   4.730  17.957  0.00  0.00    +0.000 A 
ATOM     12  C   UNL     1       6.306   4.769  18.396  0.00  0.00    +0.000 A 
ATOM     13  N   UNL     1       5.527   4.553  17.285  0.00  0.00    +0.000 N 
ENDBRANCH   6  13
ENDBRANCH   5   6
ENDBRANCH   1   5
BRANCH   3  14
ATOM     14  C   UNL     1       2.107   9.141  17.893  0.00  0.00    +0.000 C 
BRANCH  14  15
ATOM     15  C   UNL     1       0.691   9.597  18.264  0.00  0.00    +0.000 C 
BRANCH  15  16
ATOM     16  C   UNL     1       0.550  10.032  19.685  0.00  0.00    +0.000 A 
ATOM     17  C   UNL     1       1.052  11.209  20.289  0.00  0.00    +0.000 A 
ATOM     18  N   UNL     1       0.768  11.282  21.592  0.00  0.00    +0.000 NA
ATOM     19  N   UNL     1       0.076  10.155  21.829  0.00  0.00    +0.000 N 
ATOM     20  C   UNL     1      -0.424   9.873  23.151  0.00  0.00    +0.000 C 
ATOM     21  C   UNL     1      -0.076   9.373  20.722  0.00  0.00    +0.000 A 
ENDBRANCH  15  16
ENDBRANCH  14  15
ENDBRANCH   3  14
TORSDOF 6
ENDMDL
MODEL 3
REMARK VINA RESULT:      -6.2      2.179      6.173
REMARK  Name = 
REMARK  9 active torsions:
REMARK  status: ('A' for Active; 'I' for Inactive)
REMARK    1  A    between atoms: C_1  and  C_2
REMARK    2  A    between atoms: N_6  and  C_7
REMARK    3  A    between atoms: C_7  and  C_8
REMARK    4  A    between atoms: C_7  and  C_9
REMARK    5  A    between atoms: C_9  and  C_10
REMARK    6  A    between atoms: N_12  and  C_13
REMARK    7  A    between atoms: C_13  and  C_14
REMARK    8  A    between atoms: C_14  and  C_15
REMARK    9  A    between atoms: N_18  and  C_19
REMARK                            x       y       z     vdW  Elec       q    Type
REMARK                         _______ _______ _______ _____ _____    ______ ____
ROOT
ATOM      1  C   UNL     1       2.942   6.720  18.776  0.00  0.00    +0.000 C 
ATOM      2  O   UNL     1       1.995   7.340  18.304  0.00  0.00    +0.000 OA
ATOM      3  N   UNL     1       2.875   6.010  19.943  0.00  0.00    +0.000 N 
ATOM      4  H   UNL     1       3.706   5.556  20.310  0.00  0.00    +0.000 HD
ENDROOT
BRANCH   1   5
ATOM      5  C   UNL     1       4.302   6.692  18.106  0.00  0.00    +0.000 C 
BRANCH   5   6
ATOM      6  C   UNL     1       4.899   5.283  17.924  0.00  0.00    +0.000 C 
ATOM      7  C   UNL     1       5.610   4.826  19.208  0.00  0.00    +0.000 C 
BRANCH   6  13
ATOM      8  C   UNL     1       7.529   6.891  17.235  0.00  0.00    +0.000 C 
ATOM      9  C   UNL     1       6.922   5.797  16.435  0.00  0.00    +0.000 A 
ATOM     10  N   UNL     1       7.454   5.317  15.329  0.00  0.00    +0.000 NA
ATOM     11  C   UNL     1       6.587   4.373  14.866  0.00  0.00    +0.000 A 
ATOM     12  C   UNL     1       5.517   4.248  15.710  0.00  0.00    +0.000 A 
ATOM     13  N   UNL     1       5.738   5.138  16.732  0.00  0.00    +0.000 N 
ENDBRANCH   6  13
ENDBRANCH   5   6
ENDBRANCH   1   5
BRANCH   3  14
ATOM     14  C   UNL     1       1.657   5.870  20.708  0.00  0.00    +0.000 C 
BRANCH  14  15
ATOM     15  C   UNL     1       0.908   4.572  20.381  0.00  0.00    +0.000 C 
BRANCH  15  16
ATOM     16  C   UNL     1       1.634   3.681  19.428  0.00  0.00    +0.000 A 
ATOM     17  C   UNL     1       1.458   3.576  18.028  0.00  0.00    +0.000 A 
ATOM     18  N   UNL     1       2.256   2.658  17.474  0.00  0.00    +0.000 NA
ATOM     19  N   UNL     1       2.952   2.174  18.517  0.00  0.00    +0.000 N 
ATOM     20  C   UNL     1       3.943   1.147  18.315  0.00  0.00    +0.000 C 
ATOM     21  C   UNL     1       2.612   2.749  19.706  0.00  0.00    +0.000 A 
ENDBRANCH  15  16
ENDBRANCH  14  15
ENDBRANCH   3  14
TORSDOF 6
ENDMDL
MODEL 4
REMARK VINA RESULT:      -6.1      4.496      6.421
REMARK  Name = 
REMARK  9 active torsions:
REMARK  status: ('A' for Active; 'I' for Inactive)
REMARK    1  A    between atoms: C_1  and  C_2
REMARK    2  A    between atoms: N_6  and  C_7
REMARK    3  A    between atoms: C_7  and  C_8
REMARK    4  A    between atoms: C_7  and  C_9
REMARK    5  A    between atoms: C_9  and  C_10
REMARK    6  A    between atoms: N_12  and  C_13
REMARK    7  A    between atoms: C_13  and  C_14
REMARK    8  A    between atoms: C_14  and  C_15
REMARK    9  A    between atoms: N_18  and  C_19
REMARK                            x       y       z     vdW  Elec       q    Type
REMARK                         _______ _______ _______ _____ _____    ______ ____
ROOT
ATOM      1  C   UNL     1       6.947   5.667  18.682  0.00  0.00    +0.000 C 
ATOM      2  O   UNL     1       7.051   5.549  19.899  0.00  0.00    +0.000 OA
ATOM      3  N   UNL     1       7.507   6.691  17.971  0.00  0.00    +0.000 N 
ATOM      4  H   UNL     1       7.347   6.764  16.971  0.00  0.00    +0.000 HD
ENDROOT
BRANCH   1   5
ATOM      5  C   UNL     1       6.165   4.678  17.841  0.00  0.00    +0.000 C 
BRANCH   5   6
ATOM      6  C   UNL     1       4.746   4.375  18.357  0.00  0.00    +0.000 C 
ATOM      7  C   UNL     1       4.131   3.192  17.589  0.00  0.00    +0.000 C 
BRANCH   6  13
ATOM      8  C   UNL     1       2.478   4.975  20.472  0.00  0.00    +0.000 C 
ATOM      9  C   UNL     1       2.896   5.848  19.345  0.00  0.00    +0.000 A 
ATOM     10  N   UNL     1       2.385   7.041  19.116  0.00  0.00    +0.000 NA
ATOM     11  C   UNL     1       2.980   7.500  17.979  0.00  0.00    +0.000 A 
ATOM     12  C   UNL     1       3.891   6.591  17.513  0.00  0.00    +0.000 A 
ATOM     13  N   UNL     1       3.862   5.541  18.399  0.00  0.00    +0.000 N 
ENDBRANCH   6  13
ENDBRANCH   5   6
ENDBRANCH   1   5
BRANCH   3  14
ATOM     14  C   UNL     1       8.333   7.711  18.579  0.00  0.00    +0.000 C 
BRANCH  14  15
ATOM     15  C   UNL     1       8.096   9.096  17.965  0.00  0.00    +0.000 C 
BRANCH  15  16
ATOM     16  C   UNL     1       9.002  10.155  18.498  0.00  0.00    +0.000 A 
ATOM     17  C   UNL     1       9.877  10.998  17.772  0.00  0.00    +0.000 A 
ATOM     18  N   UNL     1      10.570  11.825  18.560  0.00  0.00    +0.000 NA
ATOM     19  N   UNL     1      10.137  11.521  19.795  0.00  0.00    +0.000 N 
ATOM     20  C   UNL     1      10.658  12.224  20.941  0.00  0.00    +0.000 C 
ATOM     21  C   UNL     1       9.205  10.525  19.810  0.00  0.00    +0.000 A 
ENDBRANCH  15  16
ENDBRANCH  14  15
ENDBRANCH   3  14
TORSDOF 6
ENDMDL
MODEL 5
REMARK VINA RESULT:      -6.0      5.341      6.982
REMARK  Name = 
REMARK  9 active torsions:
REMARK  status: ('A' for Active; 'I' for Inactive)
REMARK    1  A    between atoms: C_1  and  C_2
REMARK    2  A    between atoms: N_6  and  C_7
REMARK    3  A    between atoms: C_7  and  C_8
REMARK    4  A    between atoms: C_7  and  C_9
REMARK    5  A    between atoms: C_9  and  C_10
REMARK    6  A    between atoms: N_12  and  C_13
REMARK    7  A    between atoms: C_13  and  C_14
REMARK    8  A    between atoms: C_14  and  C_15
REMARK    9  A    between atoms: N_18  and  C_19
REMARK                            x       y       z     vdW  Elec       q    Type
REMARK                         _______ _______ _______ _____ _____    ______ ____
ROOT
ATOM      1  C   UNL     1       7.569   6.994  17.761  0.00  0.00    +0.000 C 
ATOM      2  O   UNL     1       7.905   6.451  18.808  0.00  0.00    +0.000 OA
ATOM      3  N   UNL     1       7.802   8.312  17.484  0.00  0.00    +0.000 N 
ATOM      4  H   UNL     1       7.458   8.719  16.619  0.00  0.00    +0.000 HD
ENDROOT
BRANCH   1   5
ATOM      5  C   UNL     1       6.842   6.245  16.662  0.00  0.00    +0.000 C 
BRANCH   5   6
ATOM      6  C   UNL     1       6.017   5.036  17.144  0.00  0.00    +0.000 C 
ATOM      7  C   UNL     1       5.798   4.037  15.996  0.00  0.00    +0.000 C 
BRANCH   6  13
ATOM      8  C   UNL     1       4.573   3.432  19.449  0.00  0.00    +0.000 C 
ATOM      9  C   UNL     1       4.149   4.733  18.872  0.00  0.00    +0.000 A 
ATOM     10  N   UNL     1       3.109   5.420  19.302  0.00  0.00    +0.000 NA
ATOM     11  C   UNL     1       3.016   6.516  18.498  0.00  0.00    +0.000 A 
ATOM     12  C   UNL     1       4.026   6.521  17.574  0.00  0.00    +0.000 A 
ATOM     13  N   UNL     1       4.772   5.395  17.825  0.00  0.00    +0.000 N 
ENDBRANCH   6  13
ENDBRANCH   5   6
ENDBRANCH   1   5
BRANCH   3  14
ATOM     14  C   UNL     1       8.525   9.188  18.378  0.00  0.00    +0.000 C 
BRANCH  14  15
ATOM     15  C   UNL     1       8.553  10.638  17.879  0.00  0.00    +0.000 C 
BRANCH  15  16
ATOM     16  C   UNL     1       9.765  11.399  18.304  0.00  0.00    +0.000 A 
ATOM     17  C   UNL     1      10.570  11.185  19.448  0.00  0.00    +0.000 A 
ATOM     18  N   UNL     1      11.571  12.065  19.547  0.00  0.00    +0.000 NA
ATOM     19  N   UNL     1      11.416  12.843  18.461  0.00  0.00    +0.000 N 
ATOM     20  C   UNL     1      12.332  13.927  18.208  0.00  0.00    +0.000 C 
ATOM     21  C   UNL     1      10.348  12.488  17.692  0.00  0.00    +0.000 A 
ENDBRANCH  15  16
ENDBRANCH  14  15
ENDBRANCH   3  14
TORSDOF 6
ENDMDL
MODEL 6
REMARK VINA RESULT:      -6.0      4.080      7.743
REMARK  Name = 
REMARK  9 active torsions:
REMARK  status: ('A' for Active; 'I' for Inactive)
REMARK    1  A    between atoms: C_1  and  C_2
REMARK    2  A    between atoms: N_6  and  C_7
REMARK    3  A    between atoms: C_7  and  C_8
REMARK    4  A    between atoms: C_7  and  C_9
REMARK    5  A    between atoms: C_9  and  C_10
REMARK    6  A    between atoms: N_12  and  C_13
REMARK    7  A    between atoms: C_13  and  C_14
REMARK    8  A    between atoms: C_14  and  C_15
REMARK    9  A    between atoms: N_18  and  C_19
REMARK                            x       y       z     vdW  Elec       q    Type
REMARK                         _______ _______ _______ _____ _____    ______ ____
ROOT
ATOM      1  C   UNL     1       2.655   7.320  18.408  0.00  0.00    +0.000 C 
ATOM      2  O   UNL     1       2.447   7.379  19.615  0.00  0.00    +0.000 OA
ATOM      3  N   UNL     1       2.492   8.380  17.560  0.00  0.00    +0.000 N 
ATOM      4  H   UNL     1       2.633   8.259  16.562  0.00  0.00    +0.000 HD
ENDROOT
BRANCH   1   5
ATOM      5  C   UNL     1       3.110   6.043  17.730  0.00  0.00    +0.000 C 
BRANCH   5   6
ATOM      6  C   UNL     1       3.561   4.928  18.693  0.00  0.00    +0.000 C 
ATOM      7  C   UNL     1       4.899   4.324  18.234  0.00  0.00    +0.000 C 
BRANCH   6  13
ATOM      8  C   UNL     1       2.169   4.279  21.452  0.00  0.00    +0.000 C 
ATOM      9  C   UNL     1       1.882   3.644  20.141  0.00  0.00    +0.000 A 
ATOM     10  N   UNL     1       0.944   2.735  19.958  0.00  0.00    +0.000 NA
ATOM     11  C   UNL     1       1.024   2.362  18.649  0.00  0.00    +0.000 A 
ATOM     12  C   UNL     1       2.005   3.068  18.007  0.00  0.00    +0.000 A 
ATOM     13  N   UNL     1       2.541   3.910  18.951  0.00  0.00    +0.000 N 
ENDBRANCH   6  13
ENDBRANCH   5   6
ENDBRANCH   1   5
BRANCH   3  14
ATOM     14  C   UNL     1       2.114   9.699  18.014  0.00  0.00    +0.000 C 
BRANCH  14  15
ATOM     15  C   UNL     1       0.629   9.783  18.391  0.00  0.00    +0.000 C 
BRANCH  15  16
ATOM     16  C   UNL     1       0.386  10.279  19.778  0.00  0.00    +0.000 A 
ATOM     17  C   UNL     1       0.865  11.470  20.373  0.00  0.00    +0.000 A 
ATOM     18  N   UNL     1       0.481  11.603  21.645  0.00  0.00    +0.000 NA
ATOM     19  N   UNL     1      -0.253  10.500  21.871  0.00  0.00    +0.000 N 
ATOM     20  C   UNL     1      -0.861  10.282  23.159  0.00  0.00    +0.000 C 
ATOM     21  C   UNL     1      -0.334   9.675  20.788  0.00  0.00    +0.000 A 
ENDBRANCH  15  16
ENDBRANCH  14  15
ENDBRANCH   3  14
TORSDOF 6
ENDMDL
MODEL 7
REMARK VINA RESULT:      -6.0      1.711      2.102
REMARK  Name = 
REMARK  9 active torsions:
REMARK  status: ('A' for Active; 'I' for Inactive)
REMARK    1  A    between atoms: C_1  and  C_2
REMARK    2  A    between atoms: N_6  and  C_7
REMARK    3  A    between atoms: C_7  and  C_8
REMARK    4  A    between atoms: C_7  and  C_9
REMARK    5  A    between atoms: C_9  and  C_10
REMARK    6  A    between atoms: N_12  and  C_13
REMARK    7  A    between atoms: C_13  and  C_14
REMARK    8  A    between atoms: C_14  and  C_15
REMARK    9  A    between atoms: N_18  and  C_19
REMARK                            x       y       z     vdW  Elec       q    Type
REMARK                         _______ _______ _______ _____ _____    ______ ____
ROOT
ATOM      1  C   UNL     1       3.995   5.677  17.697  0.00  0.00    +0.000 C 
ATOM      2  O   UNL     1       4.278   6.615  16.960  0.00  0.00    +0.000 OA
ATOM      3  N   UNL     1       4.905   5.043  18.497  0.00  0.00    +0.000 N 
ATOM      4  H   UNL     1       4.622   4.240  19.051  0.00  0.00    +0.000 HD
ENDROOT
BRANCH   1   5
ATOM      5  C   UNL     1       2.589   5.116  17.785  0.00  0.00    +0.000 C 
BRANCH   5   6
ATOM      6  C   UNL     1       1.841   5.456  19.088  0.00  0.00    +0.000 C 
ATOM      7  C   UNL     1       2.356   6.779  19.680  0.00  0.00    +0.000 C 
BRANCH   6  13
ATOM      8  C   UNL     1       0.545   2.596  18.744  0.00  0.00    +0.000 C 
ATOM      9  C   UNL     1       1.306   3.091  19.920  0.00  0.00    +0.000 A 
ATOM     10  N   UNL     1       1.581   2.353  20.977  0.00  0.00    +0.000 NA
ATOM     11  C   UNL     1       2.238   3.166  21.850  0.00  0.00    +0.000 A 
ATOM     12  C   UNL     1       2.395   4.417  21.318  0.00  0.00    +0.000 A 
ATOM     13  N   UNL     1       1.824   4.368  20.069  0.00  0.00    +0.000 N 
ENDBRANCH   6  13
ENDBRANCH   5   6
ENDBRANCH   1   5
BRANCH   3  14
ATOM     14  C   UNL     1       6.286   5.457  18.598  0.00  0.00    +0.000 C 
BRANCH  14  15
ATOM     15  C   UNL     1       7.229   4.536  17.814  0.00  0.00    +0.000 C 
BRANCH  15  16
ATOM     16  C   UNL     1       7.040   4.596  16.335  0.00  0.00    +0.000 A 
ATOM     17  C   UNL     1       7.450   5.618  15.446  0.00  0.00    +0.000 A 
ATOM     18  N   UNL     1       7.101   5.371  14.180  0.00  0.00    +0.000 NA
ATOM     19  N   UNL     1       6.472   4.186  14.250  0.00  0.00    +0.000 N 
ATOM     20  C   UNL     1       5.947   3.570  13.058  0.00  0.00    +0.000 C 
ATOM     21  C   UNL     1       6.405   3.685  15.517  0.00  0.00    +0.000 A 
ENDBRANCH  15  16
ENDBRANCH  14  15
ENDBRANCH   3  14
TORSDOF 6
ENDMDL
MODEL 8
REMARK VINA RESULT:      -6.0      1.184      6.599
REMARK  Name = 
REMARK  9 active torsions:
REMARK  status: ('A' for Active; 'I' for Inactive)
REMARK    1  A    between atoms: C_1  and  C_2
REMARK    2  A    between atoms: N_6  and  C_7
REMARK    3  A    between atoms: C_7  and  C_8
REMARK    4  A    between atoms: C_7  and  C_9
REMARK    5  A    between atoms: C_9  and  C_10
REMARK    6  A    between atoms: N_12  and  C_13
REMARK    7  A    between atoms: C_13  and  C_14
REMARK    8  A    between atoms: C_14  and  C_15
REMARK    9  A    between atoms: N_18  and  C_19
REMARK                            x       y       z     vdW  Elec       q    Type
REMARK                         _______ _______ _______ _____ _____    ______ ____
ROOT
ATOM      1  C   UNL     1       7.057   4.938  17.689  0.00  0.00    +0.000 C 
ATOM      2  O   UNL     1       7.656   5.862  18.229  0.00  0.00    +0.000 OA
ATOM      3  N   UNL     1       6.060   4.227  18.296  0.00  0.00    +0.000 N 
ATOM      4  H   UNL     1       5.633   3.440  17.816  0.00  0.00    +0.000 HD
ENDROOT
BRANCH   1   5
ATOM      5  C   UNL     1       7.379   4.484  16.279  0.00  0.00    +0.000 C 
BRANCH   5   6
ATOM      6  C   UNL     1       6.750   5.344  15.166  0.00  0.00    +0.000 C 
ATOM      7  C   UNL     1       5.390   5.903  15.617  0.00  0.00    +0.000 C 
BRANCH   6  13
ATOM      8  C   UNL     1       8.568   5.906  12.646  0.00  0.00    +0.000 C 
ATOM      9  C   UNL     1       7.504   4.877  12.761  0.00  0.00    +0.000 A 
ATOM     10  N   UNL     1       7.214   4.014  11.808  0.00  0.00    +0.000 NA
ATOM     11  C   UNL     1       6.161   3.280  12.264  0.00  0.00    +0.000 A 
ATOM     12  C   UNL     1       5.809   3.676  13.527  0.00  0.00    +0.000 A 
ATOM     13  N   UNL     1       6.683   4.681  13.862  0.00  0.00    +0.000 N 
ENDBRANCH   6  13
ENDBRANCH   5   6
ENDBRANCH   1   5
BRANCH   3  14
ATOM     14  C   UNL     1       5.569   4.534  19.620  0.00  0.00    +0.000 C 
BRANCH  14  15
ATOM     15  C   UNL     1       4.281   5.367  19.586  0.00  0.00    +0.000 C 
BRANCH  15  16
ATOM     16  C   UNL     1       3.108   4.641  19.017  0.00  0.00    +0.000 A 
ATOM     17  C   UNL     1       2.349   4.977  17.870  0.00  0.00    +0.000 A 
ATOM     18  N   UNL     1       1.343   4.126  17.650  0.00  0.00    +0.000 NA
ATOM     19  N   UNL     1       1.456   3.236  18.651  0.00  0.00    +0.000 N 
ATOM     20  C   UNL     1       0.533   2.134  18.751  0.00  0.00    +0.000 C 
ATOM     21  C   UNL     1       2.491   3.505  19.497  0.00  0.00    +0.000 A 
ENDBRANCH  15  16
ENDBRANCH  14  15
ENDBRANCH   3  14
TORSDOF 6
ENDMDL
MODEL 9
REMARK VINA RESULT:      -6.0      3.617      5.220
REMARK  Name = 
REMARK  9 active torsions:
REMARK  status: ('A' for Active; 'I' for Inactive)
REMARK    1  A    between atoms: C_1  and  C_2
REMARK    2  A    between atoms: N_6  and  C_7
REMARK    3  A    between atoms: C_7  and  C_8
REMARK    4  A    between atoms: C_7  and  C_9
REMARK    5  A    between atoms: C_9  and  C_10
REMARK    6  A    between atoms: N_12  and  C_13
REMARK    7  A    between atoms: C_13  and  C_14
REMARK    8  A    between atoms: C_14  and  C_15
REMARK    9  A    between atoms: N_18  and  C_19
REMARK                            x       y       z     vdW  Elec       q    Type
REMARK                         _______ _______ _______ _____ _____    ______ ____
ROOT
ATOM      1  C   UNL     1       1.794   5.920  20.627  0.00  0.00    +0.000 C 
ATOM      2  O   UNL     1       1.559   4.738  20.854  0.00  0.00    +0.000 OA
ATOM      3  N   UNL     1       2.916   6.357  19.981  0.00  0.00    +0.000 N 
ATOM      4  H   UNL     1       3.081   7.352  19.864  0.00  0.00    +0.000 HD
ENDROOT
BRANCH   1   5
ATOM      5  C   UNL     1       0.851   7.026  21.058  0.00  0.00    +0.000 C 
BRANCH   5   6
ATOM      6  C   UNL     1       1.418   8.450  20.905  0.00  0.00    +0.000 C 
ATOM      7  C   UNL     1       1.562   9.126  22.279  0.00  0.00    +0.000 C 
BRANCH   6  13
ATOM      8  C   UNL     1       2.138   8.900  17.863  0.00  0.00    +0.000 C 
ATOM      9  C   UNL     1       0.966   9.453  18.590  0.00  0.00    +0.000 A 
ATOM     10  N   UNL     1       0.028  10.183  18.019  0.00  0.00    +0.000 NA
ATOM     11  C   UNL     1      -0.835  10.539  19.011  0.00  0.00    +0.000 A 
ATOM     12  C   UNL     1      -0.442  10.002  20.207  0.00  0.00    +0.000 A 
ATOM     13  N   UNL     1       0.697   9.282  19.939  0.00  0.00    +0.000 N 
ENDBRANCH   6  13
ENDBRANCH   5   6
ENDBRANCH   1   5
BRANCH   3  14
ATOM     14  C   UNL     1       3.915   5.460  19.446  0.00  0.00    +0.000 C 
BRANCH  14  15
ATOM     15  C   UNL     1       3.509   4.879  18.086  0.00  0.00    +0.000 C 
BRANCH  15  16
ATOM     16  C   UNL     1       4.463   5.200  16.983  0.00  0.00    +0.000 A 
ATOM     17  C   UNL     1       4.923   6.475  16.574  0.00  0.00    +0.000 A 
ATOM     18  N   UNL     1       5.758   6.413  15.532  0.00  0.00    +0.000 NA
ATOM     19  N   UNL     1       5.842   5.096  15.274  0.00  0.00    +0.000 N 
ATOM     20  C   UNL     1       6.677   4.619  14.199  0.00  0.00    +0.000 C 
ATOM     21  C   UNL     1       5.083   4.332  16.109  0.00  0.00    +0.000 A 
ENDBRANCH  15  16
ENDBRANCH  14  15
ENDBRANCH   3  14
TORSDOF 6
ENDMDL
