MODEL 1
REMARK VINA RESULT:      -8.3      0.000      0.000
REMARK  Name = 
REMARK  6 active torsions:
REMARK  status: ('A' for Active; 'I' for Inactive)
REMARK    1  A    between atoms: C_1  and  O_2
REMARK    2  A    between atoms: O_2  and  C_3
REMARK    3  A    between atoms: C_5  and  C_6
REMARK    4  A    between atoms: C_13  and  S_14
REMARK    5  A    between atoms: S_14  and  N_17
REMARK    6  A    between atoms: N_20  and  C_21
REMARK                            x       y       z     vdW  Elec       q    Type
REMARK                         _______ _______ _______ _____ _____    ______ ____
ROOT
ATOM      1  S   UNL     1       4.151   3.570  19.274  0.00  0.00    +0.000 S 
ATOM      2  O   UNL     1       3.814   2.156  19.277  0.00  0.00    +0.000 OA
ATOM      3  O   UNL     1       4.887   4.148  20.384  0.00  0.00    +0.000 OA
ENDROOT
BRANCH   1   9
ATOM      4  C   UNL     1       6.403   4.405  17.858  0.00  0.00    +0.000 A 
ATOM      5  C   UNL     1       7.108   4.658  16.659  0.00  0.00    +0.000 A 
ATOM      6  C   UNL     1       6.478   4.466  15.400  0.00  0.00    +0.000 A 
ATOM      7  C   UNL     1       5.170   3.943  15.378  0.00  0.00    +0.000 A 
ATOM      8  C   UNL     1       4.482   3.663  16.553  0.00  0.00    +0.000 A 
ATOM      9  C   UNL     1       5.084   3.915  17.784  0.00  0.00    +0.000 A 
BRANCH   6  10
ATOM     10  C   UNL     1       7.080   4.840  14.099  0.00  0.00    +0.000 A 
ATOM     11  C   UNL     1       6.895   4.544  12.753  0.00  0.00    +0.000 A 
ATOM     12  C   UNL     1       7.927   5.204  12.081  0.00  0.00    +0.000 A 
ATOM     13  N   UNL     1       8.698   5.902  12.909  0.00  0.00    +0.000 NA
ATOM     14  O   UNL     1       8.171   5.680  14.171  0.00  0.00    +0.000 OA
ENDBRANCH   6  10
BRANCH   4  16
ATOM     15  C   UNL     1       7.756   5.723  19.449  0.00  0.00    +0.000 C 
ATOM     16  O   UNL     1       6.779   4.761  19.116  0.00  0.00    +0.000 OA
ENDBRANCH   4  16
ENDBRANCH   1   9
BRANCH   1  17
ATOM     17  N   UNL     1       2.702   4.407  19.067  0.00  0.00    +0.000 NA
ATOM     18  C   UNL     1       1.790   4.548  20.232  0.00  0.00    +0.000 C 
ATOM     19  C   UNL     1       1.901   5.904  20.961  0.00  0.00    +0.000 C 
ATOM     20  N   UNL     1       1.843   7.041  20.016  0.00  0.00    +0.000 N 
ATOM     21  C   UNL     1       2.823   6.950  18.919  0.00  0.00    +0.000 C 
ATOM     22  C   UNL     1       2.710   5.599  18.172  0.00  0.00    +0.000 C 
BRANCH  20  23
ATOM     23  C   UNL     1       1.373   8.284  20.453  0.00  0.00    +0.000 A 
ATOM     24  C   UNL     1       1.040   8.549  21.799  0.00  0.00    +0.000 A 
ATOM     25  C   UNL     1       0.388   9.726  22.199  0.00  0.00    +0.000 A 
ATOM     26  C   UNL     1       0.060  10.695  21.258  0.00  0.00    +0.000 A 
ATOM     27  C   UNL     1       0.428  10.490  19.939  0.00  0.00    +0.000 A 
ATOM     28 CL   UNL     1       0.024  11.678  18.754  0.00  0.00    +0.000 Cl
ATOM     29  C   UNL     1       1.086   9.317  19.545  0.00  0.00    +0.000 A 
ENDBRANCH  20  23
ENDBRANCH   1  17
TORSDOF 5
ENDMDL
MODEL 2
REMARK VINA RESULT:      -8.2      5.611     11.162
REMARK  Name = 
REMARK  6 active torsions:
REMARK  status: ('A' for Active; 'I' for Inactive)
REMARK    1  A    between atoms: C_1  and  O_2
REMARK    2  A    between atoms: O_2  and  C_3
REMARK    3  A    between atoms: C_5  and  C_6
REMARK    4  A    between atoms: C_13  and  S_14
REMARK    5  A    between atoms: S_14  and  N_17
REMARK    6  A    between atoms: N_20  and  C_21
REMARK                            x       y       z     vdW  Elec       q    Type
REMARK                         _______ _______ _______ _____ _____    ______ ____
ROOT
ATOM      1  S   UNL     1       0.675  11.568  20.283  0.00  0.00    +0.000 S 
ATOM      2  O   UNL     1       0.905  12.476  19.171  0.00  0.00    +0.000 OA
ATOM      3  O   UNL     1       1.683  11.406  21.315  0.00  0.00    +0.000 OA
ENDROOT
BRANCH   1   9
ATOM      4  C   UNL     1      -1.062  11.757  22.455  0.00  0.00    +0.000 A 
ATOM      5  C   UNL     1      -2.270  12.169  23.063  0.00  0.00    +0.000 A 
ATOM      6  C   UNL     1      -3.267  12.836  22.301  0.00  0.00    +0.000 A 
ATOM      7  C   UNL     1      -2.987  13.144  20.955  0.00  0.00    +0.000 A 
ATOM      8  C   UNL     1      -1.789  12.769  20.360  0.00  0.00    +0.000 A 
ATOM      9  C   UNL     1      -0.842  12.060  21.096  0.00  0.00    +0.000 A 
BRANCH   6  10
ATOM     10  C   UNL     1      -4.617  13.175  22.807  0.00  0.00    +0.000 A 
ATOM     11  C   UNL     1      -5.462  14.279  22.837  0.00  0.00    +0.000 A 
ATOM     12  C   UNL     1      -6.567  13.884  23.593  0.00  0.00    +0.000 A 
ATOM     13  N   UNL     1      -6.474  12.619  23.993  0.00  0.00    +0.000 NA
ATOM     14  O   UNL     1      -5.258  12.171  23.502  0.00  0.00    +0.000 OA
ENDBRANCH   6  10
BRANCH   4  16
ATOM     15  C   UNL     1      -0.373   9.621  23.487  0.00  0.00    +0.000 C 
ATOM     16  O   UNL     1      -0.130  10.916  22.979  0.00  0.00    +0.000 OA
ENDBRANCH   4  16
ENDBRANCH   1   9
BRANCH   1  17
ATOM     17  N   UNL     1       0.322  10.064  19.607  0.00  0.00    +0.000 NA
ATOM     18  C   UNL     1       0.574   9.859  18.156  0.00  0.00    +0.000 C 
ATOM     19  C   UNL     1       1.903   9.141  17.841  0.00  0.00    +0.000 C 
ATOM     20  N   UNL     1       2.071   7.918  18.654  0.00  0.00    +0.000 N 
ATOM     21  C   UNL     1       1.926   8.144  20.103  0.00  0.00    +0.000 C 
ATOM     22  C   UNL     1       0.588   8.851  20.431  0.00  0.00    +0.000 C 
BRANCH  20  23
ATOM     23  C   UNL     1       2.857   6.865  18.171  0.00  0.00    +0.000 A 
ATOM     24  C   UNL     1       4.089   7.066  17.512  0.00  0.00    +0.000 A 
ATOM     25  C   UNL     1       4.776   6.030  16.859  0.00  0.00    +0.000 A 
ATOM     26  C   UNL     1       4.254   4.741  16.859  0.00  0.00    +0.000 A 
ATOM     27  C   UNL     1       3.078   4.501  17.549  0.00  0.00    +0.000 A 
ATOM     28 CL   UNL     1       2.411   2.909  17.555  0.00  0.00    +0.000 Cl
ATOM     29  C   UNL     1       2.399   5.537  18.206  0.00  0.00    +0.000 A 
ENDBRANCH  20  23
ENDBRANCH   1  17
TORSDOF 5
ENDMDL
MODEL 3
REMARK VINA RESULT:      -8.1      1.210      1.812
REMARK  Name = 
REMARK  6 active torsions:
REMARK  status: ('A' for Active; 'I' for Inactive)
REMARK    1  A    between atoms: C_1  and  O_2
REMARK    2  A    between atoms: O_2  and  C_3
REMARK    3  A    between atoms: C_5  and  C_6
REMARK    4  A    between atoms: C_13  and  S_14
REMARK    5  A    between atoms: S_14  and  N_17
REMARK    6  A    between atoms: N_20  and  C_21
REMARK                            x       y       z     vdW  Elec       q    Type
REMARK                         _______ _______ _______ _____ _____    ______ ____
ROOT
ATOM      1  S   UNL     1       3.408   3.851  19.045  0.00  0.00    +0.000 S 
ATOM      2  O   UNL     1       2.043   3.779  18.553  0.00  0.00    +0.000 OA
ATOM      3  O   UNL     1       3.957   2.766  19.838  0.00  0.00    +0.000 OA
ENDROOT
BRANCH   1   9
ATOM      4  C   UNL     1       5.883   4.229  17.820  0.00  0.00    +0.000 A 
ATOM      5  C   UNL     1       6.707   4.402  16.684  0.00  0.00    +0.000 A 
ATOM      6  C   UNL     1       6.136   4.472  15.385  0.00  0.00    +0.000 A 
ATOM      7  C   UNL     1       4.746   4.285  15.254  0.00  0.00    +0.000 A 
ATOM      8  C   UNL     1       3.934   4.085  16.364  0.00  0.00    +0.000 A 
ATOM      9  C   UNL     1       4.494   4.081  17.639  0.00  0.00    +0.000 A 
BRANCH   6  10
ATOM     10  C   UNL     1       6.895   4.795  14.155  0.00  0.00    +0.000 A 
ATOM     11  C   UNL     1       6.896   4.424  12.815  0.00  0.00    +0.000 A 
ATOM     12  C   UNL     1       7.993   5.078  12.247  0.00  0.00    +0.000 A 
ATOM     13  N   UNL     1       8.632   5.841  13.129  0.00  0.00    +0.000 NA
ATOM     14  O   UNL     1       7.948   5.670  14.322  0.00  0.00    +0.000 OA
ENDBRANCH   6  10
BRANCH   4  16
ATOM     15  C   UNL     1       7.170   5.322  19.623  0.00  0.00    +0.000 C 
ATOM     16  O   UNL     1       6.247   4.378  19.122  0.00  0.00    +0.000 OA
ENDBRANCH   4  16
ENDBRANCH   1   9
BRANCH   1  17
ATOM     17  N   UNL     1       3.529   5.292  19.911  0.00  0.00    +0.000 NA
ATOM     18  C   UNL     1       3.783   6.552  19.164  0.00  0.00    +0.000 C 
ATOM     19  C   UNL     1       2.517   7.392  18.894  0.00  0.00    +0.000 C 
ATOM     20  N   UNL     1       1.710   7.578  20.119  0.00  0.00    +0.000 N 
ATOM     21  C   UNL     1       1.370   6.316  20.802  0.00  0.00    +0.000 C 
ATOM     22  C   UNL     1       2.636   5.472  21.090  0.00  0.00    +0.000 C 
BRANCH  20  23
ATOM     23  C   UNL     1       0.888   8.703  20.246  0.00  0.00    +0.000 A 
ATOM     24  C   UNL     1       0.741   9.665  19.224  0.00  0.00    +0.000 A 
ATOM     25  C   UNL     1       0.075  10.885  19.424  0.00  0.00    +0.000 A 
ATOM     26  C   UNL     1      -0.486  11.177  20.662  0.00  0.00    +0.000 A 
ATOM     27  C   UNL     1      -0.411  10.226  21.666  0.00  0.00    +0.000 A 
ATOM     28 CL   UNL     1      -1.096  10.573  23.211  0.00  0.00    +0.000 Cl
ATOM     29  C   UNL     1       0.249   9.007  21.459  0.00  0.00    +0.000 A 
ENDBRANCH  20  23
ENDBRANCH   1  17
TORSDOF 5
ENDMDL
MODEL 4
REMARK VINA RESULT:      -8.1      5.591     11.115
REMARK  Name = 
REMARK  6 active torsions:
REMARK  status: ('A' for Active; 'I' for Inactive)
REMARK    1  A    between atoms: C_1  and  O_2
REMARK    2  A    between atoms: O_2  and  C_3
REMARK    3  A    between atoms: C_5  and  C_6
REMARK    4  A    between atoms: C_13  and  S_14
REMARK    5  A    between atoms: S_14  and  N_17
REMARK    6  A    between atoms: N_20  and  C_21
REMARK                            x       y       z     vdW  Elec       q    Type
REMARK                         _______ _______ _______ _____ _____    ______ ____
ROOT
ATOM      1  S   UNL     1       0.575  11.525  20.305  0.00  0.00    +0.000 S 
ATOM      2  O   UNL     1       0.793  12.477  19.228  0.00  0.00    +0.000 OA
ATOM      3  O   UNL     1       1.581  11.346  21.336  0.00  0.00    +0.000 OA
ENDROOT
BRANCH   1   9
ATOM      4  C   UNL     1      -1.158  11.640  22.485  0.00  0.00    +0.000 A 
ATOM      5  C   UNL     1      -2.377  12.005  23.100  0.00  0.00    +0.000 A 
ATOM      6  C   UNL     1      -3.401  12.641  22.346  0.00  0.00    +0.000 A 
ATOM      7  C   UNL     1      -3.137  12.967  21.001  0.00  0.00    +0.000 A 
ATOM      8  C   UNL     1      -1.929  12.638  20.399  0.00  0.00    +0.000 A 
ATOM      9  C   UNL     1      -0.955  11.958  21.127  0.00  0.00    +0.000 A 
BRANCH   6  10
ATOM     10  C   UNL     1      -4.760  12.929  22.860  0.00  0.00    +0.000 A 
ATOM     11  C   UNL     1      -5.360  13.806  23.758  0.00  0.00    +0.000 A 
ATOM     12  C   UNL     1      -6.702  13.421  23.815  0.00  0.00    +0.000 A 
ATOM     13  N   UNL     1      -6.967  12.405  22.998  0.00  0.00    +0.000 NA
ATOM     14  O   UNL     1      -5.757  12.096  22.397  0.00  0.00    +0.000 OA
ENDBRANCH   6  10
BRANCH   4  16
ATOM     15  C   UNL     1      -0.397   9.540  23.540  0.00  0.00    +0.000 C 
ATOM     16  O   UNL     1      -0.196  10.829  23.000  0.00  0.00    +0.000 OA
ENDBRANCH   4  16
ENDBRANCH   1   9
BRANCH   1  17
ATOM     17  N   UNL     1       0.255  10.040  19.573  0.00  0.00    +0.000 NA
ATOM     18  C   UNL     1       0.557   9.879  18.127  0.00  0.00    +0.000 C 
ATOM     19  C   UNL     1       1.900   9.178  17.836  0.00  0.00    +0.000 C 
ATOM     20  N   UNL     1       2.048   7.932  18.619  0.00  0.00    +0.000 N 
ATOM     21  C   UNL     1       1.852   8.114  20.068  0.00  0.00    +0.000 C 
ATOM     22  C   UNL     1       0.500   8.805  20.371  0.00  0.00    +0.000 C 
BRANCH  20  23
ATOM     23  C   UNL     1       2.856   6.898  18.132  0.00  0.00    +0.000 A 
ATOM     24  C   UNL     1       2.487   5.537  18.201  0.00  0.00    +0.000 A 
ATOM     25  C   UNL     1       3.377   4.495  17.893  0.00  0.00    +0.000 A 
ATOM     26  C   UNL     1       4.674   4.786  17.485  0.00  0.00    +0.000 A 
ATOM     27  C   UNL     1       5.046   6.113  17.349  0.00  0.00    +0.000 A 
ATOM     28 CL   UNL     1       6.654   6.493  16.850  0.00  0.00    +0.000 Cl
ATOM     29  C   UNL     1       4.152   7.149  17.651  0.00  0.00    +0.000 A 
ENDBRANCH  20  23
ENDBRANCH   1  17
TORSDOF 5
ENDMDL
MODEL 5
REMARK VINA RESULT:      -8.1      0.960      1.292
REMARK  Name = 
REMARK  6 active torsions:
REMARK  status: ('A' for Active; 'I' for Inactive)
REMARK    1  A    between atoms: C_1  and  O_2
REMARK    2  A    between atoms: O_2  and  C_3
REMARK    3  A    between atoms: C_5  and  C_6
REMARK    4  A    between atoms: C_13  and  S_14
REMARK    5  A    between atoms: S_14  and  N_17
REMARK    6  A    between atoms: N_20  and  C_21
REMARK                            x       y       z     vdW  Elec       q    Type
REMARK                         _______ _______ _______ _____ _____    ______ ____
ROOT
ATOM      1  S   UNL     1       4.253   3.516  19.334  0.00  0.00    +0.000 S 
ATOM      2  O   UNL     1       4.015   2.083  19.392  0.00  0.00    +0.000 OA
ATOM      3  O   UNL     1       4.949   4.186  20.417  0.00  0.00    +0.000 OA
ENDROOT
BRANCH   1   9
ATOM      4  C   UNL     1       6.459   4.399  17.876  0.00  0.00    +0.000 A 
ATOM      5  C   UNL     1       7.140   4.657  16.664  0.00  0.00    +0.000 A 
ATOM      6  C   UNL     1       6.499   4.429  15.417  0.00  0.00    +0.000 A 
ATOM      7  C   UNL     1       5.207   3.867  15.420  0.00  0.00    +0.000 A 
ATOM      8  C   UNL     1       4.544   3.582  16.608  0.00  0.00    +0.000 A 
ATOM      9  C   UNL     1       5.154   3.868  17.827  0.00  0.00    +0.000 A 
BRANCH   6  10
ATOM     10  C   UNL     1       7.072   4.803  14.103  0.00  0.00    +0.000 A 
ATOM     11  C   UNL     1       6.878   4.483  12.763  0.00  0.00    +0.000 A 
ATOM     12  C   UNL     1       7.880   5.165  12.068  0.00  0.00    +0.000 A 
ATOM     13  N   UNL     1       8.640   5.899  12.877  0.00  0.00    +0.000 NA
ATOM     14  O   UNL     1       8.136   5.678  14.149  0.00  0.00    +0.000 OA
ENDBRANCH   6  10
BRANCH   4  16
ATOM     15  C   UNL     1       7.710   5.851  19.434  0.00  0.00    +0.000 C 
ATOM     16  O   UNL     1       6.840   4.783  19.124  0.00  0.00    +0.000 OA
ENDBRANCH   4  16
ENDBRANCH   1   9
BRANCH   1  17
ATOM     17  N   UNL     1       2.748   4.241  19.104  0.00  0.00    +0.000 NA
ATOM     18  C   UNL     1       1.871   4.451  20.286  0.00  0.00    +0.000 C 
ATOM     19  C   UNL     1       1.925   5.880  20.866  0.00  0.00    +0.000 C 
ATOM     20  N   UNL     1       1.762   6.906  19.812  0.00  0.00    +0.000 N 
ATOM     21  C   UNL     1       2.705   6.757  18.689  0.00  0.00    +0.000 C 
ATOM     22  C   UNL     1       2.649   5.331  18.091  0.00  0.00    +0.000 C 
BRANCH  20  23
ATOM     23  C   UNL     1       1.231   8.159  20.139  0.00  0.00    +0.000 A 
ATOM     24  C   UNL     1       1.363   9.290  19.305  0.00  0.00    +0.000 A 
ATOM     25  C   UNL     1       1.004  10.582  19.721  0.00  0.00    +0.000 A 
ATOM     26  C   UNL     1       0.480  10.784  20.992  0.00  0.00    +0.000 A 
ATOM     27  C   UNL     1       0.282   9.684  21.811  0.00  0.00    +0.000 A 
ATOM     28 CL   UNL     1      -0.362   9.916  23.395  0.00  0.00    +0.000 Cl
ATOM     29  C   UNL     1       0.635   8.395  21.389  0.00  0.00    +0.000 A 
ENDBRANCH  20  23
ENDBRANCH   1  17
TORSDOF 5
ENDMDL
MODEL 6
REMARK VINA RESULT:      -8.1      5.586     11.147
REMARK  Name = 
REMARK  6 active torsions:
REMARK  status: ('A' for Active; 'I' for Inactive)
REMARK    1  A    between atoms: C_1  and  O_2
REMARK    2  A    between atoms: O_2  and  C_3
REMARK    3  A    between atoms: C_5  and  C_6
REMARK    4  A    between atoms: C_13  and  S_14
REMARK    5  A    between atoms: S_14  and  N_17
REMARK    6  A    between atoms: N_20  and  C_21
REMARK                            x       y       z     vdW  Elec       q    Type
REMARK                         _______ _______ _______ _____ _____    ______ ____
ROOT
ATOM      1  S   UNL     1       0.844  10.898  20.871  0.00  0.00    +0.000 S 
ATOM      2  O   UNL     1       1.453  11.872  19.981  0.00  0.00    +0.000 OA
ATOM      3  O   UNL     1       1.531  10.482  22.080  0.00  0.00    +0.000 OA
ENDROOT
BRANCH   1   9
ATOM      4  C   UNL     1      -1.623  12.114  20.417  0.00  0.00    +0.000 A 
ATOM      5  C   UNL     1      -2.885  12.588  20.843  0.00  0.00    +0.000 A 
ATOM      6  C   UNL     1      -3.257  12.511  22.213  0.00  0.00    +0.000 A 
ATOM      7  C   UNL     1      -2.375  11.881  23.112  0.00  0.00    +0.000 A 
ATOM      8  C   UNL     1      -1.145  11.386  22.694  0.00  0.00    +0.000 A 
ATOM      9  C   UNL     1      -0.761  11.522  21.362  0.00  0.00    +0.000 A 
BRANCH   6  10
ATOM     10  C   UNL     1      -4.489  13.109  22.778  0.00  0.00    +0.000 A 
ATOM     11  C   UNL     1      -5.136  14.340  22.771  0.00  0.00    +0.000 A 
ATOM     12  C   UNL     1      -6.227  14.193  23.631  0.00  0.00    +0.000 A 
ATOM     13  N   UNL     1      -6.310  12.963  24.129  0.00  0.00    +0.000 NA
ATOM     14  O   UNL     1      -5.227  12.281  23.597  0.00  0.00    +0.000 OA
ENDBRANCH   6  10
BRANCH   4  16
ATOM     15  C   UNL     1      -1.637  12.126  17.947  0.00  0.00    +0.000 C 
ATOM     16  O   UNL     1      -1.037  12.329  19.209  0.00  0.00    +0.000 OA
ENDBRANCH   4  16
ENDBRANCH   1   9
BRANCH   1  17
ATOM     17  N   UNL     1       0.498   9.542  19.930  0.00  0.00    +0.000 NA
ATOM     18  C   UNL     1       0.879   9.556  18.493  0.00  0.00    +0.000 C 
ATOM     19  C   UNL     1       2.203   8.827  18.184  0.00  0.00    +0.000 C 
ATOM     20  N   UNL     1       2.245   7.482  18.798  0.00  0.00    +0.000 N 
ATOM     21  C   UNL     1       1.970   7.483  20.246  0.00  0.00    +0.000 C 
ATOM     22  C   UNL     1       0.636   8.201  20.566  0.00  0.00    +0.000 C 
BRANCH  20  23
ATOM     23  C   UNL     1       3.031   6.479  18.221  0.00  0.00    +0.000 A 
ATOM     24  C   UNL     1       4.135   6.753  17.385  0.00  0.00    +0.000 A 
ATOM     25  C   UNL     1       4.797   5.754  16.654  0.00  0.00    +0.000 A 
ATOM     26  C   UNL     1       4.383   4.430  16.751  0.00  0.00    +0.000 A 
ATOM     27  C   UNL     1       3.342   4.122  17.610  0.00  0.00    +0.000 A 
ATOM     28 CL   UNL     1       2.809   2.485  17.739  0.00  0.00    +0.000 Cl
ATOM     29  C   UNL     1       2.688   5.121  18.343  0.00  0.00    +0.000 A 
ENDBRANCH  20  23
ENDBRANCH   1  17
TORSDOF 5
ENDMDL
MODEL 7
REMARK VINA RESULT:      -7.8      6.017     11.444
REMARK  Name = 
REMARK  6 active torsions:
REMARK  status: ('A' for Active; 'I' for Inactive)
REMARK    1  A    between atoms: C_1  and  O_2
REMARK    2  A    between atoms: O_2  and  C_3
REMARK    3  A    between atoms: C_5  and  C_6
REMARK    4  A    between atoms: C_13  and  S_14
REMARK    5  A    between atoms: S_14  and  N_17
REMARK    6  A    between atoms: N_20  and  C_21
REMARK                            x       y       z     vdW  Elec       q    Type
REMARK                         _______ _______ _______ _____ _____    ______ ____
ROOT
ATOM      1  S   UNL     1       0.302  11.570  20.412  0.00  0.00    +0.000 S 
ATOM      2  O   UNL     1       0.651  12.456  19.314  0.00  0.00    +0.000 OA
ATOM      3  O   UNL     1       1.167  11.471  21.574  0.00  0.00    +0.000 OA
ENDROOT
BRANCH   1   9
ATOM      4  C   UNL     1      -2.378  12.267  20.095  0.00  0.00    +0.000 A 
ATOM      5  C   UNL     1      -3.650  12.622  20.599  0.00  0.00    +0.000 A 
ATOM      6  C   UNL     1      -3.850  12.782  21.997  0.00  0.00    +0.000 A 
ATOM      7  C   UNL     1      -2.775  12.502  22.864  0.00  0.00    +0.000 A 
ATOM      8  C   UNL     1      -1.530  12.124  22.375  0.00  0.00    +0.000 A 
ATOM      9  C   UNL     1      -1.325  12.030  21.001  0.00  0.00    +0.000 A 
BRANCH   6  10
ATOM     10  C   UNL     1      -5.100  13.291  22.609  0.00  0.00    +0.000 A 
ATOM     11  C   UNL     1      -5.527  13.759  23.847  0.00  0.00    +0.000 A 
ATOM     12  C   UNL     1      -6.901  13.970  23.713  0.00  0.00    +0.000 A 
ATOM     13  N   UNL     1      -7.331  13.700  22.484  0.00  0.00    +0.000 NA
ATOM     14  O   UNL     1      -6.208  13.278  21.790  0.00  0.00    +0.000 OA
ENDBRANCH   6  10
BRANCH   4  16
ATOM     15  C   UNL     1      -2.574  11.615  17.720  0.00  0.00    +0.000 C 
ATOM     16  O   UNL     1      -1.976  12.307  18.796  0.00  0.00    +0.000 OA
ENDBRANCH   4  16
ENDBRANCH   1   9
BRANCH   1  17
ATOM     17  N   UNL     1       0.089  10.038  19.741  0.00  0.00    +0.000 NA
ATOM     18  C   UNL     1       0.560   9.798  18.351  0.00  0.00    +0.000 C 
ATOM     19  C   UNL     1       1.937   9.109  18.262  0.00  0.00    +0.000 C 
ATOM     20  N   UNL     1       2.011   7.914  19.131  0.00  0.00    +0.000 N 
ATOM     21  C   UNL     1       1.644   8.179  20.534  0.00  0.00    +0.000 C 
ATOM     22  C   UNL     1       0.257   8.858  20.636  0.00  0.00    +0.000 C 
BRANCH  20  23
ATOM     23  C   UNL     1       2.884   6.871  18.805  0.00  0.00    +0.000 A 
ATOM     24  C   UNL     1       3.710   6.889  17.660  0.00  0.00    +0.000 A 
ATOM     25  C   UNL     1       4.435   5.766  17.232  0.00  0.00    +0.000 A 
ATOM     26  C   UNL     1       4.369   4.579  17.953  0.00  0.00    +0.000 A 
ATOM     27  C   UNL     1       3.615   4.548  19.114  0.00  0.00    +0.000 A 
ATOM     28 CL   UNL     1       3.517   3.082  20.019  0.00  0.00    +0.000 Cl
ATOM     29  C   UNL     1       2.899   5.675  19.542  0.00  0.00    +0.000 A 
ENDBRANCH  20  23
ENDBRANCH   1  17
TORSDOF 5
ENDMDL
MODEL 8
REMARK VINA RESULT:      -7.8      6.184     11.608
REMARK  Name = 
REMARK  6 active torsions:
REMARK  status: ('A' for Active; 'I' for Inactive)
REMARK    1  A    between atoms: C_1  and  O_2
REMARK    2  A    between atoms: O_2  and  C_3
REMARK    3  A    between atoms: C_5  and  C_6
REMARK    4  A    between atoms: C_13  and  S_14
REMARK    5  A    between atoms: S_14  and  N_17
REMARK    6  A    between atoms: N_20  and  C_21
REMARK                            x       y       z     vdW  Elec       q    Type
REMARK                         _______ _______ _______ _____ _____    ______ ____
ROOT
ATOM      1  S   UNL     1       0.094  11.818  20.499  0.00  0.00    +0.000 S 
ATOM      2  O   UNL     1       0.373  12.686  19.368  0.00  0.00    +0.000 OA
ATOM      3  O   UNL     1       1.021  11.748  21.614  0.00  0.00    +0.000 OA
ENDROOT
BRANCH   1   9
ATOM      4  C   UNL     1      -2.636  12.356  20.333  0.00  0.00    +0.000 A 
ATOM      5  C   UNL     1      -3.881  12.712  20.900  0.00  0.00    +0.000 A 
ATOM      6  C   UNL     1      -3.978  13.028  22.282  0.00  0.00    +0.000 A 
ATOM      7  C   UNL     1      -2.825  12.898  23.081  0.00  0.00    +0.000 A 
ATOM      8  C   UNL     1      -1.604  12.520  22.535  0.00  0.00    +0.000 A 
ATOM      9  C   UNL     1      -1.504  12.273  21.168  0.00  0.00    +0.000 A 
BRANCH   6  10
ATOM     10  C   UNL     1      -5.201  13.550  22.936  0.00  0.00    +0.000 A 
ATOM     11  C   UNL     1      -6.511  13.138  23.155  0.00  0.00    +0.000 A 
ATOM     12  C   UNL     1      -7.145  14.221  23.769  0.00  0.00    +0.000 A 
ATOM     13  N   UNL     1      -6.314  15.240  23.969  0.00  0.00    +0.000 NA
ATOM     14  O   UNL     1      -5.097  14.824  23.452  0.00  0.00    +0.000 OA
ENDBRANCH   6  10
BRANCH   4  16
ATOM     15  C   UNL     1      -3.169  11.698  18.012  0.00  0.00    +0.000 C 
ATOM     16  O   UNL     1      -2.341  12.260  19.009  0.00  0.00    +0.000 OA
ENDBRANCH   4  16
ENDBRANCH   1   9
BRANCH   1  17
ATOM     17  N   UNL     1      -0.139  10.271  19.869  0.00  0.00    +0.000 NA
ATOM     18  C   UNL     1       0.259  10.010  18.461  0.00  0.00    +0.000 C 
ATOM     19  C   UNL     1       1.637   9.332  18.310  0.00  0.00    +0.000 C 
ATOM     20  N   UNL     1       1.769   8.154  19.196  0.00  0.00    +0.000 N 
ATOM     21  C   UNL     1       1.475   8.441  20.611  0.00  0.00    +0.000 C 
ATOM     22  C   UNL     1       0.088   9.110  20.775  0.00  0.00    +0.000 C 
BRANCH  20  23
ATOM     23  C   UNL     1       2.634   7.113  18.842  0.00  0.00    +0.000 A 
ATOM     24  C   UNL     1       2.935   6.038  19.706  0.00  0.00    +0.000 A 
ATOM     25  C   UNL     1       3.946   5.104  19.429  0.00  0.00    +0.000 A 
ATOM     26  C   UNL     1       4.685   5.207  18.256  0.00  0.00    +0.000 A 
ATOM     27  C   UNL     1       4.372   6.216  17.360  0.00  0.00    +0.000 A 
ATOM     28 CL   UNL     1       5.283   6.364  15.902  0.00  0.00    +0.000 Cl
ATOM     29  C   UNL     1       3.357   7.141  17.638  0.00  0.00    +0.000 A 
ENDBRANCH  20  23
ENDBRANCH   1  17
TORSDOF 5
ENDMDL
MODEL 9
REMARK VINA RESULT:      -7.8      5.607     11.147
REMARK  Name = 
REMARK  6 active torsions:
REMARK  status: ('A' for Active; 'I' for Inactive)
REMARK    1  A    between atoms: C_1  and  O_2
REMARK    2  A    between atoms: O_2  and  C_3
REMARK    3  A    between atoms: C_5  and  C_6
REMARK    4  A    between atoms: C_13  and  S_14
REMARK    5  A    between atoms: S_14  and  N_17
REMARK    6  A    between atoms: N_20  and  C_21
REMARK                            x       y       z     vdW  Elec       q    Type
REMARK                         _______ _______ _______ _____ _____    ______ ____
ROOT
ATOM      1  S   UNL     1       0.744  11.074  20.749  0.00  0.00    +0.000 S 
ATOM      2  O   UNL     1       1.269  12.013  19.772  0.00  0.00    +0.000 OA
ATOM      3  O   UNL     1       1.503  10.766  21.948  0.00  0.00    +0.000 OA
ENDROOT
BRANCH   1   9
ATOM      4  C   UNL     1      -1.784  12.175  20.341  0.00  0.00    +0.000 A 
ATOM      5  C   UNL     1      -3.045  12.623  20.795  0.00  0.00    +0.000 A 
ATOM      6  C   UNL     1      -3.360  12.599  22.181  0.00  0.00    +0.000 A 
ATOM      7  C   UNL     1      -2.419  12.047  23.072  0.00  0.00    +0.000 A 
ATOM      8  C   UNL     1      -1.189  11.577  22.628  0.00  0.00    +0.000 A 
ATOM      9  C   UNL     1      -0.863  11.662  21.276  0.00  0.00    +0.000 A 
BRANCH   6  10
ATOM     10  C   UNL     1      -4.591  13.179  22.768  0.00  0.00    +0.000 A 
ATOM     11  C   UNL     1      -5.156  14.437  22.946  0.00  0.00    +0.000 A 
ATOM     12  C   UNL     1      -6.316  14.222  23.693  0.00  0.00    +0.000 A 
ATOM     13  N   UNL     1      -6.515  12.932  23.951  0.00  0.00    +0.000 NA
ATOM     14  O   UNL     1      -5.440  12.276  23.372  0.00  0.00    +0.000 OA
ENDBRANCH   6  10
BRANCH   4  16
ATOM     15  C   UNL     1      -1.803  11.881  17.888  0.00  0.00    +0.000 C 
ATOM     16  O   UNL     1      -1.254  12.353  19.101  0.00  0.00    +0.000 OA
ENDBRANCH   4  16
ENDBRANCH   1   9
BRANCH   1  17
ATOM     17  N   UNL     1       0.417   9.647  19.913  0.00  0.00    +0.000 NA
ATOM     18  C   UNL     1       0.866   9.531  18.501  0.00  0.00    +0.000 C 
ATOM     19  C   UNL     1       2.188   8.756  18.320  0.00  0.00    +0.000 C 
ATOM     20  N   UNL     1       2.174   7.470  19.049  0.00  0.00    +0.000 N 
ATOM     21  C   UNL     1       1.831   7.601  20.477  0.00  0.00    +0.000 C 
ATOM     22  C   UNL     1       0.499   8.364  20.668  0.00  0.00    +0.000 C 
BRANCH  20  23
ATOM     23  C   UNL     1       2.967   6.408  18.599  0.00  0.00    +0.000 A 
ATOM     24  C   UNL     1       3.103   5.196  19.310  0.00  0.00    +0.000 A 
ATOM     25  C   UNL     1       4.045   4.215  18.960  0.00  0.00    +0.000 A 
ATOM     26  C   UNL     1       4.879   4.410  17.865  0.00  0.00    +0.000 A 
ATOM     27  C   UNL     1       4.726   5.562  17.112  0.00  0.00    +0.000 A 
ATOM     28 CL   UNL     1       5.757   5.825  15.752  0.00  0.00    +0.000 Cl
ATOM     29  C   UNL     1       3.780   6.535  17.460  0.00  0.00    +0.000 A 
ENDBRANCH  20  23
ENDBRANCH   1  17
TORSDOF 5
ENDMDL
