MODEL 1
REMARK VINA RESULT:      -9.1      0.000      0.000
REMARK  Name = 
REMARK  4 active torsions:
REMARK  status: ('A' for Active; 'I' for Inactive)
REMARK    1  A    between atoms: C_2  and  C_3
REMARK    2  A    between atoms: C_12  and  C_14
REMARK    3  A    between atoms: C_17  and  C_18
REMARK    4  A    between atoms: C_22  and  C_23
REMARK                            x       y       z     vdW  Elec       q    Type
REMARK                         _______ _______ _______ _____ _____    ______ ____
ROOT
ATOM      1  O   UNL     1      -0.350   9.718  23.922  0.00  0.00    +0.000 OA
ATOM      2  C   UNL     1      -0.667  10.363  22.921  0.00  0.00    +0.000 C 
ATOM      3  N   UNL     1      -0.392   9.861  21.644  0.00  0.00    +0.000 N 
ATOM      4  C   UNL     1      -0.492  10.604  20.374  0.00  0.00    +0.000 C 
ATOM      5  C   UNL     1       0.842  10.619  19.609  0.00  0.00    +0.000 C 
ATOM      6  N   UNL     1       1.413   9.278  19.511  0.00  0.00    +0.000 N 
ATOM      7  C   UNL     1       1.917   8.841  18.284  0.00  0.00    +0.000 C 
ATOM      8  O   UNL     1       1.988   9.615  17.326  0.00  0.00    +0.000 OA
ATOM      9  C   UNL     1       1.561   8.604  20.812  0.00  0.00    +0.000 C 
ATOM     10  C   UNL     1       0.204   8.523  21.520  0.00  0.00    +0.000 C 
ENDROOT
BRANCH   2  11
ATOM     11  C   UNL     1      -1.279  11.673  23.057  0.00  0.00    +0.000 A 
ATOM     12  C   UNL     1      -2.616  12.028  23.086  0.00  0.00    +0.000 A 
ATOM     13  C   UNL     1      -2.668  13.432  23.256  0.00  0.00    +0.000 A 
ATOM     14  C   UNL     1      -1.363  13.861  23.268  0.00  0.00    +0.000 A 
ATOM     15  O   UNL     1      -0.517  12.810  23.118  0.00  0.00    +0.000 OA
ENDBRANCH   2  11
BRANCH   7  16
ATOM     16  C   UNL     1       2.363   7.468  18.161  0.00  0.00    +0.000 A 
ATOM     17  C   UNL     1       1.752   6.289  18.543  0.00  0.00    +0.000 A 
ATOM     18  C   UNL     1       2.624   5.239  18.171  0.00  0.00    +0.000 A 
ATOM     19  C   UNL     1       3.742   5.826  17.613  0.00  0.00    +0.000 A 
ATOM     20  O   UNL     1       3.601   7.183  17.655  0.00  0.00    +0.000 OA
BRANCH  19  21
ATOM     21  C   UNL     1       4.966   5.329  16.991  0.00  0.00    +0.000 A 
ATOM     22  C   UNL     1       6.138   5.191  17.748  0.00  0.00    +0.000 A 
ATOM     23  C   UNL     1       7.305   4.678  17.174  0.00  0.00    +0.000 A 
ATOM     24  C   UNL     1       7.318   4.294  15.836  0.00  0.00    +0.000 A 
ATOM     25  C   UNL     1       6.165   4.423  15.051  0.00  0.00    +0.000 A 
ATOM     26  C   UNL     1       4.998   4.945  15.640  0.00  0.00    +0.000 A 
BRANCH  25  27
ATOM     27  C   UNL     1       6.154   4.006  13.602  0.00  0.00    +0.000 C 
ATOM     28  F   UNL     1       6.524   2.709  13.403  0.00  0.00    +0.000 F 
ATOM     29  F   UNL     1       4.922   4.133  13.034  0.00  0.00    +0.000 F 
ATOM     30  F   UNL     1       6.997   4.755  12.837  0.00  0.00    +0.000 F 
ENDBRANCH  25  27
ENDBRANCH  19  21
ENDBRANCH   7  16
TORSDOF 4
ENDMDL
MODEL 2
REMARK VINA RESULT:      -8.6      3.615      4.508
REMARK  Name = 
REMARK  4 active torsions:
REMARK  status: ('A' for Active; 'I' for Inactive)
REMARK    1  A    between atoms: C_2  and  C_3
REMARK    2  A    between atoms: C_12  and  C_14
REMARK    3  A    between atoms: C_17  and  C_18
REMARK    4  A    between atoms: C_22  and  C_23
REMARK                            x       y       z     vdW  Elec       q    Type
REMARK                         _______ _______ _______ _____ _____    ______ ____
ROOT
ATOM      1  O   UNL     1      -0.022   9.738  23.837  0.00  0.00    +0.000 OA
ATOM      2  C   UNL     1      -0.494  10.352  22.878  0.00  0.00    +0.000 C 
ATOM      3  N   UNL     1      -0.212   9.936  21.571  0.00  0.00    +0.000 N 
ATOM      4  C   UNL     1      -0.501  10.689  20.336  0.00  0.00    +0.000 C 
ATOM      5  C   UNL     1       0.769  10.941  19.506  0.00  0.00    +0.000 C 
ATOM      6  N   UNL     1       1.542   9.713  19.331  0.00  0.00    +0.000 N 
ATOM      7  C   UNL     1       2.040   9.398  18.065  0.00  0.00    +0.000 C 
ATOM      8  O   UNL     1       1.933  10.199  17.134  0.00  0.00    +0.000 OA
ATOM      9  C   UNL     1       1.867   9.036  20.597  0.00  0.00    +0.000 C 
ATOM     10  C   UNL     1       0.582   8.717  21.369  0.00  0.00    +0.000 C 
ENDROOT
BRANCH   2  11
ATOM     11  C   UNL     1      -1.299  11.541  23.093  0.00  0.00    +0.000 A 
ATOM     12  C   UNL     1      -2.642  11.657  23.403  0.00  0.00    +0.000 A 
ATOM     13  C   UNL     1      -2.921  13.040  23.522  0.00  0.00    +0.000 A 
ATOM     14  C   UNL     1      -1.747  13.690  23.226  0.00  0.00    +0.000 A 
ATOM     15  O   UNL     1      -0.769  12.795  22.935  0.00  0.00    +0.000 OA
ENDBRANCH   2  11
BRANCH   7  16
ATOM     16  C   UNL     1       2.692   8.119  17.870  0.00  0.00    +0.000 A 
ATOM     17  C   UNL     1       3.889   7.807  17.252  0.00  0.00    +0.000 A 
ATOM     18  C   UNL     1       4.049   6.405  17.360  0.00  0.00    +0.000 A 
ATOM     19  C   UNL     1       2.929   5.922  18.004  0.00  0.00    +0.000 A 
ATOM     20  O   UNL     1       2.083   6.961  18.267  0.00  0.00    +0.000 OA
BRANCH  19  21
ATOM     21  C   UNL     1       2.492   4.608  18.469  0.00  0.00    +0.000 A 
ATOM     22  C   UNL     1       2.182   3.599  17.547  0.00  0.00    +0.000 A 
ATOM     23  C   UNL     1       1.802   2.326  17.979  0.00  0.00    +0.000 A 
ATOM     24  C   UNL     1       1.728   2.040  19.341  0.00  0.00    +0.000 A 
ATOM     25  C   UNL     1       2.027   3.028  20.288  0.00  0.00    +0.000 A 
ATOM     26  C   UNL     1       2.404   4.308  19.839  0.00  0.00    +0.000 A 
BRANCH  25  27
ATOM     27  C   UNL     1       1.962   2.739  21.767  0.00  0.00    +0.000 C 
ATOM     28  F   UNL     1       2.751   1.698  22.156  0.00  0.00    +0.000 F 
ATOM     29  F   UNL     1       2.350   3.805  22.521  0.00  0.00    +0.000 F 
ATOM     30  F   UNL     1       0.703   2.426  22.182  0.00  0.00    +0.000 F 
ENDBRANCH  25  27
ENDBRANCH  19  21
ENDBRANCH   7  16
TORSDOF 4
ENDMDL
MODEL 3
REMARK VINA RESULT:      -8.6      2.101      3.288
REMARK  Name = 
REMARK  4 active torsions:
REMARK  status: ('A' for Active; 'I' for Inactive)
REMARK    1  A    between atoms: C_2  and  C_3
REMARK    2  A    between atoms: C_12  and  C_14
REMARK    3  A    between atoms: C_17  and  C_18
REMARK    4  A    between atoms: C_22  and  C_23
REMARK                            x       y       z     vdW  Elec       q    Type
REMARK                         _______ _______ _______ _____ _____    ______ ____
ROOT
ATOM      1  O   UNL     1      -3.940  12.514  19.702  0.00  0.00    +0.000 OA
ATOM      2  C   UNL     1      -3.251  12.601  20.720  0.00  0.00    +0.000 C 
ATOM      3  N   UNL     1      -1.955  12.073  20.738  0.00  0.00    +0.000 N 
ATOM      4  C   UNL     1      -1.105  11.888  21.930  0.00  0.00    +0.000 C 
ATOM      5  C   UNL     1      -0.673  10.423  22.107  0.00  0.00    +0.000 C 
ATOM      6  N   UNL     1      -0.143   9.871  20.863  0.00  0.00    +0.000 N 
ATOM      7  C   UNL     1       1.040   9.129  20.897  0.00  0.00    +0.000 C 
ATOM      8  O   UNL     1       1.567   8.843  21.974  0.00  0.00    +0.000 OA
ATOM      9  C   UNL     1      -1.057  10.014  19.718  0.00  0.00    +0.000 C 
ATOM     10  C   UNL     1      -1.407  11.491  19.505  0.00  0.00    +0.000 C 
ENDROOT
BRANCH   2  11
ATOM     11  C   UNL     1      -3.795  13.201  21.926  0.00  0.00    +0.000 A 
ATOM     12  C   UNL     1      -3.729  14.510  22.371  0.00  0.00    +0.000 A 
ATOM     13  C   UNL     1      -4.440  14.566  23.593  0.00  0.00    +0.000 A 
ATOM     14  C   UNL     1      -4.854  13.283  23.851  0.00  0.00    +0.000 A 
ATOM     15  O   UNL     1      -4.444  12.444  22.866  0.00  0.00    +0.000 OA
ENDBRANCH   2  11
BRANCH   7  16
ATOM     16  C   UNL     1       1.629   8.695  19.647  0.00  0.00    +0.000 A 
ATOM     17  C   UNL     1       1.877   9.395  18.481  0.00  0.00    +0.000 A 
ATOM     18  C   UNL     1       2.480   8.486  17.580  0.00  0.00    +0.000 A 
ATOM     19  C   UNL     1       2.539   7.266  18.223  0.00  0.00    +0.000 A 
ATOM     20  O   UNL     1       1.974   7.385  19.460  0.00  0.00    +0.000 OA
BRANCH  19  21
ATOM     21  C   UNL     1       3.077   5.949  17.890  0.00  0.00    +0.000 A 
ATOM     22  C   UNL     1       2.334   4.792  18.161  0.00  0.00    +0.000 A 
ATOM     23  C   UNL     1       2.819   3.530  17.810  0.00  0.00    +0.000 A 
ATOM     24  C   UNL     1       4.056   3.404  17.181  0.00  0.00    +0.000 A 
ATOM     25  C   UNL     1       4.825   4.541  16.899  0.00  0.00    +0.000 A 
ATOM     26  C   UNL     1       4.326   5.806  17.262  0.00  0.00    +0.000 A 
BRANCH  25  27
ATOM     27  C   UNL     1       6.162   4.429  16.210  0.00  0.00    +0.000 C 
ATOM     28  F   UNL     1       7.204   4.240  17.068  0.00  0.00    +0.000 F 
ATOM     29  F   UNL     1       6.208   3.388  15.332  0.00  0.00    +0.000 F 
ATOM     30  F   UNL     1       6.471   5.541  15.487  0.00  0.00    +0.000 F 
ENDBRANCH  25  27
ENDBRANCH  19  21
ENDBRANCH   7  16
TORSDOF 4
ENDMDL
MODEL 4
REMARK VINA RESULT:      -8.5      2.701      3.808
REMARK  Name = 
REMARK  4 active torsions:
REMARK  status: ('A' for Active; 'I' for Inactive)
REMARK    1  A    between atoms: C_2  and  C_3
REMARK    2  A    between atoms: C_12  and  C_14
REMARK    3  A    between atoms: C_17  and  C_18
REMARK    4  A    between atoms: C_22  and  C_23
REMARK                            x       y       z     vdW  Elec       q    Type
REMARK                         _______ _______ _______ _____ _____    ______ ____
ROOT
ATOM      1  O   UNL     1      -3.667  12.713  20.063  0.00  0.00    +0.000 OA
ATOM      2  C   UNL     1      -3.001  12.648  21.098  0.00  0.00    +0.000 C 
ATOM      3  N   UNL     1      -1.737  12.048  21.083  0.00  0.00    +0.000 N 
ATOM      4  C   UNL     1      -0.930  11.685  22.263  0.00  0.00    +0.000 C 
ATOM      5  C   UNL     1      -0.582  10.187  22.284  0.00  0.00    +0.000 C 
ATOM      6  N   UNL     1      -0.050   9.747  20.996  0.00  0.00    +0.000 N 
ATOM      7  C   UNL     1       1.090   8.940  20.971  0.00  0.00    +0.000 C 
ATOM      8  O   UNL     1       1.572   8.506  22.020  0.00  0.00    +0.000 OA
ATOM      9  C   UNL     1      -0.925  10.068  19.856  0.00  0.00    +0.000 C 
ATOM     10  C   UNL     1      -1.189  11.577  19.804  0.00  0.00    +0.000 C 
ENDROOT
BRANCH   2  11
ATOM     11  C   UNL     1      -3.544  13.140  22.352  0.00  0.00    +0.000 A 
ATOM     12  C   UNL     1      -3.435  14.392  22.933  0.00  0.00    +0.000 A 
ATOM     13  C   UNL     1      -4.166  14.349  24.144  0.00  0.00    +0.000 A 
ATOM     14  C   UNL     1      -4.634  13.063  24.260  0.00  0.00    +0.000 A 
ATOM     15  O   UNL     1      -4.238  12.316  23.198  0.00  0.00    +0.000 OA
ENDBRANCH   2  11
BRANCH   7  16
ATOM     16  C   UNL     1       1.687   8.615  19.692  0.00  0.00    +0.000 A 
ATOM     17  C   UNL     1       1.833   9.379  18.550  0.00  0.00    +0.000 A 
ATOM     18  C   UNL     1       2.502   8.569  17.601  0.00  0.00    +0.000 A 
ATOM     19  C   UNL     1       2.701   7.339  18.194  0.00  0.00    +0.000 A 
ATOM     20  O   UNL     1       2.159   7.355  19.447  0.00  0.00    +0.000 OA
BRANCH  19  21
ATOM     21  C   UNL     1       3.361   6.098  17.798  0.00  0.00    +0.000 A 
ATOM     22  C   UNL     1       4.466   6.128  16.936  0.00  0.00    +0.000 A 
ATOM     23  C   UNL     1       5.132   4.951  16.583  0.00  0.00    +0.000 A 
ATOM     24  C   UNL     1       4.704   3.726  17.088  0.00  0.00    +0.000 A 
ATOM     25  C   UNL     1       3.601   3.660  17.949  0.00  0.00    +0.000 A 
ATOM     26  C   UNL     1       2.937   4.853  18.293  0.00  0.00    +0.000 A 
BRANCH  25  27
ATOM     27  C   UNL     1       3.127   2.345  18.514  0.00  0.00    +0.000 C 
ATOM     28  F   UNL     1       3.647   2.058  19.740  0.00  0.00    +0.000 F 
ATOM     29  F   UNL     1       1.773   2.303  18.664  0.00  0.00    +0.000 F 
ATOM     30  F   UNL     1       3.447   1.289  17.716  0.00  0.00    +0.000 F 
ENDBRANCH  25  27
ENDBRANCH  19  21
ENDBRANCH   7  16
TORSDOF 4
ENDMDL
MODEL 5
REMARK VINA RESULT:      -8.2      3.964      5.216
REMARK  Name = 
REMARK  4 active torsions:
REMARK  status: ('A' for Active; 'I' for Inactive)
REMARK    1  A    between atoms: C_2  and  C_3
REMARK    2  A    between atoms: C_12  and  C_14
REMARK    3  A    between atoms: C_17  and  C_18
REMARK    4  A    between atoms: C_22  and  C_23
REMARK                            x       y       z     vdW  Elec       q    Type
REMARK                         _______ _______ _______ _____ _____    ______ ____
ROOT
ATOM      1  O   UNL     1       3.463  15.656  18.566  0.00  0.00    +0.000 OA
ATOM      2  C   UNL     1       2.232  15.689  18.611  0.00  0.00    +0.000 C 
ATOM      3  N   UNL     1       1.516  14.582  19.079  0.00  0.00    +0.000 N 
ATOM      4  C   UNL     1       0.059  14.377  18.975  0.00  0.00    +0.000 C 
ATOM      5  C   UNL     1      -0.288  13.078  18.229  0.00  0.00    +0.000 C 
ATOM      6  N   UNL     1       0.471  11.945  18.752  0.00  0.00    +0.000 N 
ATOM      7  C   UNL     1      -0.190  10.742  19.006  0.00  0.00    +0.000 C 
ATOM      8  O   UNL     1      -1.371  10.597  18.682  0.00  0.00    +0.000 OA
ATOM      9  C   UNL     1       1.927  12.169  18.769  0.00  0.00    +0.000 C 
ATOM     10  C   UNL     1       2.257  13.421  19.590  0.00  0.00    +0.000 C 
ENDROOT
BRANCH   2  11
ATOM     11  C   UNL     1       1.511  16.853  18.126  0.00  0.00    +0.000 A 
ATOM     12  C   UNL     1       1.734  17.627  17.000  0.00  0.00    +0.000 A 
ATOM     13  C   UNL     1       0.734  18.628  16.983  0.00  0.00    +0.000 A 
ATOM     14  C   UNL     1      -0.009  18.442  18.124  0.00  0.00    +0.000 A 
ATOM     15  O   UNL     1       0.472  17.393  18.837  0.00  0.00    +0.000 OA
ENDBRANCH   2  11
BRANCH   7  16
ATOM     16  C   UNL     1       0.539   9.665  19.645  0.00  0.00    +0.000 A 
ATOM     17  C   UNL     1       0.689   9.354  20.983  0.00  0.00    +0.000 A 
ATOM     18  C   UNL     1       1.492   8.190  21.043  0.00  0.00    +0.000 A 
ATOM     19  C   UNL     1       1.825   7.866  19.743  0.00  0.00    +0.000 A 
ATOM     20  O   UNL     1       1.286   8.795  18.900  0.00  0.00    +0.000 OA
BRANCH  19  21
ATOM     21  C   UNL     1       2.567   6.781  19.108  0.00  0.00    +0.000 A 
ATOM     22  C   UNL     1       2.415   5.462  19.558  0.00  0.00    +0.000 A 
ATOM     23  C   UNL     1       3.088   4.409  18.932  0.00  0.00    +0.000 A 
ATOM     24  C   UNL     1       3.923   4.658  17.846  0.00  0.00    +0.000 A 
ATOM     25  C   UNL     1       4.100   5.965  17.374  0.00  0.00    +0.000 A 
ATOM     26  C   UNL     1       3.420   7.017  18.016  0.00  0.00    +0.000 A 
BRANCH  25  27
ATOM     27  C   UNL     1       4.992   6.256  16.193  0.00  0.00    +0.000 C 
ATOM     28  F   UNL     1       4.570   7.306  15.434  0.00  0.00    +0.000 F 
ATOM     29  F   UNL     1       6.267   6.556  16.569  0.00  0.00    +0.000 F 
ATOM     30  F   UNL     1       5.094   5.198  15.342  0.00  0.00    +0.000 F 
ENDBRANCH  25  27
ENDBRANCH  19  21
ENDBRANCH   7  16
TORSDOF 4
ENDMDL
MODEL 6
REMARK VINA RESULT:      -8.2      2.000      3.395
REMARK  Name = 
REMARK  4 active torsions:
REMARK  status: ('A' for Active; 'I' for Inactive)
REMARK    1  A    between atoms: C_2  and  C_3
REMARK    2  A    between atoms: C_12  and  C_14
REMARK    3  A    between atoms: C_17  and  C_18
REMARK    4  A    between atoms: C_22  and  C_23
REMARK                            x       y       z     vdW  Elec       q    Type
REMARK                         _______ _______ _______ _____ _____    ______ ____
ROOT
ATOM      1  O   UNL     1       0.866   9.925  17.821  0.00  0.00    +0.000 OA
ATOM      2  C   UNL     1       1.065   9.681  19.012  0.00  0.00    +0.000 C 
ATOM      3  N   UNL     1       1.770   8.531  19.387  0.00  0.00    +0.000 N 
ATOM      4  C   UNL     1       1.883   7.984  20.752  0.00  0.00    +0.000 C 
ATOM      5  C   UNL     1       1.374   6.535  20.835  0.00  0.00    +0.000 C 
ATOM      6  N   UNL     1       1.945   5.709  19.775  0.00  0.00    +0.000 N 
ATOM      7  C   UNL     1       2.445   4.444  20.093  0.00  0.00    +0.000 C 
ATOM      8  O   UNL     1       2.299   3.981  21.226  0.00  0.00    +0.000 OA
ATOM      9  C   UNL     1       1.743   6.260  18.424  0.00  0.00    +0.000 C 
ATOM     10  C   UNL     1       2.335   7.671  18.338  0.00  0.00    +0.000 C 
ENDROOT
BRANCH   2  11
ATOM     11  C   UNL     1       0.522  10.553  20.039  0.00  0.00    +0.000 A 
ATOM     12  C   UNL     1      -0.611  10.405  20.819  0.00  0.00    +0.000 A 
ATOM     13  C   UNL     1      -0.674  11.530  21.675  0.00  0.00    +0.000 A 
ATOM     14  C   UNL     1       0.393  12.325  21.335  0.00  0.00    +0.000 A 
ATOM     15  O   UNL     1       1.104  11.760  20.327  0.00  0.00    +0.000 OA
ENDBRANCH   2  11
BRANCH   7  16
ATOM     16  C   UNL     1       3.126   3.683  19.065  0.00  0.00    +0.000 A 
ATOM     17  C   UNL     1       3.078   2.334  18.767  0.00  0.00    +0.000 A 
ATOM     18  C   UNL     1       3.930   2.133  17.655  0.00  0.00    +0.000 A 
ATOM     19  C   UNL     1       4.485   3.358  17.348  0.00  0.00    +0.000 A 
ATOM     20  O   UNL     1       4.033   4.289  18.240  0.00  0.00    +0.000 OA
BRANCH  19  21
ATOM     21  C   UNL     1       5.383   3.853  16.308  0.00  0.00    +0.000 A 
ATOM     22  C   UNL     1       6.472   4.671  16.644  0.00  0.00    +0.000 A 
ATOM     23  C   UNL     1       7.362   5.116  15.663  0.00  0.00    +0.000 A 
ATOM     24  C   UNL     1       7.178   4.752  14.332  0.00  0.00    +0.000 A 
ATOM     25  C   UNL     1       6.098   3.939  13.963  0.00  0.00    +0.000 A 
ATOM     26  C   UNL     1       5.207   3.501  14.960  0.00  0.00    +0.000 A 
BRANCH  25  27
ATOM     27  C   UNL     1       5.886   3.524  12.528  0.00  0.00    +0.000 C 
ATOM     28  F   UNL     1       6.039   2.187  12.317  0.00  0.00    +0.000 F 
ATOM     29  F   UNL     1       4.637   3.832  12.079  0.00  0.00    +0.000 F 
ATOM     30  F   UNL     1       6.752   4.138  11.674  0.00  0.00    +0.000 F 
ENDBRANCH  25  27
ENDBRANCH  19  21
ENDBRANCH   7  16
TORSDOF 4
ENDMDL
MODEL 7
REMARK VINA RESULT:      -8.1      3.867      5.174
REMARK  Name = 
REMARK  4 active torsions:
REMARK  status: ('A' for Active; 'I' for Inactive)
REMARK    1  A    between atoms: C_2  and  C_3
REMARK    2  A    between atoms: C_12  and  C_14
REMARK    3  A    between atoms: C_17  and  C_18
REMARK    4  A    between atoms: C_22  and  C_23
REMARK                            x       y       z     vdW  Elec       q    Type
REMARK                         _______ _______ _______ _____ _____    ______ ____
ROOT
ATOM      1  O   UNL     1      -5.132  11.988  18.953  0.00  0.00    +0.000 OA
ATOM      2  C   UNL     1      -4.450  12.631  19.754  0.00  0.00    +0.000 C 
ATOM      3  N   UNL     1      -3.062  12.460  19.792  0.00  0.00    +0.000 N 
ATOM      4  C   UNL     1      -2.149  12.969  20.833  0.00  0.00    +0.000 C 
ATOM      5  C   UNL     1      -1.343  11.838  21.495  0.00  0.00    +0.000 C 
ATOM      6  N   UNL     1      -0.735  10.963  20.495  0.00  0.00    +0.000 N 
ATOM      7  C   UNL     1       0.601  10.584  20.645  0.00  0.00    +0.000 C 
ATOM      8  O   UNL     1       1.224  10.883  21.665  0.00  0.00    +0.000 OA
ATOM      9  C   UNL     1      -1.698  10.422  19.521  0.00  0.00    +0.000 C 
ATOM     10  C   UNL     1      -2.429  11.568  18.811  0.00  0.00    +0.000 C 
ENDROOT
BRANCH   2  11
ATOM     11  C   UNL     1      -5.086  13.530  20.702  0.00  0.00    +0.000 A 
ATOM     12  C   UNL     1      -5.288  14.897  20.627  0.00  0.00    +0.000 A 
ATOM     13  C   UNL     1      -5.972  15.278  21.807  0.00  0.00    +0.000 A 
ATOM     14  C   UNL     1      -6.102  14.134  22.556  0.00  0.00    +0.000 A 
ATOM     15  O   UNL     1      -5.543  13.078  21.912  0.00  0.00    +0.000 OA
ENDBRANCH   2  11
BRANCH   7  16
ATOM     16  C   UNL     1       1.234   9.824  19.586  0.00  0.00    +0.000 A 
ATOM     17  C   UNL     1       1.580  10.194  18.301  0.00  0.00    +0.000 A 
ATOM     18  C   UNL     1       2.185   9.064  17.700  0.00  0.00    +0.000 A 
ATOM     19  C   UNL     1       2.147   8.048  18.633  0.00  0.00    +0.000 A 
ATOM     20  O   UNL     1       1.523   8.499  19.760  0.00  0.00    +0.000 OA
BRANCH  19  21
ATOM     21  C   UNL     1       2.636   6.672  18.680  0.00  0.00    +0.000 A 
ATOM     22  C   UNL     1       3.614   6.237  17.775  0.00  0.00    +0.000 A 
ATOM     23  C   UNL     1       4.119   4.936  17.837  0.00  0.00    +0.000 A 
ATOM     24  C   UNL     1       3.655   4.048  18.805  0.00  0.00    +0.000 A 
ATOM     25  C   UNL     1       2.675   4.450  19.722  0.00  0.00    +0.000 A 
ATOM     26  C   UNL     1       2.172   5.763  19.646  0.00  0.00    +0.000 A 
BRANCH  25  27
ATOM     27  C   UNL     1       2.165   3.509  20.784  0.00  0.00    +0.000 C 
ATOM     28  F   UNL     1       0.830   3.252  20.691  0.00  0.00    +0.000 F 
ATOM     29  F   UNL     1       2.783   2.296  20.742  0.00  0.00    +0.000 F 
ATOM     30  F   UNL     1       2.366   3.986  22.044  0.00  0.00    +0.000 F 
ENDBRANCH  25  27
ENDBRANCH  19  21
ENDBRANCH   7  16
TORSDOF 4
ENDMDL
MODEL 8
REMARK VINA RESULT:      -8.1      4.110      5.233
REMARK  Name = 
REMARK  4 active torsions:
REMARK  status: ('A' for Active; 'I' for Inactive)
REMARK    1  A    between atoms: C_2  and  C_3
REMARK    2  A    between atoms: C_12  and  C_14
REMARK    3  A    between atoms: C_17  and  C_18
REMARK    4  A    between atoms: C_22  and  C_23
REMARK                            x       y       z     vdW  Elec       q    Type
REMARK                         _______ _______ _______ _____ _____    ______ ____
ROOT
ATOM      1  O   UNL     1      -5.113  11.002  17.740  0.00  0.00    +0.000 OA
ATOM      2  C   UNL     1      -4.584  11.779  18.538  0.00  0.00    +0.000 C 
ATOM      3  N   UNL     1      -3.196  11.771  18.712  0.00  0.00    +0.000 N 
ATOM      4  C   UNL     1      -2.447  12.461  19.780  0.00  0.00    +0.000 C 
ATOM      5  C   UNL     1      -1.593  11.485  20.606  0.00  0.00    +0.000 C 
ATOM      6  N   UNL     1      -0.802  10.610  19.745  0.00  0.00    +0.000 N 
ATOM      7  C   UNL     1       0.546  10.398  20.044  0.00  0.00    +0.000 C 
ATOM      8  O   UNL     1       1.033  10.845  21.085  0.00  0.00    +0.000 OA
ATOM      9  C   UNL     1      -1.603   9.887  18.742  0.00  0.00    +0.000 C 
ATOM     10  C   UNL     1      -2.379  10.883  17.873  0.00  0.00    +0.000 C 
ENDROOT
BRANCH   2  11
ATOM     11  C   UNL     1      -5.401  12.671  19.343  0.00  0.00    +0.000 A 
ATOM     12  C   UNL     1      -5.728  12.601  20.686  0.00  0.00    +0.000 A 
ATOM     13  C   UNL     1      -6.534  13.728  20.974  0.00  0.00    +0.000 A 
ATOM     14  C   UNL     1      -6.696  14.392  19.783  0.00  0.00    +0.000 A 
ATOM     15  O   UNL     1      -6.042  13.745  18.785  0.00  0.00    +0.000 OA
ENDBRANCH   2  11
BRANCH   7  16
ATOM     16  C   UNL     1       1.356   9.636  19.116  0.00  0.00    +0.000 A 
ATOM     17  C   UNL     1       2.018  10.031  17.969  0.00  0.00    +0.000 A 
ATOM     18  C   UNL     1       2.668   8.882  17.458  0.00  0.00    +0.000 A 
ATOM     19  C   UNL     1       2.344   7.833  18.294  0.00  0.00    +0.000 A 
ATOM     20  O   UNL     1       1.505   8.285  19.272  0.00  0.00    +0.000 OA
BRANCH  19  21
ATOM     21  C   UNL     1       2.713   6.422  18.370  0.00  0.00    +0.000 A 
ATOM     22  C   UNL     1       3.899   5.968  17.778  0.00  0.00    +0.000 A 
ATOM     23  C   UNL     1       4.284   4.629  17.879  0.00  0.00    +0.000 A 
ATOM     24  C   UNL     1       3.489   3.721  18.575  0.00  0.00    +0.000 A 
ATOM     25  C   UNL     1       2.295   4.142  19.175  0.00  0.00    +0.000 A 
ATOM     26  C   UNL     1       1.917   5.493  19.062  0.00  0.00    +0.000 A 
BRANCH  25  27
ATOM     27  C   UNL     1       1.423   3.179  19.941  0.00  0.00    +0.000 C 
ATOM     28  F   UNL     1       0.295   2.811  19.271  0.00  0.00    +0.000 F 
ATOM     29  F   UNL     1       2.072   2.020  20.244  0.00  0.00    +0.000 F 
ATOM     30  F   UNL     1       0.999   3.691  21.130  0.00  0.00    +0.000 F 
ENDBRANCH  25  27
ENDBRANCH  19  21
ENDBRANCH   7  16
TORSDOF 4
ENDMDL
MODEL 9
REMARK VINA RESULT:      -8.0      4.079      5.200
REMARK  Name = 
REMARK  4 active torsions:
REMARK  status: ('A' for Active; 'I' for Inactive)
REMARK    1  A    between atoms: C_2  and  C_3
REMARK    2  A    between atoms: C_12  and  C_14
REMARK    3  A    between atoms: C_17  and  C_18
REMARK    4  A    between atoms: C_22  and  C_23
REMARK                            x       y       z     vdW  Elec       q    Type
REMARK                         _______ _______ _______ _____ _____    ______ ____
ROOT
ATOM      1  O   UNL     1      -5.156  11.145  18.050  0.00  0.00    +0.000 OA
ATOM      2  C   UNL     1      -4.609  11.914  18.843  0.00  0.00    +0.000 C 
ATOM      3  N   UNL     1      -3.216  11.911  18.977  0.00  0.00    +0.000 N 
ATOM      4  C   UNL     1      -2.439  12.589  20.032  0.00  0.00    +0.000 C 
ATOM      5  C   UNL     1      -1.557  11.605  20.819  0.00  0.00    +0.000 C 
ATOM      6  N   UNL     1      -0.787  10.747  19.922  0.00  0.00    +0.000 N 
ATOM      7  C   UNL     1       0.570  10.539  20.179  0.00  0.00    +0.000 C 
ATOM      8  O   UNL     1       1.085  10.974  21.211  0.00  0.00    +0.000 OA
ATOM      9  C   UNL     1      -1.613  10.035  18.933  0.00  0.00    +0.000 C 
ATOM     10  C   UNL     1      -2.420  11.040  18.101  0.00  0.00    +0.000 C 
ENDROOT
BRANCH   2  11
ATOM     11  C   UNL     1      -5.406  12.788  19.685  0.00  0.00    +0.000 A 
ATOM     12  C   UNL     1      -5.828  14.087  19.463  0.00  0.00    +0.000 A 
ATOM     13  C   UNL     1      -6.593  14.471  20.590  0.00  0.00    +0.000 A 
ATOM     14  C   UNL     1      -6.551  13.407  21.457  0.00  0.00    +0.000 A 
ATOM     15  O   UNL     1      -5.811  12.397  20.934  0.00  0.00    +0.000 OA
ENDBRANCH   2  11
BRANCH   7  16
ATOM     16  C   UNL     1       1.357   9.795  19.216  0.00  0.00    +0.000 A 
ATOM     17  C   UNL     1       1.894  10.184  18.004  0.00  0.00    +0.000 A 
ATOM     18  C   UNL     1       2.583   9.062  17.485  0.00  0.00    +0.000 A 
ATOM     19  C   UNL     1       2.404   8.031  18.384  0.00  0.00    +0.000 A 
ATOM     20  O   UNL     1       1.616   8.466  19.410  0.00  0.00    +0.000 OA
BRANCH  19  21
ATOM     21  C   UNL     1       2.879   6.653  18.483  0.00  0.00    +0.000 A 
ATOM     22  C   UNL     1       3.868   6.181  17.608  0.00  0.00    +0.000 A 
ATOM     23  C   UNL     1       4.360   4.879  17.719  0.00  0.00    +0.000 A 
ATOM     24  C   UNL     1       3.874   4.027  18.707  0.00  0.00    +0.000 A 
ATOM     25  C   UNL     1       2.883   4.466  19.595  0.00  0.00    +0.000 A 
ATOM     26  C   UNL     1       2.392   5.779  19.470  0.00  0.00    +0.000 A 
BRANCH  25  27
ATOM     27  C   UNL     1       2.348   3.563  20.679  0.00  0.00    +0.000 C 
ATOM     28  F   UNL     1       3.256   2.653  21.130  0.00  0.00    +0.000 F 
ATOM     29  F   UNL     1       1.937   4.258  21.777  0.00  0.00    +0.000 F 
ATOM     30  F   UNL     1       1.268   2.841  20.269  0.00  0.00    +0.000 F 
ENDBRANCH  25  27
ENDBRANCH  19  21
ENDBRANCH   7  16
TORSDOF 4
ENDMDL
