MODEL 1
REMARK VINA RESULT:      -7.7      0.000      0.000
REMARK  Name = 
REMARK  5 active torsions:
REMARK  status: ('A' for Active; 'I' for Inactive)
REMARK    1  A    between atoms: C_2  and  C_3
REMARK    2  A    between atoms: C_3  and  O_4
REMARK    3  A    between atoms: O_4  and  C_5
REMARK    4  A    between atoms: C_5  and  C_7
REMARK    5  A    between atoms: N_13  and  C_14
REMARK                            x       y       z     vdW  Elec       q    Type
REMARK                         _______ _______ _______ _____ _____    ______ ____
ROOT
ATOM      1  O   UNL     1       6.572   4.942  19.182  0.00  0.00    +0.000 OA
ATOM      2  C   UNL     1       6.445   4.475  18.054  0.00  0.00    +0.000 C 
ATOM      3  N   UNL     1       5.307   3.866  17.542  0.00  0.00    +0.000 N 
ATOM      4  H   UNL     1       5.410   3.406  16.645  0.00  0.00    +0.000 HD
ENDROOT
BRANCH   3   5
ATOM      5  C   UNL     1       4.083   3.680  18.224  0.00  0.00    +0.000 A 
ATOM      6  C   UNL     1       2.837   4.034  17.667  0.00  0.00    +0.000 A 
ATOM      7  C   UNL     1       1.647   3.888  18.392  0.00  0.00    +0.000 A 
ATOM      8  C   UNL     1       1.733   3.386  19.668  0.00  0.00    +0.000 A 
ATOM      9  C   UNL     1       2.937   3.007  20.210  0.00  0.00    +0.000 A 
ATOM     10  C   UNL     1       4.125   3.121  19.510  0.00  0.00    +0.000 A 
ATOM     11  O   UNL     1       2.803   2.541  21.483  0.00  0.00    +0.000 OA
ATOM     12  C   UNL     1       1.386   2.735  21.694  0.00  0.00    +0.000 C 
ATOM     13  O   UNL     1       0.694   3.213  20.524  0.00  0.00    +0.000 OA
ENDBRANCH   3   5
BRANCH   2  14
ATOM     14  C   UNL     1       7.582   4.606  17.037  0.00  0.00    +0.000 C 
BRANCH  14  15
ATOM     15  O   UNL     1       7.532   5.766  16.208  0.00  0.00    +0.000 OA
BRANCH  15  16
ATOM     16  C   UNL     1       6.384   5.893  15.498  0.00  0.00    +0.000 C 
ATOM     17  O   UNL     1       5.441   6.616  15.763  0.00  0.00    +0.000 OA
BRANCH  16  18
ATOM     18  C   UNL     1       6.469   5.067  14.275  0.00  0.00    +0.000 A 
ATOM     19  C   UNL     1       5.470   4.124  14.046  0.00  0.00    +0.000 A 
ATOM     20  C   UNL     1       5.549   3.372  12.889  0.00  0.00    +0.000 A 
ATOM     21  N   UNL     1       6.548   3.496  11.985  0.00  0.00    +0.000 NA
ATOM     22  C   UNL     1       7.515   4.401  12.248  0.00  0.00    +0.000 A 
ATOM     23  C   UNL     1       7.521   5.205  13.370  0.00  0.00    +0.000 A 
ENDBRANCH  16  18
ENDBRANCH  15  16
ENDBRANCH  14  15
ENDBRANCH   2  14
TORSDOF 5
ENDMDL
MODEL 2
REMARK VINA RESULT:      -7.5      0.779      1.298
REMARK  Name = 
REMARK  5 active torsions:
REMARK  status: ('A' for Active; 'I' for Inactive)
REMARK    1  A    between atoms: C_2  and  C_3
REMARK    2  A    between atoms: C_3  and  O_4
REMARK    3  A    between atoms: O_4  and  C_5
REMARK    4  A    between atoms: C_5  and  C_7
REMARK    5  A    between atoms: N_13  and  C_14
REMARK                            x       y       z     vdW  Elec       q    Type
REMARK                         _______ _______ _______ _____ _____    ______ ____
ROOT
ATOM      1  O   UNL     1       5.968   5.887  18.801  0.00  0.00    +0.000 OA
ATOM      2  C   UNL     1       6.413   4.793  18.466  0.00  0.00    +0.000 C 
ATOM      3  N   UNL     1       5.739   3.581  18.525  0.00  0.00    +0.000 N 
ATOM      4  H   UNL     1       6.293   2.750  18.348  0.00  0.00    +0.000 HD
ENDROOT
BRANCH   3   5
ATOM      5  C   UNL     1       4.412   3.386  18.973  0.00  0.00    +0.000 A 
ATOM      6  C   UNL     1       3.287   3.627  18.157  0.00  0.00    +0.000 A 
ATOM      7  C   UNL     1       1.985   3.477  18.650  0.00  0.00    +0.000 A 
ATOM      8  C   UNL     1       1.837   3.087  19.959  0.00  0.00    +0.000 A 
ATOM      9  C   UNL     1       2.924   2.818  20.754  0.00  0.00    +0.000 A 
ATOM     10  C   UNL     1       4.221   2.938  20.288  0.00  0.00    +0.000 A 
ATOM     11  O   UNL     1       2.560   2.451  22.014  0.00  0.00    +0.000 OA
ATOM     12  C   UNL     1       1.123   2.587  21.931  0.00  0.00    +0.000 C 
ATOM     13  O   UNL     1       0.657   2.929  20.611  0.00  0.00    +0.000 OA
ENDBRANCH   3   5
BRANCH   2  14
ATOM     14  C   UNL     1       7.811   4.689  17.850  0.00  0.00    +0.000 C 
BRANCH  14  15
ATOM     15  O   UNL     1       7.844   4.364  16.460  0.00  0.00    +0.000 OA
BRANCH  15  16
ATOM     16  C   UNL     1       7.354   5.335  15.650  0.00  0.00    +0.000 C 
ATOM     17  O   UNL     1       7.338   6.530  15.877  0.00  0.00    +0.000 OA
BRANCH  16  18
ATOM     18  C   UNL     1       6.899   4.732  14.380  0.00  0.00    +0.000 A 
ATOM     19  C   UNL     1       7.681   4.918  13.243  0.00  0.00    +0.000 A 
ATOM     20  C   UNL     1       7.256   4.332  12.066  0.00  0.00    +0.000 A 
ATOM     21  N   UNL     1       6.118   3.607  11.963  0.00  0.00    +0.000 NA
ATOM     22  C   UNL     1       5.368   3.466  13.076  0.00  0.00    +0.000 A 
ATOM     23  C   UNL     1       5.711   4.004  14.300  0.00  0.00    +0.000 A 
ENDBRANCH  16  18
ENDBRANCH  15  16
ENDBRANCH  14  15
ENDBRANCH   2  14
TORSDOF 5
ENDMDL
MODEL 3
REMARK VINA RESULT:      -7.5      1.494      2.078
REMARK  Name = 
REMARK  5 active torsions:
REMARK  status: ('A' for Active; 'I' for Inactive)
REMARK    1  A    between atoms: C_2  and  C_3
REMARK    2  A    between atoms: C_3  and  O_4
REMARK    3  A    between atoms: O_4  and  C_5
REMARK    4  A    between atoms: C_5  and  C_7
REMARK    5  A    between atoms: N_13  and  C_14
REMARK                            x       y       z     vdW  Elec       q    Type
REMARK                         _______ _______ _______ _____ _____    ______ ____
ROOT
ATOM      1  O   UNL     1       4.532   6.960  16.621  0.00  0.00    +0.000 OA
ATOM      2  C   UNL     1       5.376   6.594  17.434  0.00  0.00    +0.000 C 
ATOM      3  N   UNL     1       5.160   5.753  18.517  0.00  0.00    +0.000 N 
ATOM      4  H   UNL     1       5.927   5.663  19.175  0.00  0.00    +0.000 HD
ENDROOT
BRANCH   3   5
ATOM      5  C   UNL     1       3.931   5.156  18.876  0.00  0.00    +0.000 A 
ATOM      6  C   UNL     1       3.167   5.584  19.982  0.00  0.00    +0.000 A 
ATOM      7  C   UNL     1       1.981   4.934  20.344  0.00  0.00    +0.000 A 
ATOM      8  C   UNL     1       1.582   3.860  19.585  0.00  0.00    +0.000 A 
ATOM      9  C   UNL     1       2.299   3.453  18.486  0.00  0.00    +0.000 A 
ATOM     10  C   UNL     1       3.463   4.089  18.093  0.00  0.00    +0.000 A 
ATOM     11  O   UNL     1       1.736   2.373  17.877  0.00  0.00    +0.000 OA
ATOM     12  C   UNL     1       0.623   2.114  18.761  0.00  0.00    +0.000 C 
ATOM     13  O   UNL     1       0.485   3.093  19.810  0.00  0.00    +0.000 OA
ENDBRANCH   3   5
BRANCH   2  14
ATOM     14  C   UNL     1       6.840   7.007  17.259  0.00  0.00    +0.000 C 
BRANCH  14  15
ATOM     15  O   UNL     1       7.495   6.468  16.111  0.00  0.00    +0.000 OA
BRANCH  15  16
ATOM     16  C   UNL     1       7.481   5.114  16.047  0.00  0.00    +0.000 C 
ATOM     17  O   UNL     1       7.696   4.341  16.963  0.00  0.00    +0.000 OA
BRANCH  16  18
ATOM     18  C   UNL     1       7.082   4.690  14.690  0.00  0.00    +0.000 A 
ATOM     19  C   UNL     1       5.962   3.872  14.556  0.00  0.00    +0.000 A 
ATOM     20  C   UNL     1       5.586   3.499  13.280  0.00  0.00    +0.000 A 
ATOM     21  N   UNL     1       6.255   3.873  12.165  0.00  0.00    +0.000 NA
ATOM     22  C   UNL     1       7.351   4.644  12.329  0.00  0.00    +0.000 A 
ATOM     23  C   UNL     1       7.803   5.077  13.560  0.00  0.00    +0.000 A 
ENDBRANCH  16  18
ENDBRANCH  15  16
ENDBRANCH  14  15
ENDBRANCH   2  14
TORSDOF 5
ENDMDL
MODEL 4
REMARK VINA RESULT:      -7.4      4.323      5.471
REMARK  Name = 
REMARK  5 active torsions:
REMARK  status: ('A' for Active; 'I' for Inactive)
REMARK    1  A    between atoms: C_2  and  C_3
REMARK    2  A    between atoms: C_3  and  O_4
REMARK    3  A    between atoms: O_4  and  C_5
REMARK    4  A    between atoms: C_5  and  C_7
REMARK    5  A    between atoms: N_13  and  C_14
REMARK                            x       y       z     vdW  Elec       q    Type
REMARK                         _______ _______ _______ _____ _____    ______ ____
ROOT
ATOM      1  O   UNL     1       1.705   4.985  18.346  0.00  0.00    +0.000 OA
ATOM      2  C   UNL     1       2.524   5.213  19.231  0.00  0.00    +0.000 C 
ATOM      3  N   UNL     1       2.784   6.448  19.809  0.00  0.00    +0.000 N 
ATOM      4  H   UNL     1       3.589   6.495  20.425  0.00  0.00    +0.000 HD
ENDROOT
BRANCH   3   5
ATOM      5  C   UNL     1       2.147   7.669  19.490  0.00  0.00    +0.000 A 
ATOM      6  C   UNL     1       2.258   8.281  18.225  0.00  0.00    +0.000 A 
ATOM      7  C   UNL     1       1.659   9.519  17.959  0.00  0.00    +0.000 A 
ATOM      8  C   UNL     1       0.957  10.121  18.975  0.00  0.00    +0.000 A 
ATOM      9  C   UNL     1       0.814   9.520  20.202  0.00  0.00    +0.000 A 
ATOM     10  C   UNL     1       1.377   8.289  20.486  0.00  0.00    +0.000 A 
ATOM     11  O   UNL     1       0.088  10.283  21.065  0.00  0.00    +0.000 OA
ATOM     12  C   UNL     1      -0.149  11.457  20.256  0.00  0.00    +0.000 C 
ATOM     13  O   UNL     1       0.347  11.332  18.908  0.00  0.00    +0.000 OA
ENDBRANCH   3   5
BRANCH   2  14
ATOM     14  C   UNL     1       3.319   4.063  19.857  0.00  0.00    +0.000 C 
BRANCH  14  15
ATOM     15  O   UNL     1       4.643   3.889  19.353  0.00  0.00    +0.000 OA
BRANCH  15  16
ATOM     16  C   UNL     1       4.697   3.517  18.050  0.00  0.00    +0.000 C 
ATOM     17  O   UNL     1       4.023   2.659  17.511  0.00  0.00    +0.000 OA
BRANCH  16  18
ATOM     18  C   UNL     1       5.663   4.375  17.334  0.00  0.00    +0.000 A 
ATOM     19  C   UNL     1       5.976   4.059  16.014  0.00  0.00    +0.000 A 
ATOM     20  C   UNL     1       6.865   4.881  15.348  0.00  0.00    +0.000 A 
ATOM     21  N   UNL     1       7.452   5.960  15.915  0.00  0.00    +0.000 NA
ATOM     22  C   UNL     1       7.149   6.226  17.203  0.00  0.00    +0.000 A 
ATOM     23  C   UNL     1       6.267   5.471  17.951  0.00  0.00    +0.000 A 
ENDBRANCH  16  18
ENDBRANCH  15  16
ENDBRANCH  14  15
ENDBRANCH   2  14
TORSDOF 5
ENDMDL
MODEL 5
REMARK VINA RESULT:      -7.3      1.427      2.132
REMARK  Name = 
REMARK  5 active torsions:
REMARK  status: ('A' for Active; 'I' for Inactive)
REMARK    1  A    between atoms: C_2  and  C_3
REMARK    2  A    between atoms: C_3  and  O_4
REMARK    3  A    between atoms: O_4  and  C_5
REMARK    4  A    between atoms: C_5  and  C_7
REMARK    5  A    between atoms: N_13  and  C_14
REMARK                            x       y       z     vdW  Elec       q    Type
REMARK                         _______ _______ _______ _____ _____    ______ ____
ROOT
ATOM      1  O   UNL     1       6.556   5.310  19.497  0.00  0.00    +0.000 OA
ATOM      2  C   UNL     1       6.234   5.876  18.457  0.00  0.00    +0.000 C 
ATOM      3  N   UNL     1       4.957   5.925  17.913  0.00  0.00    +0.000 N 
ATOM      4  H   UNL     1       4.883   6.310  16.977  0.00  0.00    +0.000 HD
ENDROOT
BRANCH   3   5
ATOM      5  C   UNL     1       3.794   5.340  18.462  0.00  0.00    +0.000 A 
ATOM      6  C   UNL     1       3.153   5.846  19.612  0.00  0.00    +0.000 A 
ATOM      7  C   UNL     1       2.034   5.208  20.162  0.00  0.00    +0.000 A 
ATOM      8  C   UNL     1       1.578   4.069  19.544  0.00  0.00    +0.000 A 
ATOM      9  C   UNL     1       2.173   3.584  18.405  0.00  0.00    +0.000 A 
ATOM     10  C   UNL     1       3.267   4.205  17.827  0.00  0.00    +0.000 A 
ATOM     11  O   UNL     1       1.572   2.448  17.955  0.00  0.00    +0.000 OA
ATOM     12  C   UNL     1       0.576   2.245  18.983  0.00  0.00    +0.000 C 
ATOM     13  O   UNL     1       0.535   3.305  19.958  0.00  0.00    +0.000 OA
ENDBRANCH   3   5
BRANCH   2  14
ATOM     14  C   UNL     1       7.268   6.686  17.670  0.00  0.00    +0.000 C 
BRANCH  14  15
ATOM     15  O   UNL     1       7.401   6.335  16.293  0.00  0.00    +0.000 OA
BRANCH  15  16
ATOM     16  C   UNL     1       7.614   5.014  16.074  0.00  0.00    +0.000 C 
ATOM     17  O   UNL     1       8.070   4.210  16.866  0.00  0.00    +0.000 OA
BRANCH  16  18
ATOM     18  C   UNL     1       7.129   4.655  14.725  0.00  0.00    +0.000 A 
ATOM     19  C   UNL     1       7.830   5.137  13.622  0.00  0.00    +0.000 A 
ATOM     20  C   UNL     1       7.379   4.777  12.366  0.00  0.00    +0.000 A 
ATOM     21  N   UNL     1       6.291   4.000  12.158  0.00  0.00    +0.000 NA
ATOM     22  C   UNL     1       5.618   3.570  13.246  0.00  0.00    +0.000 A 
ATOM     23  C   UNL     1       5.993   3.867  14.541  0.00  0.00    +0.000 A 
ENDBRANCH  16  18
ENDBRANCH  15  16
ENDBRANCH  14  15
ENDBRANCH   2  14
TORSDOF 5
ENDMDL
MODEL 6
REMARK VINA RESULT:      -7.3      1.107      1.881
REMARK  Name = 
REMARK  5 active torsions:
REMARK  status: ('A' for Active; 'I' for Inactive)
REMARK    1  A    between atoms: C_2  and  C_3
REMARK    2  A    between atoms: C_3  and  O_4
REMARK    3  A    between atoms: O_4  and  C_5
REMARK    4  A    between atoms: C_5  and  C_7
REMARK    5  A    between atoms: N_13  and  C_14
REMARK                            x       y       z     vdW  Elec       q    Type
REMARK                         _______ _______ _______ _____ _____    ______ ____
ROOT
ATOM      1  O   UNL     1       3.843   7.110  17.628  0.00  0.00    +0.000 OA
ATOM      2  C   UNL     1       4.352   6.217  16.957  0.00  0.00    +0.000 C 
ATOM      3  N   UNL     1       4.110   4.856  17.088  0.00  0.00    +0.000 N 
ATOM      4  H   UNL     1       4.716   4.240  16.556  0.00  0.00    +0.000 HD
ENDROOT
BRANCH   3   5
ATOM      5  C   UNL     1       3.228   4.250  18.011  0.00  0.00    +0.000 A 
ATOM      6  C   UNL     1       1.847   4.102  17.764  0.00  0.00    +0.000 A 
ATOM      7  C   UNL     1       0.991   3.548  18.724  0.00  0.00    +0.000 A 
ATOM      8  C   UNL     1       1.540   3.152  19.919  0.00  0.00    +0.000 A 
ATOM      9  C   UNL     1       2.888   3.260  20.159  0.00  0.00    +0.000 A 
ATOM     10  C   UNL     1       3.761   3.784  19.222  0.00  0.00    +0.000 A 
ATOM     11  O   UNL     1       3.225   2.815  21.402  0.00  0.00    +0.000 OA
ATOM     12  C   UNL     1       1.923   2.479  21.931  0.00  0.00    +0.000 C 
ATOM     13  O   UNL     1       0.859   2.632  20.971  0.00  0.00    +0.000 OA
ENDBRANCH   3   5
BRANCH   2  14
ATOM     14  C   UNL     1       5.296   6.565  15.803  0.00  0.00    +0.000 C 
BRANCH  14  15
ATOM     15  O   UNL     1       6.688   6.460  16.097  0.00  0.00    +0.000 OA
BRANCH  15  16
ATOM     16  C   UNL     1       7.193   5.209  15.956  0.00  0.00    +0.000 C 
ATOM     17  O   UNL     1       7.664   4.513  16.836  0.00  0.00    +0.000 OA
BRANCH  16  18
ATOM     18  C   UNL     1       7.018   4.763  14.559  0.00  0.00    +0.000 A 
ATOM     19  C   UNL     1       7.798   5.360  13.572  0.00  0.00    +0.000 A 
ATOM     20  C   UNL     1       7.640   4.919  12.271  0.00  0.00    +0.000 A 
ATOM     21  N   UNL     1       6.760   3.956  11.912  0.00  0.00    +0.000 NA
ATOM     22  C   UNL     1       5.999   3.414  12.887  0.00  0.00    +0.000 A 
ATOM     23  C   UNL     1       6.089   3.780  14.216  0.00  0.00    +0.000 A 
ENDBRANCH  16  18
ENDBRANCH  15  16
ENDBRANCH  14  15
ENDBRANCH   2  14
TORSDOF 5
ENDMDL
MODEL 7
REMARK VINA RESULT:      -7.3      1.151      1.585
REMARK  Name = 
REMARK  5 active torsions:
REMARK  status: ('A' for Active; 'I' for Inactive)
REMARK    1  A    between atoms: C_2  and  C_3
REMARK    2  A    between atoms: C_3  and  O_4
REMARK    3  A    between atoms: O_4  and  C_5
REMARK    4  A    between atoms: C_5  and  C_7
REMARK    5  A    between atoms: N_13  and  C_14
REMARK                            x       y       z     vdW  Elec       q    Type
REMARK                         _______ _______ _______ _____ _____    ______ ____
ROOT
ATOM      1  O   UNL     1       3.942   7.149  17.856  0.00  0.00    +0.000 OA
ATOM      2  C   UNL     1       4.369   6.295  17.084  0.00  0.00    +0.000 C 
ATOM      3  N   UNL     1       4.062   4.941  17.108  0.00  0.00    +0.000 N 
ATOM      4  H   UNL     1       4.607   4.347  16.493  0.00  0.00    +0.000 HD
ENDROOT
BRANCH   3   5
ATOM      5  C   UNL     1       3.194   4.299  18.021  0.00  0.00    +0.000 A 
ATOM      6  C   UNL     1       1.825   4.091  17.756  0.00  0.00    +0.000 A 
ATOM      7  C   UNL     1       0.981   3.501  18.705  0.00  0.00    +0.000 A 
ATOM      8  C   UNL     1       1.531   3.131  19.908  0.00  0.00    +0.000 A 
ATOM      9  C   UNL     1       2.870   3.299  20.166  0.00  0.00    +0.000 A 
ATOM     10  C   UNL     1       3.731   3.859  19.240  0.00  0.00    +0.000 A 
ATOM     11  O   UNL     1       3.210   2.871  21.414  0.00  0.00    +0.000 OA
ATOM     12  C   UNL     1       1.916   2.478  21.927  0.00  0.00    +0.000 C 
ATOM     13  O   UNL     1       0.859   2.583  20.953  0.00  0.00    +0.000 OA
ENDBRANCH   3   5
BRANCH   2  14
ATOM     14  C   UNL     1       5.272   6.699  15.916  0.00  0.00    +0.000 C 
BRANCH  14  15
ATOM     15  O   UNL     1       6.666   6.462  16.109  0.00  0.00    +0.000 OA
BRANCH  15  16
ATOM     16  C   UNL     1       7.031   5.161  15.990  0.00  0.00    +0.000 C 
ATOM     17  O   UNL     1       7.309   4.399  16.896  0.00  0.00    +0.000 OA
BRANCH  16  18
ATOM     18  C   UNL     1       6.966   4.761  14.569  0.00  0.00    +0.000 A 
ATOM     19  C   UNL     1       6.070   3.758  14.205  0.00  0.00    +0.000 A 
ATOM     20  C   UNL     1       6.004   3.407  12.871  0.00  0.00    +0.000 A 
ATOM     21  N   UNL     1       6.770   3.974  11.911  0.00  0.00    +0.000 NA
ATOM     22  C   UNL     1       7.647   4.926  12.298  0.00  0.00    +0.000 A 
ATOM     23  C   UNL     1       7.782   5.352  13.604  0.00  0.00    +0.000 A 
ENDBRANCH  16  18
ENDBRANCH  15  16
ENDBRANCH  14  15
ENDBRANCH   2  14
TORSDOF 5
ENDMDL
MODEL 8
REMARK VINA RESULT:      -7.3      1.347      1.844
REMARK  Name = 
REMARK  5 active torsions:
REMARK  status: ('A' for Active; 'I' for Inactive)
REMARK    1  A    between atoms: C_2  and  C_3
REMARK    2  A    between atoms: C_3  and  O_4
REMARK    3  A    between atoms: O_4  and  C_5
REMARK    4  A    between atoms: C_5  and  C_7
REMARK    5  A    between atoms: N_13  and  C_14
REMARK                            x       y       z     vdW  Elec       q    Type
REMARK                         _______ _______ _______ _____ _____    ______ ____
ROOT
ATOM      1  O   UNL     1       5.835   5.584  17.878  0.00  0.00    +0.000 OA
ATOM      2  C   UNL     1       5.939   4.582  17.176  0.00  0.00    +0.000 C 
ATOM      3  N   UNL     1       5.070   3.499  17.161  0.00  0.00    +0.000 N 
ATOM      4  H   UNL     1       5.372   2.689  16.631  0.00  0.00    +0.000 HD
ENDROOT
BRANCH   3   5
ATOM      5  C   UNL     1       3.902   3.357  17.944  0.00  0.00    +0.000 A 
ATOM      6  C   UNL     1       2.609   3.606  17.439  0.00  0.00    +0.000 A 
ATOM      7  C   UNL     1       1.476   3.509  18.258  0.00  0.00    +0.000 A 
ATOM      8  C   UNL     1       1.666   3.162  19.574  0.00  0.00    +0.000 A 
ATOM      9  C   UNL     1       2.916   2.885  20.069  0.00  0.00    +0.000 A 
ATOM     10  C   UNL     1       4.050   2.953  19.279  0.00  0.00    +0.000 A 
ATOM     11  O   UNL     1       2.885   2.566  21.393  0.00  0.00    +0.000 OA
ATOM     12  C   UNL     1       1.479   2.741  21.680  0.00  0.00    +0.000 C 
ATOM     13  O   UNL     1       0.692   3.058  20.515  0.00  0.00    +0.000 OA
ENDBRANCH   3   5
BRANCH   2  14
ATOM     14  C   UNL     1       7.067   4.479  16.146  0.00  0.00    +0.000 C 
BRANCH  14  15
ATOM     15  O   UNL     1       6.773   3.689  14.994  0.00  0.00    +0.000 OA
BRANCH  15  16
ATOM     16  C   UNL     1       6.811   4.376  13.825  0.00  0.00    +0.000 C 
ATOM     17  O   UNL     1       7.405   5.417  13.613  0.00  0.00    +0.000 OA
BRANCH  16  18
ATOM     18  C   UNL     1       6.074   3.624  12.789  0.00  0.00    +0.000 A 
ATOM     19  C   UNL     1       6.722   2.568  12.153  0.00  0.00    +0.000 A 
ATOM     20  C   UNL     1       6.016   1.859  11.200  0.00  0.00    +0.000 A 
ATOM     21  N   UNL     1       4.742   2.148  10.848  0.00  0.00    +0.000 NA
ATOM     22  C   UNL     1       4.149   3.193  11.463  0.00  0.00    +0.000 A 
ATOM     23  C   UNL     1       4.767   3.956  12.434  0.00  0.00    +0.000 A 
ENDBRANCH  16  18
ENDBRANCH  15  16
ENDBRANCH  14  15
ENDBRANCH   2  14
TORSDOF 5
ENDMDL
MODEL 9
REMARK VINA RESULT:      -7.3      4.147      5.229
REMARK  Name = 
REMARK  5 active torsions:
REMARK  status: ('A' for Active; 'I' for Inactive)
REMARK    1  A    between atoms: C_2  and  C_3
REMARK    2  A    between atoms: C_3  and  O_4
REMARK    3  A    between atoms: O_4  and  C_5
REMARK    4  A    between atoms: C_5  and  C_7
REMARK    5  A    between atoms: N_13  and  C_14
REMARK                            x       y       z     vdW  Elec       q    Type
REMARK                         _______ _______ _______ _____ _____    ______ ____
ROOT
ATOM      1  O   UNL     1       1.931   4.806  18.321  0.00  0.00    +0.000 OA
ATOM      2  C   UNL     1       2.722   5.048  19.227  0.00  0.00    +0.000 C 
ATOM      3  N   UNL     1       2.905   6.276  19.850  0.00  0.00    +0.000 N 
ATOM      4  H   UNL     1       3.696   6.346  20.480  0.00  0.00    +0.000 HD
ENDROOT
BRANCH   3   5
ATOM      5  C   UNL     1       2.206   7.470  19.559  0.00  0.00    +0.000 A 
ATOM      6  C   UNL     1       2.228   8.078  18.287  0.00  0.00    +0.000 A 
ATOM      7  C   UNL     1       1.570   9.291  18.048  0.00  0.00    +0.000 A 
ATOM      8  C   UNL     1       0.900   9.873  19.097  0.00  0.00    +0.000 A 
ATOM      9  C   UNL     1       0.844   9.275  20.332  0.00  0.00    +0.000 A 
ATOM     10  C   UNL     1       1.467   8.067  20.592  0.00  0.00    +0.000 A 
ATOM     11  O   UNL     1       0.136  10.016  21.229  0.00  0.00    +0.000 OA
ATOM     12  C   UNL     1      -0.187  11.175  20.428  0.00  0.00    +0.000 C 
ATOM     13  O   UNL     1       0.243  11.060  19.057  0.00  0.00    +0.000 OA
ENDBRANCH   3   5
BRANCH   2  14
ATOM     14  C   UNL     1       3.569   3.923  19.829  0.00  0.00    +0.000 C 
BRANCH  14  15
ATOM     15  O   UNL     1       4.733   3.567  19.083  0.00  0.00    +0.000 OA
BRANCH  15  16
ATOM     16  C   UNL     1       5.613   4.584  18.909  0.00  0.00    +0.000 C 
ATOM     17  O   UNL     1       6.353   5.057  19.752  0.00  0.00    +0.000 OA
BRANCH  16  18
ATOM     18  C   UNL     1       5.609   5.001  17.492  0.00  0.00    +0.000 A 
ATOM     19  C   UNL     1       5.985   4.068  16.528  0.00  0.00    +0.000 A 
ATOM     20  C   UNL     1       5.957   4.463  15.204  0.00  0.00    +0.000 A 
ATOM     21  N   UNL     1       5.600   5.706  14.804  0.00  0.00    +0.000 NA
ATOM     22  C   UNL     1       5.265   6.595  15.762  0.00  0.00    +0.000 A 
ATOM     23  C   UNL     1       5.253   6.295  17.110  0.00  0.00    +0.000 A 
ENDBRANCH  16  18
ENDBRANCH  15  16
ENDBRANCH  14  15
ENDBRANCH   2  14
TORSDOF 5
ENDMDL
