MODEL 1
REMARK VINA RESULT:      -7.9      0.000      0.000
REMARK  Name = 
REMARK  7 active torsions:
REMARK  status: ('A' for Active; 'I' for Inactive)
REMARK    1  A    between atoms: C_1  and  C_2
REMARK    2  A    between atoms: C_6  and  N_7
REMARK    3  A    between atoms: N_7  and  C_8
REMARK    4  A    between atoms: C_8  and  C_9
REMARK    5  A    between atoms: C_9  and  C_10
REMARK    6  A    between atoms: N_18  and  C_19
REMARK    7  A    between atoms: C_19  and  C_20
REMARK                            x       y       z     vdW  Elec       q    Type
REMARK                         _______ _______ _______ _____ _____    ______ ____
ROOT
ATOM      1  C   UNL     1       1.436   2.675  21.717  0.00  0.00    +0.000 C 
ATOM      2  C   UNL     1       1.806   3.690  20.681  0.00  0.00    +0.000 A 
ATOM      3  N   UNL     1       2.099   3.243  19.452  0.00  0.00    +0.000 NA
ATOM      4  C   UNL     1       2.437   4.171  18.536  0.00  0.00    +0.000 A 
ATOM      5  C   UNL     1       2.448   5.531  18.817  0.00  0.00    +0.000 A 
ATOM      6  C   UNL     1       2.173   5.893  20.133  0.00  0.00    +0.000 A 
ATOM      7  N   UNL     1       1.850   4.979  21.062  0.00  0.00    +0.000 NA
ATOM      8  C   UNL     1       2.904   6.501  17.762  0.00  0.00    +0.000 C 
ATOM      9  C   UNL     1       4.411   6.356  17.514  0.00  0.00    +0.000 C 
ATOM     10  N   UNL     1       4.786   5.299  16.542  0.00  0.00    +0.000 NA
ATOM     11  C   UNL     1       4.436   3.937  17.009  0.00  0.00    +0.000 C 
ATOM     12  C   UNL     1       2.935   3.660  17.209  0.00  0.00    +0.000 C 
ENDROOT
BRANCH   6  13
ATOM     13  N   UNL     1       2.300   7.239  20.514  0.00  0.00    +0.000 N 
ATOM     14  H   UNL     1       2.769   7.749  19.770  0.00  0.00    +0.000 HD
BRANCH  13  15
ATOM     15  C   UNL     1       1.087   7.929  20.973  0.00  0.00    +0.000 C 
BRANCH  15  16
ATOM     16  C   UNL     1       1.406   8.912  22.103  0.00  0.00    +0.000 C 
BRANCH  16  17
ATOM     17  C   UNL     1       0.384  10.003  22.196  0.00  0.00    +0.000 A 
ATOM     18  N   UNL     1      -0.319  10.270  23.280  0.00  0.00    +0.000 NA
ATOM     19  C   UNL     1      -1.212  11.289  23.018  0.00  0.00    +0.000 A 
ATOM     20  C   UNL     1      -1.170  11.807  21.742  0.00  0.00    +0.000 A 
ATOM     21  S   UNL     1       0.028  10.987  20.829  0.00  0.00    +0.000 S 
ENDBRANCH  16  17
ENDBRANCH  15  16
ENDBRANCH  13  15
ENDBRANCH   6  13
BRANCH  10  22
ATOM     22  C   UNL     1       6.240   5.426  16.295  0.00  0.00    +0.000 C 
BRANCH  22  23
ATOM     23  C   UNL     1       6.774   4.469  15.269  0.00  0.00    +0.000 C 
ATOM     24  C   UNL     1       6.047   4.187  13.980  0.00  0.00    +0.000 C 
ATOM     25  C   UNL     1       7.312   4.995  13.959  0.00  0.00    +0.000 C 
ENDBRANCH  22  23
ENDBRANCH  10  22
TORSDOF 6
ENDMDL
MODEL 2
REMARK VINA RESULT:      -7.4      1.508      2.028
REMARK  Name = 
REMARK  7 active torsions:
REMARK  status: ('A' for Active; 'I' for Inactive)
REMARK    1  A    between atoms: C_1  and  C_2
REMARK    2  A    between atoms: C_6  and  N_7
REMARK    3  A    between atoms: N_7  and  C_8
REMARK    4  A    between atoms: C_8  and  C_9
REMARK    5  A    between atoms: C_9  and  C_10
REMARK    6  A    between atoms: N_18  and  C_19
REMARK    7  A    between atoms: C_19  and  C_20
REMARK                            x       y       z     vdW  Elec       q    Type
REMARK                         _______ _______ _______ _____ _____    ______ ____
ROOT
ATOM      1  C   UNL     1       1.621   2.650  21.668  0.00  0.00    +0.000 C 
ATOM      2  C   UNL     1       1.864   3.763  20.699  0.00  0.00    +0.000 A 
ATOM      3  N   UNL     1       2.242   3.432  19.456  0.00  0.00    +0.000 NA
ATOM      4  C   UNL     1       2.464   4.448  18.600  0.00  0.00    +0.000 A 
ATOM      5  C   UNL     1       2.275   5.778  18.952  0.00  0.00    +0.000 A 
ATOM      6  C   UNL     1       1.925   6.023  20.278  0.00  0.00    +0.000 A 
ATOM      7  N   UNL     1       1.717   5.022  21.148  0.00  0.00    +0.000 NA
ATOM      8  C   UNL     1       2.610   6.860  17.964  0.00  0.00    +0.000 C 
ATOM      9  C   UNL     1       4.127   6.943  17.750  0.00  0.00    +0.000 C 
ATOM     10  N   UNL     1       4.668   6.006  16.734  0.00  0.00    +0.000 NA
ATOM     11  C   UNL     1       4.506   4.584  17.120  0.00  0.00    +0.000 C 
ATOM     12  C   UNL     1       3.055   4.087  17.262  0.00  0.00    +0.000 C 
ENDROOT
BRANCH   6  13
ATOM     13  N   UNL     1       1.852   7.350  20.733  0.00  0.00    +0.000 N 
ATOM     14  H   UNL     1       2.138   7.972  19.981  0.00  0.00    +0.000 HD
BRANCH  13  15
ATOM     15  C   UNL     1       0.594   7.783  21.355  0.00  0.00    +0.000 C 
BRANCH  15  16
ATOM     16  C   UNL     1       0.787   9.081  22.146  0.00  0.00    +0.000 C 
BRANCH  16  17
ATOM     17  C   UNL     1       0.440  10.286  21.329  0.00  0.00    +0.000 A 
ATOM     18  N   UNL     1       0.881  10.504  20.104  0.00  0.00    +0.000 NA
ATOM     19  C   UNL     1       0.429  11.728  19.656  0.00  0.00    +0.000 A 
ATOM     20  C   UNL     1      -0.372  12.427  20.533  0.00  0.00    +0.000 A 
ATOM     21  S   UNL     1      -0.565  11.524  21.978  0.00  0.00    +0.000 S 
ENDBRANCH  16  17
ENDBRANCH  15  16
ENDBRANCH  13  15
ENDBRANCH   6  13
BRANCH  10  22
ATOM     22  C   UNL     1       6.094   6.350  16.535  0.00  0.00    +0.000 C 
BRANCH  22  23
ATOM     23  C   UNL     1       6.686   7.172  17.643  0.00  0.00    +0.000 C 
ATOM     24  C   UNL     1       7.940   6.758  18.367  0.00  0.00    +0.000 C 
ATOM     25  C   UNL     1       7.980   7.918  17.415  0.00  0.00    +0.000 C 
ENDBRANCH  22  23
ENDBRANCH  10  22
TORSDOF 6
ENDMDL
MODEL 3
REMARK VINA RESULT:      -7.2      2.781      7.143
REMARK  Name = 
REMARK  7 active torsions:
REMARK  status: ('A' for Active; 'I' for Inactive)
REMARK    1  A    between atoms: C_1  and  C_2
REMARK    2  A    between atoms: C_6  and  N_7
REMARK    3  A    between atoms: N_7  and  C_8
REMARK    4  A    between atoms: C_8  and  C_9
REMARK    5  A    between atoms: C_9  and  C_10
REMARK    6  A    between atoms: N_18  and  C_19
REMARK    7  A    between atoms: C_19  and  C_20
REMARK                            x       y       z     vdW  Elec       q    Type
REMARK                         _______ _______ _______ _____ _____    ______ ____
ROOT
ATOM      1  C   UNL     1       1.260   2.967  21.093  0.00  0.00    +0.000 C 
ATOM      2  C   UNL     1       1.815   4.139  20.348  0.00  0.00    +0.000 A 
ATOM      3  N   UNL     1       1.683   5.349  20.908  0.00  0.00    +0.000 NA
ATOM      4  C   UNL     1       2.181   6.393  20.218  0.00  0.00    +0.000 A 
ATOM      5  C   UNL     1       2.840   6.243  19.005  0.00  0.00    +0.000 A 
ATOM      6  C   UNL     1       2.887   4.953  18.483  0.00  0.00    +0.000 A 
ATOM      7  N   UNL     1       2.380   3.903  19.150  0.00  0.00    +0.000 NA
ATOM      8  C   UNL     1       3.307   7.462  18.261  0.00  0.00    +0.000 C 
ATOM      9  C   UNL     1       2.110   8.253  17.719  0.00  0.00    +0.000 C 
ATOM     10  N   UNL     1       1.507   9.211  18.678  0.00  0.00    +0.000 NA
ATOM     11  C   UNL     1       0.905   8.543  19.856  0.00  0.00    +0.000 C 
ATOM     12  C   UNL     1       1.880   7.766  20.760  0.00  0.00    +0.000 C 
ENDROOT
BRANCH   6  13
ATOM     13  N   UNL     1       3.418   4.752  17.198  0.00  0.00    +0.000 N 
ATOM     14  H   UNL     1       3.740   5.645  16.832  0.00  0.00    +0.000 HD
BRANCH  13  15
ATOM     15  C   UNL     1       4.429   3.699  17.041  0.00  0.00    +0.000 C 
BRANCH  15  16
ATOM     16  C   UNL     1       5.684   4.237  16.346  0.00  0.00    +0.000 C 
BRANCH  16  17
ATOM     17  C   UNL     1       6.549   5.017  17.286  0.00  0.00    +0.000 A 
ATOM     18  N   UNL     1       7.069   4.526  18.395  0.00  0.00    +0.000 NA
ATOM     19  C   UNL     1       7.761   5.515  19.064  0.00  0.00    +0.000 A 
ATOM     20  C   UNL     1       7.783   6.748  18.450  0.00  0.00    +0.000 A 
ATOM     21  S   UNL     1       6.900   6.674  16.982  0.00  0.00    +0.000 S 
ENDBRANCH  16  17
ENDBRANCH  15  16
ENDBRANCH  13  15
ENDBRANCH   6  13
BRANCH  10  22
ATOM     22  C   UNL     1       0.500  10.001  17.935  0.00  0.00    +0.000 C 
BRANCH  22  23
ATOM     23  C   UNL     1      -0.730  10.332  18.731  0.00  0.00    +0.000 C 
ATOM     24  C   UNL     1      -1.540  11.576  18.476  0.00  0.00    +0.000 C 
ATOM     25  C   UNL     1      -2.091  10.235  18.084  0.00  0.00    +0.000 C 
ENDBRANCH  22  23
ENDBRANCH  10  22
TORSDOF 6
ENDMDL
MODEL 4
REMARK VINA RESULT:      -7.2      3.303      5.593
REMARK  Name = 
REMARK  7 active torsions:
REMARK  status: ('A' for Active; 'I' for Inactive)
REMARK    1  A    between atoms: C_1  and  C_2
REMARK    2  A    between atoms: C_6  and  N_7
REMARK    3  A    between atoms: N_7  and  C_8
REMARK    4  A    between atoms: C_8  and  C_9
REMARK    5  A    between atoms: C_9  and  C_10
REMARK    6  A    between atoms: N_18  and  C_19
REMARK    7  A    between atoms: C_19  and  C_20
REMARK                            x       y       z     vdW  Elec       q    Type
REMARK                         _______ _______ _______ _____ _____    ______ ____
ROOT
ATOM      1  C   UNL     1       1.234   9.062  18.082  0.00  0.00    +0.000 C 
ATOM      2  C   UNL     1       2.347   8.069  18.194  0.00  0.00    +0.000 A 
ATOM      3  N   UNL     1       3.362   8.173  17.325  0.00  0.00    +0.000 NA
ATOM      4  C   UNL     1       4.350   7.264  17.436  0.00  0.00    +0.000 A 
ATOM      5  C   UNL     1       4.359   6.285  18.421  0.00  0.00    +0.000 A 
ATOM      6  C   UNL     1       3.240   6.230  19.248  0.00  0.00    +0.000 A 
ATOM      7  N   UNL     1       2.239   7.117  19.139  0.00  0.00    +0.000 NA
ATOM      8  C   UNL     1       5.462   5.264  18.439  0.00  0.00    +0.000 C 
ATOM      9  C   UNL     1       5.334   4.314  17.241  0.00  0.00    +0.000 C 
ATOM     10  N   UNL     1       5.960   4.801  15.986  0.00  0.00    +0.000 NA
ATOM     11  C   UNL     1       5.313   6.024  15.458  0.00  0.00    +0.000 C 
ATOM     12  C   UNL     1       5.400   7.273  16.356  0.00  0.00    +0.000 C 
ENDROOT
BRANCH   6  13
ATOM     13  N   UNL     1       3.124   5.180  20.174  0.00  0.00    +0.000 N 
ATOM     14  H   UNL     1       3.899   5.235  20.831  0.00  0.00    +0.000 HD
BRANCH  13  15
ATOM     15  C   UNL     1       1.835   5.021  20.858  0.00  0.00    +0.000 C 
BRANCH  15  16
ATOM     16  C   UNL     1       1.193   3.672  20.521  0.00  0.00    +0.000 C 
BRANCH  16  17
ATOM     17  C   UNL     1       1.954   2.946  19.456  0.00  0.00    +0.000 A 
ATOM     18  N   UNL     1       1.612   2.929  18.181  0.00  0.00    +0.000 NA
ATOM     19  C   UNL     1       2.481   2.123  17.475  0.00  0.00    +0.000 A 
ATOM     20  C   UNL     1       3.494   1.547  18.211  0.00  0.00    +0.000 A 
ATOM     21  S   UNL     1       3.354   2.025  19.852  0.00  0.00    +0.000 S 
ENDBRANCH  16  17
ENDBRANCH  15  16
ENDBRANCH  13  15
ENDBRANCH   6  13
BRANCH  10  22
ATOM     22  C   UNL     1       5.899   3.693  15.006  0.00  0.00    +0.000 C 
BRANCH  22  23
ATOM     23  C   UNL     1       5.790   4.143  13.578  0.00  0.00    +0.000 C 
ATOM     24  C   UNL     1       6.776   3.713  12.524  0.00  0.00    +0.000 C 
ATOM     25  C   UNL     1       5.381   3.157  12.509  0.00  0.00    +0.000 C 
ENDBRANCH  22  23
ENDBRANCH  10  22
TORSDOF 6
ENDMDL
MODEL 5
REMARK VINA RESULT:      -7.1      0.942      1.100
REMARK  Name = 
REMARK  7 active torsions:
REMARK  status: ('A' for Active; 'I' for Inactive)
REMARK    1  A    between atoms: C_1  and  C_2
REMARK    2  A    between atoms: C_6  and  N_7
REMARK    3  A    between atoms: N_7  and  C_8
REMARK    4  A    between atoms: C_8  and  C_9
REMARK    5  A    between atoms: C_9  and  C_10
REMARK    6  A    between atoms: N_18  and  C_19
REMARK    7  A    between atoms: C_19  and  C_20
REMARK                            x       y       z     vdW  Elec       q    Type
REMARK                         _______ _______ _______ _____ _____    ______ ____
ROOT
ATOM      1  C   UNL     1       1.476   2.513  22.005  0.00  0.00    +0.000 C 
ATOM      2  C   UNL     1       1.781   3.480  20.906  0.00  0.00    +0.000 A 
ATOM      3  N   UNL     1       1.979   2.981  19.678  0.00  0.00    +0.000 NA
ATOM      4  C   UNL     1       2.261   3.867  18.703  0.00  0.00    +0.000 A 
ATOM      5  C   UNL     1       2.307   5.237  18.926  0.00  0.00    +0.000 A 
ATOM      6  C   UNL     1       2.132   5.654  20.243  0.00  0.00    +0.000 A 
ATOM      7  N   UNL     1       1.867   4.783  21.230  0.00  0.00    +0.000 NA
ATOM      8  C   UNL     1       2.696   6.157  17.804  0.00  0.00    +0.000 C 
ATOM      9  C   UNL     1       4.179   5.982  17.454  0.00  0.00    +0.000 C 
ATOM     10  N   UNL     1       4.472   4.882  16.501  0.00  0.00    +0.000 NA
ATOM     11  C   UNL     1       4.142   3.545  17.048  0.00  0.00    +0.000 C 
ATOM     12  C   UNL     1       2.655   3.297  17.365  0.00  0.00    +0.000 C 
ENDROOT
BRANCH   6  13
ATOM     13  N   UNL     1       2.300   7.012  20.560  0.00  0.00    +0.000 N 
ATOM     14  H   UNL     1       2.701   7.490  19.756  0.00  0.00    +0.000 HD
BRANCH  13  15
ATOM     15  C   UNL     1       1.140   7.730  21.103  0.00  0.00    +0.000 C 
BRANCH  15  16
ATOM     16  C   UNL     1       1.012   9.124  20.482  0.00  0.00    +0.000 C 
BRANCH  16  17
ATOM     17  C   UNL     1       0.097  10.004  21.275  0.00  0.00    +0.000 A 
ATOM     18  N   UNL     1      -0.485  11.089  20.799  0.00  0.00    +0.000 NA
ATOM     19  C   UNL     1      -1.212  11.705  21.797  0.00  0.00    +0.000 A 
ATOM     20  C   UNL     1      -1.198  11.074  23.022  0.00  0.00    +0.000 A 
ATOM     21  S   UNL     1      -0.235   9.659  22.929  0.00  0.00    +0.000 S 
ENDBRANCH  16  17
ENDBRANCH  15  16
ENDBRANCH  13  15
ENDBRANCH   6  13
BRANCH  10  22
ATOM     22  C   UNL     1       5.906   4.979  16.146  0.00  0.00    +0.000 C 
BRANCH  22  23
ATOM     23  C   UNL     1       6.163   5.150  14.676  0.00  0.00    +0.000 C 
ATOM     24  C   UNL     1       6.960   4.151  13.879  0.00  0.00    +0.000 C 
ATOM     25  C   UNL     1       5.474   4.243  13.683  0.00  0.00    +0.000 C 
ENDBRANCH  22  23
ENDBRANCH  10  22
TORSDOF 6
ENDMDL
MODEL 6
REMARK VINA RESULT:      -7.1      4.008      7.327
REMARK  Name = 
REMARK  7 active torsions:
REMARK  status: ('A' for Active; 'I' for Inactive)
REMARK    1  A    between atoms: C_1  and  C_2
REMARK    2  A    between atoms: C_6  and  N_7
REMARK    3  A    between atoms: N_7  and  C_8
REMARK    4  A    between atoms: C_8  and  C_9
REMARK    5  A    between atoms: C_9  and  C_10
REMARK    6  A    between atoms: N_18  and  C_19
REMARK    7  A    between atoms: C_19  and  C_20
REMARK                            x       y       z     vdW  Elec       q    Type
REMARK                         _______ _______ _______ _____ _____    ______ ____
ROOT
ATOM      1  C   UNL     1       7.110   4.991  13.750  0.00  0.00    +0.000 C 
ATOM      2  C   UNL     1       6.785   4.991  15.210  0.00  0.00    +0.000 A 
ATOM      3  N   UNL     1       5.903   4.083  15.649  0.00  0.00    +0.000 NA
ATOM      4  C   UNL     1       5.617   4.105  16.965  0.00  0.00    +0.000 A 
ATOM      5  C   UNL     1       6.225   4.987  17.849  0.00  0.00    +0.000 A 
ATOM      6  C   UNL     1       7.093   5.921  17.291  0.00  0.00    +0.000 A 
ATOM      7  N   UNL     1       7.376   5.923  15.978  0.00  0.00    +0.000 NA
ATOM      8  C   UNL     1       5.803   4.997  19.291  0.00  0.00    +0.000 C 
ATOM      9  C   UNL     1       4.380   5.553  19.432  0.00  0.00    +0.000 C 
ATOM     10  N   UNL     1       3.296   4.557  19.241  0.00  0.00    +0.000 NA
ATOM     11  C   UNL     1       3.259   4.005  17.866  0.00  0.00    +0.000 C 
ATOM     12  C   UNL     1       4.500   3.205  17.428  0.00  0.00    +0.000 C 
ENDROOT
BRANCH   6  13
ATOM     13  N   UNL     1       7.636   6.926  18.108  0.00  0.00    +0.000 N 
ATOM     14  H   UNL     1       8.231   6.493  18.810  0.00  0.00    +0.000 HD
BRANCH  13  15
ATOM     15  C   UNL     1       8.302   8.053  17.442  0.00  0.00    +0.000 C 
BRANCH  15  16
ATOM     16  C   UNL     1       7.656   9.385  17.831  0.00  0.00    +0.000 C 
BRANCH  16  17
ATOM     17  C   UNL     1       8.645  10.324  18.448  0.00  0.00    +0.000 A 
ATOM     18  N   UNL     1       9.391  10.031  19.497  0.00  0.00    +0.000 NA
ATOM     19  C   UNL     1      10.149  11.128  19.852  0.00  0.00    +0.000 A 
ATOM     20  C   UNL     1       9.992  12.244  19.060  0.00  0.00    +0.000 A 
ATOM     21  S   UNL     1       8.850  11.915  17.824  0.00  0.00    +0.000 S 
ENDBRANCH  16  17
ENDBRANCH  15  16
ENDBRANCH  13  15
ENDBRANCH   6  13
BRANCH  10  22
ATOM     22  C   UNL     1       2.021   5.223  19.588  0.00  0.00    +0.000 C 
BRANCH  22  23
ATOM     23  C   UNL     1       1.145   4.427  20.511  0.00  0.00    +0.000 C 
ATOM     24  C   UNL     1       0.884   2.958  20.301  0.00  0.00    +0.000 C 
ATOM     25  C   UNL     1       1.762   3.403  21.435  0.00  0.00    +0.000 C 
ENDBRANCH  22  23
ENDBRANCH  10  22
TORSDOF 6
ENDMDL
MODEL 7
REMARK VINA RESULT:      -7.1      3.264      7.200
REMARK  Name = 
REMARK  7 active torsions:
REMARK  status: ('A' for Active; 'I' for Inactive)
REMARK    1  A    between atoms: C_1  and  C_2
REMARK    2  A    between atoms: C_6  and  N_7
REMARK    3  A    between atoms: N_7  and  C_8
REMARK    4  A    between atoms: C_8  and  C_9
REMARK    5  A    between atoms: C_9  and  C_10
REMARK    6  A    between atoms: N_18  and  C_19
REMARK    7  A    between atoms: C_19  and  C_20
REMARK                            x       y       z     vdW  Elec       q    Type
REMARK                         _______ _______ _______ _____ _____    ______ ____
ROOT
ATOM      1  C   UNL     1       1.464   3.809  21.117  0.00  0.00    +0.000 C 
ATOM      2  C   UNL     1       1.826   5.067  20.393  0.00  0.00    +0.000 A 
ATOM      3  N   UNL     1       1.490   6.231  20.967  0.00  0.00    +0.000 NA
ATOM      4  C   UNL     1       1.816   7.352  20.295  0.00  0.00    +0.000 A 
ATOM      5  C   UNL     1       2.504   7.330  19.089  0.00  0.00    +0.000 A 
ATOM      6  C   UNL     1       2.769   6.073  18.552  0.00  0.00    +0.000 A 
ATOM      7  N   UNL     1       2.435   4.945  19.201  0.00  0.00    +0.000 NA
ATOM      8  C   UNL     1       2.772   8.619  18.366  0.00  0.00    +0.000 C 
ATOM      9  C   UNL     1       1.466   9.210  17.818  0.00  0.00    +0.000 C 
ATOM     10  N   UNL     1       0.702  10.042  18.782  0.00  0.00    +0.000 NA
ATOM     11  C   UNL     1       0.206   9.267  19.943  0.00  0.00    +0.000 C 
ATOM     12  C   UNL     1       1.287   8.649  20.850  0.00  0.00    +0.000 C 
ENDROOT
BRANCH   6  13
ATOM     13  N   UNL     1       3.340   5.981  17.272  0.00  0.00    +0.000 N 
ATOM     14  H   UNL     1       4.000   6.745  17.151  0.00  0.00    +0.000 HD
BRANCH  13  15
ATOM     15  C   UNL     1       3.918   4.689  16.880  0.00  0.00    +0.000 C 
BRANCH  15  16
ATOM     16  C   UNL     1       5.253   4.878  16.155  0.00  0.00    +0.000 C 
BRANCH  16  17
ATOM     17  C   UNL     1       6.177   5.776  16.917  0.00  0.00    +0.000 A 
ATOM     18  N   UNL     1       6.296   7.073  16.702  0.00  0.00    +0.000 NA
ATOM     19  C   UNL     1       7.271   7.596  17.526  0.00  0.00    +0.000 A 
ATOM     20  C   UNL     1       7.875   6.699  18.380  0.00  0.00    +0.000 A 
ATOM     21  S   UNL     1       7.204   5.139  18.143  0.00  0.00    +0.000 S 
ENDBRANCH  16  17
ENDBRANCH  15  16
ENDBRANCH  13  15
ENDBRANCH   6  13
BRANCH  10  22
ATOM     22  C   UNL     1      -0.414  10.665  18.035  0.00  0.00    +0.000 C 
BRANCH  22  23
ATOM     23  C   UNL     1      -1.408   9.683  17.486  0.00  0.00    +0.000 C 
ATOM     24  C   UNL     1      -2.889   9.822  17.726  0.00  0.00    +0.000 C 
ATOM     25  C   UNL     1      -2.328  10.096  16.361  0.00  0.00    +0.000 C 
ENDBRANCH  22  23
ENDBRANCH  10  22
TORSDOF 6
ENDMDL
MODEL 8
REMARK VINA RESULT:      -6.9      1.688      2.296
REMARK  Name = 
REMARK  7 active torsions:
REMARK  status: ('A' for Active; 'I' for Inactive)
REMARK    1  A    between atoms: C_1  and  C_2
REMARK    2  A    between atoms: C_6  and  N_7
REMARK    3  A    between atoms: N_7  and  C_8
REMARK    4  A    between atoms: C_8  and  C_9
REMARK    5  A    between atoms: C_9  and  C_10
REMARK    6  A    between atoms: N_18  and  C_19
REMARK    7  A    between atoms: C_19  and  C_20
REMARK                            x       y       z     vdW  Elec       q    Type
REMARK                         _______ _______ _______ _____ _____    ______ ____
ROOT
ATOM      1  C   UNL     1       1.417   2.879  21.639  0.00  0.00    +0.000 C 
ATOM      2  C   UNL     1       1.784   3.895  20.605  0.00  0.00    +0.000 A 
ATOM      3  N   UNL     1       2.146   3.447  19.395  0.00  0.00    +0.000 NA
ATOM      4  C   UNL     1       2.480   4.377  18.480  0.00  0.00    +0.000 A 
ATOM      5  C   UNL     1       2.420   5.740  18.741  0.00  0.00    +0.000 A 
ATOM      6  C   UNL     1       2.076   6.106  20.040  0.00  0.00    +0.000 A 
ATOM      7  N   UNL     1       1.756   5.190  20.969  0.00  0.00    +0.000 NA
ATOM      8  C   UNL     1       2.876   6.715  17.692  0.00  0.00    +0.000 C 
ATOM      9  C   UNL     1       4.396   6.634  17.506  0.00  0.00    +0.000 C 
ATOM     10  N   UNL     1       4.857   5.582  16.565  0.00  0.00    +0.000 NA
ATOM     11  C   UNL     1       4.548   4.213  17.038  0.00  0.00    +0.000 C 
ATOM     12  C   UNL     1       3.053   3.872  17.181  0.00  0.00    +0.000 C 
ENDROOT
BRANCH   6  13
ATOM     13  N   UNL     1       2.129   7.461  20.407  0.00  0.00    +0.000 N 
ATOM     14  H   UNL     1       2.011   8.032  19.573  0.00  0.00    +0.000 HD
BRANCH  13  15
ATOM     15  C   UNL     1       1.253   7.900  21.501  0.00  0.00    +0.000 C 
BRANCH  15  16
ATOM     16  C   UNL     1       0.133   8.805  20.982  0.00  0.00    +0.000 C 
BRANCH  16  17
ATOM     17  C   UNL     1       0.665   9.920  20.137  0.00  0.00    +0.000 A 
ATOM     18  N   UNL     1       1.145   9.762  18.918  0.00  0.00    +0.000 NA
ATOM     19  C   UNL     1       1.609  10.970  18.438  0.00  0.00    +0.000 A 
ATOM     20  C   UNL     1       1.460  12.046  19.286  0.00  0.00    +0.000 A 
ATOM     21  S   UNL     1       0.717  11.531  20.743  0.00  0.00    +0.000 S 
ENDBRANCH  16  17
ENDBRANCH  15  16
ENDBRANCH  13  15
ENDBRANCH   6  13
BRANCH  10  22
ATOM     22  C   UNL     1       6.313   5.771  16.375  0.00  0.00    +0.000 C 
BRANCH  22  23
ATOM     23  C   UNL     1       7.062   6.071  17.641  0.00  0.00    +0.000 C 
ATOM     24  C   UNL     1       6.709   5.425  18.954  0.00  0.00    +0.000 C 
ATOM     25  C   UNL     1       7.969   5.023  18.243  0.00  0.00    +0.000 C 
ENDBRANCH  22  23
ENDBRANCH  10  22
TORSDOF 6
ENDMDL
MODEL 9
REMARK VINA RESULT:      -6.9      3.975      7.265
REMARK  Name = 
REMARK  7 active torsions:
REMARK  status: ('A' for Active; 'I' for Inactive)
REMARK    1  A    between atoms: C_1  and  C_2
REMARK    2  A    between atoms: C_6  and  N_7
REMARK    3  A    between atoms: N_7  and  C_8
REMARK    4  A    between atoms: C_8  and  C_9
REMARK    5  A    between atoms: C_9  and  C_10
REMARK    6  A    between atoms: N_18  and  C_19
REMARK    7  A    between atoms: C_19  and  C_20
REMARK                            x       y       z     vdW  Elec       q    Type
REMARK                         _______ _______ _______ _____ _____    ______ ____
ROOT
ATOM      1  C   UNL     1       7.187   5.095  13.664  0.00  0.00    +0.000 C 
ATOM      2  C   UNL     1       6.832   5.060  15.116  0.00  0.00    +0.000 A 
ATOM      3  N   UNL     1       5.816   4.269  15.488  0.00  0.00    +0.000 NA
ATOM      4  C   UNL     1       5.505   4.258  16.798  0.00  0.00    +0.000 A 
ATOM      5  C   UNL     1       6.215   4.988  17.742  0.00  0.00    +0.000 A 
ATOM      6  C   UNL     1       7.224   5.814  17.254  0.00  0.00    +0.000 A 
ATOM      7  N   UNL     1       7.535   5.850  15.948  0.00  0.00    +0.000 NA
ATOM      8  C   UNL     1       5.766   4.979  19.176  0.00  0.00    +0.000 C 
ATOM      9  C   UNL     1       4.437   5.731  19.328  0.00  0.00    +0.000 C 
ATOM     10  N   UNL     1       3.224   4.918  19.062  0.00  0.00    +0.000 NA
ATOM     11  C   UNL     1       3.138   4.457  17.657  0.00  0.00    +0.000 C 
ATOM     12  C   UNL     1       4.258   3.509  17.190  0.00  0.00    +0.000 C 
ENDROOT
BRANCH   6  13
ATOM     13  N   UNL     1       7.890   6.679  18.138  0.00  0.00    +0.000 N 
ATOM     14  H   UNL     1       8.828   6.323  18.302  0.00  0.00    +0.000 HD
BRANCH  13  15
ATOM     15  C   UNL     1       7.896   8.110  17.807  0.00  0.00    +0.000 C 
BRANCH  15  16
ATOM     16  C   UNL     1       8.864   8.881  18.709  0.00  0.00    +0.000 C 
BRANCH  16  17
ATOM     17  C   UNL     1       8.811  10.355  18.450  0.00  0.00    +0.000 A 
ATOM     18  N   UNL     1       8.078  10.915  17.506  0.00  0.00    +0.000 NA
ATOM     19  C   UNL     1       8.300  12.278  17.490  0.00  0.00    +0.000 A 
ATOM     20  C   UNL     1       9.184  12.750  18.436  0.00  0.00    +0.000 A 
ATOM     21  S   UNL     1       9.767  11.443  19.381  0.00  0.00    +0.000 S 
ENDBRANCH  16  17
ENDBRANCH  15  16
ENDBRANCH  13  15
ENDBRANCH   6  13
BRANCH  10  22
ATOM     22  C   UNL     1       2.052   5.745  19.430  0.00  0.00    +0.000 C 
BRANCH  22  23
ATOM     23  C   UNL     1       2.405   7.084  20.012  0.00  0.00    +0.000 C 
ATOM     24  C   UNL     1       1.673   8.343  19.630  0.00  0.00    +0.000 C 
ATOM     25  C   UNL     1       1.467   7.747  20.992  0.00  0.00    +0.000 C 
ENDBRANCH  22  23
ENDBRANCH  10  22
TORSDOF 6
ENDMDL
