MODEL 1
REMARK VINA RESULT:      -6.5      0.000      0.000
REMARK  Name = 
REMARK  4 active torsions:
REMARK  status: ('A' for Active; 'I' for Inactive)
REMARK    1  A    between atoms: N_1  and  C_2
REMARK    2  A    between atoms: C_2  and  C_3
REMARK    3  A    between atoms: C_3  and  C_4
REMARK    4  A    between atoms: C_3  and  C_10
REMARK                            x       y       z     vdW  Elec       q    Type
REMARK                         _______ _______ _______ _____ _____    ______ ____
ROOT
ATOM      1  C   UNL     1       4.426   4.372  18.574  0.00  0.00    +0.000 C 
ENDROOT
BRANCH   1   2
ATOM      2  C   UNL     1       3.613   5.656  18.700  0.00  0.00    +0.000 A 
ATOM      3  C   UNL     1       3.670   6.649  17.707  0.00  0.00    +0.000 A 
ATOM      4  C   UNL     1       2.944   7.833  17.838  0.00  0.00    +0.000 A 
ATOM      5  C   UNL     1       2.146   8.041  18.959  0.00  0.00    +0.000 A 
ATOM      6  C   UNL     1       2.064   7.060  19.946  0.00  0.00    +0.000 A 
ATOM      7  C   UNL     1       2.792   5.873  19.820  0.00  0.00    +0.000 A 
ENDBRANCH   1   2
BRANCH   1   8
ATOM      8  C   UNL     1       5.891   4.638  18.728  0.00  0.00    +0.000 A 
ATOM      9  N   UNL     1       6.517   5.308  19.678  0.00  0.00    +0.000 NA
ATOM     10  N   UNL     1       7.854   5.238  19.376  0.00  0.00    +0.000 NA
ATOM     11  N   UNL     1       8.056   4.540  18.267  0.00  0.00    +0.000 NA
ATOM     12  N   UNL     1       6.834   4.171  17.859  0.00  0.00    +0.000 N 
ATOM     13  H   UNL     1       6.731   3.622  17.015  0.00  0.00    +0.000 HD
ENDBRANCH   1   8
BRANCH   1  14
ATOM     14  C   UNL     1       3.932   3.300  19.582  0.00  0.00    +0.000 C 
BRANCH  14  15
ATOM     15  N   UNL     1       4.969   2.323  19.949  0.00  0.00    +0.000 NA
ATOM     16  H   UNL     1       4.577   1.671  20.631  0.00  0.00    +0.000 HD
ATOM     17  H   UNL     1       5.706   2.819  20.462  0.00  0.00    +0.000 HD
ENDBRANCH  14  15
ENDBRANCH   1  14
TORSDOF 4
ENDMDL
MODEL 2
REMARK VINA RESULT:      -6.5      0.270      1.315
REMARK  Name = 
REMARK  4 active torsions:
REMARK  status: ('A' for Active; 'I' for Inactive)
REMARK    1  A    between atoms: N_1  and  C_2
REMARK    2  A    between atoms: C_2  and  C_3
REMARK    3  A    between atoms: C_3  and  C_4
REMARK    4  A    between atoms: C_3  and  C_10
REMARK                            x       y       z     vdW  Elec       q    Type
REMARK                         _______ _______ _______ _____ _____    ______ ____
ROOT
ATOM      1  C   UNL     1       4.561   4.425  18.198  0.00  0.00    +0.000 C 
ENDROOT
BRANCH   1   2
ATOM      2  C   UNL     1       3.731   5.677  18.458  0.00  0.00    +0.000 A 
ATOM      3  C   UNL     1       2.904   5.775  19.590  0.00  0.00    +0.000 A 
ATOM      4  C   UNL     1       2.126   6.911  19.812  0.00  0.00    +0.000 A 
ATOM      5  C   UNL     1       2.168   7.970  18.910  0.00  0.00    +0.000 A 
ATOM      6  C   UNL     1       2.995   7.898  17.790  0.00  0.00    +0.000 A 
ATOM      7  C   UNL     1       3.773   6.760  17.564  0.00  0.00    +0.000 A 
ENDBRANCH   1   2
BRANCH   1   8
ATOM      8  C   UNL     1       6.007   4.655  18.506  0.00  0.00    +0.000 A 
ATOM      9  N   UNL     1       6.547   5.257  19.549  0.00  0.00    +0.000 NA
ATOM     10  N   UNL     1       7.905   5.181  19.372  0.00  0.00    +0.000 NA
ATOM     11  N   UNL     1       8.204   4.546  18.246  0.00  0.00    +0.000 NA
ATOM     12  N   UNL     1       7.023   4.224  17.703  0.00  0.00    +0.000 N 
ATOM     13  H   UNL     1       6.995   3.726  16.822  0.00  0.00    +0.000 HD
ENDBRANCH   1   8
BRANCH   1  14
ATOM     14  C   UNL     1       3.996   3.211  18.985  0.00  0.00    +0.000 C 
BRANCH  14  15
ATOM     15  N   UNL     1       5.012   2.515  19.790  0.00  0.00    +0.000 NA
ATOM     16  H   UNL     1       5.034   2.935  20.721  0.00  0.00    +0.000 HD
ATOM     17  H   UNL     1       5.933   2.726  19.391  0.00  0.00    +0.000 HD
ENDBRANCH  14  15
ENDBRANCH   1  14
TORSDOF 4
ENDMDL
MODEL 3
REMARK VINA RESULT:      -6.4      2.134      3.292
REMARK  Name = 
REMARK  4 active torsions:
REMARK  status: ('A' for Active; 'I' for Inactive)
REMARK    1  A    between atoms: N_1  and  C_2
REMARK    2  A    between atoms: C_2  and  C_3
REMARK    3  A    between atoms: C_3  and  C_4
REMARK    4  A    between atoms: C_3  and  C_10
REMARK                            x       y       z     vdW  Elec       q    Type
REMARK                         _______ _______ _______ _____ _____    ______ ____
ROOT
ATOM      1  C   UNL     1       5.747   4.247  18.273  0.00  0.00    +0.000 C 
ENDROOT
BRANCH   1   2
ATOM      2  C   UNL     1       4.251   3.978  18.152  0.00  0.00    +0.000 A 
ATOM      3  C   UNL     1       3.342   5.029  17.943  0.00  0.00    +0.000 A 
ATOM      4  C   UNL     1       1.972   4.784  17.858  0.00  0.00    +0.000 A 
ATOM      5  C   UNL     1       1.489   3.483  17.974  0.00  0.00    +0.000 A 
ATOM      6  C   UNL     1       2.377   2.426  18.165  0.00  0.00    +0.000 A 
ATOM      7  C   UNL     1       3.750   2.669  18.253  0.00  0.00    +0.000 A 
ENDBRANCH   1   2
BRANCH   1   8
ATOM      8  C   UNL     1       6.360   4.532  16.938  0.00  0.00    +0.000 A 
ATOM      9  N   UNL     1       7.220   5.478  16.606  0.00  0.00    +0.000 NA
ATOM     10  N   UNL     1       7.491   5.295  15.273  0.00  0.00    +0.000 NA
ATOM     11  N   UNL     1       6.818   4.260  14.788  0.00  0.00    +0.000 NA
ATOM     12  N   UNL     1       6.109   3.788  15.822  0.00  0.00    +0.000 N 
ATOM     13  H   UNL     1       5.505   2.987  15.693  0.00  0.00    +0.000 HD
ENDBRANCH   1   8
BRANCH   1  14
ATOM     14  C   UNL     1       6.026   5.391  19.285  0.00  0.00    +0.000 C 
BRANCH  14  15
ATOM     15  N   UNL     1       7.387   5.358  19.843  0.00  0.00    +0.000 NA
ATOM     16  H   UNL     1       7.682   6.316  20.041  0.00  0.00    +0.000 HD
ATOM     17  H   UNL     1       8.024   5.041  19.104  0.00  0.00    +0.000 HD
ENDBRANCH  14  15
ENDBRANCH   1  14
TORSDOF 4
ENDMDL
MODEL 4
REMARK VINA RESULT:      -6.3      2.128      3.537
REMARK  Name = 
REMARK  4 active torsions:
REMARK  status: ('A' for Active; 'I' for Inactive)
REMARK    1  A    between atoms: N_1  and  C_2
REMARK    2  A    between atoms: C_2  and  C_3
REMARK    3  A    between atoms: C_3  and  C_4
REMARK    4  A    between atoms: C_3  and  C_10
REMARK                            x       y       z     vdW  Elec       q    Type
REMARK                         _______ _______ _______ _____ _____    ______ ____
ROOT
ATOM      1  C   UNL     1       4.933   5.047  16.917  0.00  0.00    +0.000 C 
ENDROOT
BRANCH   1   2
ATOM      2  C   UNL     1       3.756   4.215  17.414  0.00  0.00    +0.000 A 
ATOM      3  C   UNL     1       2.546   4.824  17.789  0.00  0.00    +0.000 A 
ATOM      4  C   UNL     1       1.480   4.063  18.268  0.00  0.00    +0.000 A 
ATOM      5  C   UNL     1       1.604   2.680  18.374  0.00  0.00    +0.000 A 
ATOM      6  C   UNL     1       2.790   2.057  17.992  0.00  0.00    +0.000 A 
ATOM      7  C   UNL     1       3.861   2.817  17.514  0.00  0.00    +0.000 A 
ENDBRANCH   1   2
BRANCH   1   8
ATOM      8  C   UNL     1       6.061   5.037  17.900  0.00  0.00    +0.000 A 
ATOM      9  N   UNL     1       7.330   4.730  17.703  0.00  0.00    +0.000 NA
ATOM     10  N   UNL     1       7.957   4.905  18.910  0.00  0.00    +0.000 NA
ATOM     11  N   UNL     1       7.100   5.313  19.837  0.00  0.00    +0.000 NA
ATOM     12  N   UNL     1       5.919   5.389  19.211  0.00  0.00    +0.000 N 
ATOM     13  H   UNL     1       5.097   5.681  19.724  0.00  0.00    +0.000 HD
ENDBRANCH   1   8
BRANCH   1  14
ATOM     14  C   UNL     1       5.395   4.572  15.513  0.00  0.00    +0.000 C 
BRANCH  14  15
ATOM     15  N   UNL     1       6.352   5.489  14.874  0.00  0.00    +0.000 NA
ATOM     16  H   UNL     1       5.972   5.780  13.972  0.00  0.00    +0.000 HD
ATOM     17  H   UNL     1       7.194   4.953  14.636  0.00  0.00    +0.000 HD
ENDBRANCH  14  15
ENDBRANCH   1  14
TORSDOF 4
ENDMDL
MODEL 5
REMARK VINA RESULT:      -6.3      2.204      3.542
REMARK  Name = 
REMARK  4 active torsions:
REMARK  status: ('A' for Active; 'I' for Inactive)
REMARK    1  A    between atoms: N_1  and  C_2
REMARK    2  A    between atoms: C_2  and  C_3
REMARK    3  A    between atoms: C_3  and  C_4
REMARK    4  A    between atoms: C_3  and  C_10
REMARK                            x       y       z     vdW  Elec       q    Type
REMARK                         _______ _______ _______ _____ _____    ______ ____
ROOT
ATOM      1  C   UNL     1       5.976   4.411  17.704  0.00  0.00    +0.000 C 
ENDROOT
BRANCH   1   2
ATOM      2  C   UNL     1       4.454   4.347  17.744  0.00  0.00    +0.000 A 
ATOM      3  C   UNL     1       3.775   3.131  17.560  0.00  0.00    +0.000 A 
ATOM      4  C   UNL     1       2.381   3.081  17.571  0.00  0.00    +0.000 A 
ATOM      5  C   UNL     1       1.644   4.243  17.774  0.00  0.00    +0.000 A 
ATOM      6  C   UNL     1       2.300   5.457  17.975  0.00  0.00    +0.000 A 
ATOM      7  C   UNL     1       3.696   5.511  17.962  0.00  0.00    +0.000 A 
ENDBRANCH   1   2
BRANCH   1   8
ATOM      8  C   UNL     1       6.478   4.602  16.307  0.00  0.00    +0.000 A 
ATOM      9  N   UNL     1       6.152   3.940  15.211  0.00  0.00    +0.000 NA
ATOM     10  N   UNL     1       6.866   4.517  14.192  0.00  0.00    +0.000 NA
ATOM     11  N   UNL     1       7.618   5.514  14.640  0.00  0.00    +0.000 NA
ATOM     12  N   UNL     1       7.381   5.563  15.958  0.00  0.00    +0.000 N 
ATOM     13  H   UNL     1       7.852   6.255  16.527  0.00  0.00    +0.000 HD
ENDBRANCH   1   8
BRANCH   1  14
ATOM     14  C   UNL     1       6.512   5.513  18.658  0.00  0.00    +0.000 C 
BRANCH  14  15
ATOM     15  N   UNL     1       7.876   5.250  19.144  0.00  0.00    +0.000 NA
ATOM     16  H   UNL     1       7.845   5.141  20.159  0.00  0.00    +0.000 HD
ATOM     17  H   UNL     1       8.435   6.097  18.993  0.00  0.00    +0.000 HD
ENDBRANCH  14  15
ENDBRANCH   1  14
TORSDOF 4
ENDMDL
MODEL 6
REMARK VINA RESULT:      -6.3      2.069      3.332
REMARK  Name = 
REMARK  4 active torsions:
REMARK  status: ('A' for Active; 'I' for Inactive)
REMARK    1  A    between atoms: N_1  and  C_2
REMARK    2  A    between atoms: C_2  and  C_3
REMARK    3  A    between atoms: C_3  and  C_4
REMARK    4  A    between atoms: C_3  and  C_10
REMARK                            x       y       z     vdW  Elec       q    Type
REMARK                         _______ _______ _______ _____ _____    ______ ____
ROOT
ATOM      1  C   UNL     1       5.798   4.330  18.215  0.00  0.00    +0.000 C 
ENDROOT
BRANCH   1   2
ATOM      2  C   UNL     1       4.295   4.108  18.092  0.00  0.00    +0.000 A 
ATOM      3  C   UNL     1       3.759   2.812  18.011  0.00  0.00    +0.000 A 
ATOM      4  C   UNL     1       2.385   2.613  17.873  0.00  0.00    +0.000 A 
ATOM      5  C   UNL     1       1.525   3.706  17.819  0.00  0.00    +0.000 A 
ATOM      6  C   UNL     1       2.038   4.999  17.913  0.00  0.00    +0.000 A 
ATOM      7  C   UNL     1       3.413   5.202  18.050  0.00  0.00    +0.000 A 
ENDBRANCH   1   2
BRANCH   1   8
ATOM      8  C   UNL     1       6.417   4.626  16.885  0.00  0.00    +0.000 A 
ATOM      9  N   UNL     1       7.340   5.519  16.580  0.00  0.00    +0.000 NA
ATOM     10  N   UNL     1       7.583   5.373  15.238  0.00  0.00    +0.000 NA
ATOM     11  N   UNL     1       6.831   4.411  14.719  0.00  0.00    +0.000 NA
ATOM     12  N   UNL     1       6.100   3.950  15.742  0.00  0.00    +0.000 N 
ATOM     13  H   UNL     1       5.438   3.200  15.588  0.00  0.00    +0.000 HD
ENDBRANCH   1   8
BRANCH   1  14
ATOM     14  C   UNL     1       6.113   5.443  19.251  0.00  0.00    +0.000 C 
BRANCH  14  15
ATOM     15  N   UNL     1       7.453   5.323  19.847  0.00  0.00    +0.000 NA
ATOM     16  H   UNL     1       8.146   5.340  19.097  0.00  0.00    +0.000 HD
ATOM     17  H   UNL     1       7.536   4.385  20.253  0.00  0.00    +0.000 HD
ENDBRANCH  14  15
ENDBRANCH   1  14
TORSDOF 4
ENDMDL
MODEL 7
REMARK VINA RESULT:      -6.3      2.001      3.289
REMARK  Name = 
REMARK  4 active torsions:
REMARK  status: ('A' for Active; 'I' for Inactive)
REMARK    1  A    between atoms: N_1  and  C_2
REMARK    2  A    between atoms: C_2  and  C_3
REMARK    3  A    between atoms: C_3  and  C_4
REMARK    4  A    between atoms: C_3  and  C_10
REMARK                            x       y       z     vdW  Elec       q    Type
REMARK                         _______ _______ _______ _____ _____    ______ ____
ROOT
ATOM      1  C   UNL     1       5.510   5.070  17.075  0.00  0.00    +0.000 C 
ENDROOT
BRANCH   1   2
ATOM      2  C   UNL     1       4.195   4.393  17.444  0.00  0.00    +0.000 A 
ATOM      3  C   UNL     1       4.097   2.993  17.514  0.00  0.00    +0.000 A 
ATOM      4  C   UNL     1       2.886   2.375  17.826  0.00  0.00    +0.000 A 
ATOM      5  C   UNL     1       1.756   3.147  18.080  0.00  0.00    +0.000 A 
ATOM      6  C   UNL     1       1.838   4.538  18.031  0.00  0.00    +0.000 A 
ATOM      7  C   UNL     1       3.049   5.159  17.716  0.00  0.00    +0.000 A 
ENDBRANCH   1   2
BRANCH   1   8
ATOM      8  C   UNL     1       6.442   5.127  18.245  0.00  0.00    +0.000 A 
ATOM      9  N   UNL     1       6.163   5.344  19.517  0.00  0.00    +0.000 NA
ATOM     10  N   UNL     1       7.357   5.268  20.187  0.00  0.00    +0.000 NA
ATOM     11  N   UNL     1       8.356   5.009  19.353  0.00  0.00    +0.000 NA
ATOM     12  N   UNL     1       7.788   4.928  18.143  0.00  0.00    +0.000 N 
ATOM     13  H   UNL     1       8.361   4.737  17.331  0.00  0.00    +0.000 HD
ENDBRANCH   1   8
BRANCH   1  14
ATOM     14  C   UNL     1       6.170   4.374  15.853  0.00  0.00    +0.000 C 
BRANCH  14  15
ATOM     15  N   UNL     1       7.204   5.195  15.203  0.00  0.00    +0.000 NA
ATOM     16  H   UNL     1       7.866   5.509  15.915  0.00  0.00    +0.000 HD
ATOM     17  H   UNL     1       6.760   6.056  14.866  0.00  0.00    +0.000 HD
ENDBRANCH  14  15
ENDBRANCH   1  14
TORSDOF 4
ENDMDL
MODEL 8
REMARK VINA RESULT:      -6.3      1.857      3.002
REMARK  Name = 
REMARK  4 active torsions:
REMARK  status: ('A' for Active; 'I' for Inactive)
REMARK    1  A    between atoms: N_1  and  C_2
REMARK    2  A    between atoms: C_2  and  C_3
REMARK    3  A    between atoms: C_3  and  C_4
REMARK    4  A    between atoms: C_3  and  C_10
REMARK                            x       y       z     vdW  Elec       q    Type
REMARK                         _______ _______ _______ _____ _____    ______ ____
ROOT
ATOM      1  C   UNL     1       6.580   4.880  18.185  0.00  0.00    +0.000 C 
ENDROOT
BRANCH   1   2
ATOM      2  C   UNL     1       5.142   5.245  18.533  0.00  0.00    +0.000 A 
ATOM      3  C   UNL     1       4.499   6.328  17.909  0.00  0.00    +0.000 A 
ATOM      4  C   UNL     1       3.192   6.676  18.248  0.00  0.00    +0.000 A 
ATOM      5  C   UNL     1       2.503   5.943  19.211  0.00  0.00    +0.000 A 
ATOM      6  C   UNL     1       3.119   4.856  19.828  0.00  0.00    +0.000 A 
ATOM      7  C   UNL     1       4.429   4.506  19.493  0.00  0.00    +0.000 A 
ENDBRANCH   1   2
BRANCH   1   8
ATOM      8  C   UNL     1       6.789   4.833  16.704  0.00  0.00    +0.000 A 
ATOM      9  N   UNL     1       7.469   5.664  15.936  0.00  0.00    +0.000 NA
ATOM     10  N   UNL     1       7.377   5.167  14.661  0.00  0.00    +0.000 NA
ATOM     11  N   UNL     1       6.657   4.053  14.635  0.00  0.00    +0.000 NA
ATOM     12  N   UNL     1       6.285   3.848  15.905  0.00  0.00    +0.000 N 
ATOM     13  H   UNL     1       5.715   3.045  16.138  0.00  0.00    +0.000 HD
ENDBRANCH   1   8
BRANCH   1  14
ATOM     14  C   UNL     1       7.581   5.849  18.872  0.00  0.00    +0.000 C 
BRANCH  14  15
ATOM     15  N   UNL     1       7.888   5.481  20.263  0.00  0.00    +0.000 NA
ATOM     16  H   UNL     1       8.477   4.647  20.257  0.00  0.00    +0.000 HD
ATOM     17  H   UNL     1       7.016   5.176  20.710  0.00  0.00    +0.000 HD
ENDBRANCH  14  15
ENDBRANCH   1  14
TORSDOF 4
ENDMDL
MODEL 9
REMARK VINA RESULT:      -6.2      1.909      3.321
REMARK  Name = 
REMARK  4 active torsions:
REMARK  status: ('A' for Active; 'I' for Inactive)
REMARK    1  A    between atoms: N_1  and  C_2
REMARK    2  A    between atoms: C_2  and  C_3
REMARK    3  A    between atoms: C_3  and  C_4
REMARK    4  A    between atoms: C_3  and  C_10
REMARK                            x       y       z     vdW  Elec       q    Type
REMARK                         _______ _______ _______ _____ _____    ______ ____
ROOT
ATOM      1  C   UNL     1       6.624   4.818  18.128  0.00  0.00    +0.000 C 
ENDROOT
BRANCH   1   2
ATOM      2  C   UNL     1       5.162   5.023  18.509  0.00  0.00    +0.000 A 
ATOM      3  C   UNL     1       4.517   4.148  19.401  0.00  0.00    +0.000 A 
ATOM      4  C   UNL     1       3.172   4.323  19.727  0.00  0.00    +0.000 A 
ATOM      5  C   UNL     1       2.453   5.378  19.174  0.00  0.00    +0.000 A 
ATOM      6  C   UNL     1       3.080   6.265  18.301  0.00  0.00    +0.000 A 
ATOM      7  C   UNL     1       4.426   6.091  17.969  0.00  0.00    +0.000 A 
ENDBRANCH   1   2
BRANCH   1   8
ATOM      8  C   UNL     1       6.808   4.837  16.643  0.00  0.00    +0.000 A 
ATOM      9  N   UNL     1       7.479   5.699  15.902  0.00  0.00    +0.000 NA
ATOM     10  N   UNL     1       7.364   5.260  14.607  0.00  0.00    +0.000 NA
ATOM     11  N   UNL     1       6.641   4.149  14.544  0.00  0.00    +0.000 NA
ATOM     12  N   UNL     1       6.289   3.889  15.810  0.00  0.00    +0.000 N 
ATOM     13  H   UNL     1       5.721   3.077  16.016  0.00  0.00    +0.000 HD
ENDBRANCH   1   8
BRANCH   1  14
ATOM     14  C   UNL     1       7.533   5.864  18.829  0.00  0.00    +0.000 C 
BRANCH  14  15
ATOM     15  N   UNL     1       7.853   5.517  20.222  0.00  0.00    +0.000 NA
ATOM     16  H   UNL     1       6.988   5.270  20.705  0.00  0.00    +0.000 HD
ATOM     17  H   UNL     1       8.177   6.367  20.695  0.00  0.00    +0.000 HD
ENDBRANCH  14  15
ENDBRANCH   1  14
TORSDOF 4
ENDMDL
