MODEL 1
REMARK VINA RESULT:      -7.7      0.000      0.000
REMARK  Name = 
REMARK  6 active torsions:
REMARK  status: ('A' for Active; 'I' for Inactive)
REMARK    1  A    between atoms: C_2  and  C_3
REMARK    2  A    between atoms: C_3  and  N_4
REMARK    3  A    between atoms: N_4  and  C_5
REMARK    4  A    between atoms: C_5  and  C_6
REMARK    5  A    between atoms: C_6  and  O_7
REMARK    6  A    between atoms: C_23  and  C_24
REMARK                            x       y       z     vdW  Elec       q    Type
REMARK                         _______ _______ _______ _____ _____    ______ ____
ROOT
ATOM      1  O   UNL     1       0.952   9.144  20.441  0.00  0.00    +0.000 OA
ATOM      2  C   UNL     1       1.539   8.553  19.511  0.00  0.00    +0.000 C 
ATOM      3  N   UNL     1       2.062   7.271  19.703  0.00  0.00    +0.000 N 
ATOM      4  C   UNL     1       1.747   6.661  21.002  0.00  0.00    +0.000 C 
ATOM      5  C   UNL     1       2.155   5.206  21.221  0.00  0.00    +0.000 C 
ATOM      6  C   UNL     1       1.909   4.392  19.985  0.00  0.00    +0.000 A 
ATOM      7  C   UNL     1       1.493   3.066  20.085  0.00  0.00    +0.000 A 
ATOM      8  C   UNL     1       1.162   2.352  18.935  0.00  0.00    +0.000 A 
ATOM      9  C   UNL     1       1.265   2.967  17.688  0.00  0.00    +0.000 A 
ATOM     10  C   UNL     1       1.749   4.271  17.581  0.00  0.00    +0.000 A 
ATOM     11  C   UNL     1       2.107   4.997  18.730  0.00  0.00    +0.000 A 
ATOM     12  C   UNL     1       2.663   6.418  18.656  0.00  0.00    +0.000 C 
ENDROOT
BRANCH  12  13
ATOM     13  C   UNL     1       4.237   6.485  18.553  0.00  0.00    +0.000 C 
ATOM     14  C   UNL     1       4.979   5.265  19.135  0.00  0.00    +0.000 C 
ATOM     15  C   UNL     1       5.040   4.054  18.205  0.00  0.00    +0.000 C 
ATOM     16  C   UNL     1       5.583   4.382  16.821  0.00  0.00    +0.000 C 
ATOM     17  C   UNL     1       4.959   5.629  16.218  0.00  0.00    +0.000 C 
ATOM     18  C   UNL     1       4.876   6.806  17.188  0.00  0.00    +0.000 C 
ENDBRANCH  12  13
BRANCH   2  19
ATOM     19  C   UNL     1       1.734   9.279  18.154  0.00  0.00    +0.000 C 
BRANCH  19  20
ATOM     20  N   UNL     1       1.097  10.606  18.214  0.00  0.00    +0.000 NA
ATOM     21  H   UNL     1       0.365  10.566  18.925  0.00  0.00    +0.000 HD
BRANCH  20  22
ATOM     22  C   UNL     1       2.044  11.702  18.483  0.00  0.00    +0.000 C 
BRANCH  22  23
ATOM     23  C   UNL     1       1.532  12.586  19.674  0.00  0.00    +0.000 C 
ATOM     24  C   UNL     1       2.426  13.825  19.912  0.00  0.00    +0.000 C 
ATOM     25  C   UNL     1       2.581  14.773  18.730  0.00  0.00    +0.000 C 
ATOM     26  C   UNL     1       1.506  15.849  18.631  0.00  0.00    +0.000 C 
ATOM     27  C   UNL     1       0.079  15.427  18.964  0.00  0.00    +0.000 C 
ATOM     28  C   UNL     1      -0.307  14.029  18.488  0.00  0.00    +0.000 C 
ATOM     29  C   UNL     1       0.037  12.941  19.508  0.00  0.00    +0.000 C 
BRANCH  23  30
ATOM     30  O   UNL     1       1.605  11.802  20.881  0.00  0.00    +0.000 OA
ATOM     31  H   UNL     1       2.525  11.428  20.907  0.00  0.00    +0.000 HD
ENDBRANCH  23  30
ENDBRANCH  22  23
ENDBRANCH  20  22
ENDBRANCH  19  20
ENDBRANCH   2  19
TORSDOF 6
ENDMDL
MODEL 2
REMARK VINA RESULT:      -7.6      1.308      2.083
REMARK  Name = 
REMARK  6 active torsions:
REMARK  status: ('A' for Active; 'I' for Inactive)
REMARK    1  A    between atoms: C_2  and  C_3
REMARK    2  A    between atoms: C_3  and  N_4
REMARK    3  A    between atoms: N_4  and  C_5
REMARK    4  A    between atoms: C_5  and  C_6
REMARK    5  A    between atoms: C_6  and  O_7
REMARK    6  A    between atoms: C_23  and  C_24
REMARK                            x       y       z     vdW  Elec       q    Type
REMARK                         _______ _______ _______ _____ _____    ______ ____
ROOT
ATOM      1  O   UNL     1       1.010   9.218  20.239  0.00  0.00    +0.000 OA
ATOM      2  C   UNL     1       1.572   8.576  19.327  0.00  0.00    +0.000 C 
ATOM      3  N   UNL     1       2.101   7.306  19.575  0.00  0.00    +0.000 N 
ATOM      4  C   UNL     1       1.823   6.769  20.914  0.00  0.00    +0.000 C 
ATOM      5  C   UNL     1       2.239   5.328  21.202  0.00  0.00    +0.000 C 
ATOM      6  C   UNL     1       1.959   4.447  20.020  0.00  0.00    +0.000 A 
ATOM      7  C   UNL     1       1.547   3.129  20.205  0.00  0.00    +0.000 A 
ATOM      8  C   UNL     1       1.185   2.353  19.106  0.00  0.00    +0.000 A 
ATOM      9  C   UNL     1       1.252   2.898  17.824  0.00  0.00    +0.000 A 
ATOM     10  C   UNL     1       1.731   4.193  17.632  0.00  0.00    +0.000 A 
ATOM     11  C   UNL     1       2.121   4.981  18.728  0.00  0.00    +0.000 A 
ATOM     12  C   UNL     1       2.673   6.396  18.561  0.00  0.00    +0.000 C 
ENDROOT
BRANCH  12  13
ATOM     13  C   UNL     1       4.244   6.456  18.409  0.00  0.00    +0.000 C 
ATOM     14  C   UNL     1       5.004   5.276  19.048  0.00  0.00    +0.000 C 
ATOM     15  C   UNL     1       5.041   4.008  18.196  0.00  0.00    +0.000 C 
ATOM     16  C   UNL     1       5.545   4.246  16.780  0.00  0.00    +0.000 C 
ATOM     17  C   UNL     1       4.902   5.452  16.115  0.00  0.00    +0.000 C 
ATOM     18  C   UNL     1       4.844   6.688  17.009  0.00  0.00    +0.000 C 
ENDBRANCH  12  13
BRANCH   2  19
ATOM     19  C   UNL     1       1.728   9.226  17.927  0.00  0.00    +0.000 C 
BRANCH  19  20
ATOM     20  N   UNL     1       1.263  10.622  17.982  0.00  0.00    +0.000 NA
ATOM     21  H   UNL     1       1.485  11.058  17.087  0.00  0.00    +0.000 HD
BRANCH  20  22
ATOM     22  C   UNL     1      -0.170  10.753  18.299  0.00  0.00    +0.000 C 
BRANCH  22  23
ATOM     23  C   UNL     1      -0.526  12.249  18.610  0.00  0.00    +0.000 C 
ATOM     24  C   UNL     1      -1.649  12.379  19.664  0.00  0.00    +0.000 C 
ATOM     25  C   UNL     1      -1.376  11.730  21.015  0.00  0.00    +0.000 C 
ATOM     26  C   UNL     1      -0.646  12.620  22.014  0.00  0.00    +0.000 C 
ATOM     27  C   UNL     1       0.468  13.503  21.461  0.00  0.00    +0.000 C 
ATOM     28  C   UNL     1       1.319  12.860  20.370  0.00  0.00    +0.000 C 
ATOM     29  C   UNL     1       0.738  13.064  18.969  0.00  0.00    +0.000 C 
BRANCH  23  30
ATOM     30  O   UNL     1      -1.036  12.851  17.405  0.00  0.00    +0.000 OA
ATOM     31  H   UNL     1      -1.883  13.303  17.664  0.00  0.00    +0.000 HD
ENDBRANCH  23  30
ENDBRANCH  22  23
ENDBRANCH  20  22
ENDBRANCH  19  20
ENDBRANCH   2  19
TORSDOF 6
ENDMDL
MODEL 3
REMARK VINA RESULT:      -7.4      0.966      1.116
REMARK  Name = 
REMARK  6 active torsions:
REMARK  status: ('A' for Active; 'I' for Inactive)
REMARK    1  A    between atoms: C_2  and  C_3
REMARK    2  A    between atoms: C_3  and  N_4
REMARK    3  A    between atoms: N_4  and  C_5
REMARK    4  A    between atoms: C_5  and  C_6
REMARK    5  A    between atoms: C_6  and  O_7
REMARK    6  A    between atoms: C_23  and  C_24
REMARK                            x       y       z     vdW  Elec       q    Type
REMARK                         _______ _______ _______ _____ _____    ______ ____
ROOT
ATOM      1  O   UNL     1       1.188   8.846  20.323  0.00  0.00    +0.000 OA
ATOM      2  C   UNL     1       1.766   8.234  19.401  0.00  0.00    +0.000 C 
ATOM      3  N   UNL     1       2.266   6.945  19.610  0.00  0.00    +0.000 N 
ATOM      4  C   UNL     1       1.940   6.357  20.916  0.00  0.00    +0.000 C 
ATOM      5  C   UNL     1       2.323   4.898  21.153  0.00  0.00    +0.000 C 
ATOM      6  C   UNL     1       2.064   4.073  19.927  0.00  0.00    +0.000 A 
ATOM      7  C   UNL     1       1.625   2.756  20.043  0.00  0.00    +0.000 A 
ATOM      8  C   UNL     1       1.284   2.034  18.902  0.00  0.00    +0.000 A 
ATOM      9  C   UNL     1       1.398   2.632  17.647  0.00  0.00    +0.000 A 
ATOM     10  C   UNL     1       1.904   3.926  17.524  0.00  0.00    +0.000 A 
ATOM     11  C   UNL     1       2.274   4.659  18.665  0.00  0.00    +0.000 A 
ATOM     12  C   UNL     1       2.854   6.070  18.574  0.00  0.00    +0.000 C 
ENDROOT
BRANCH  12  13
ATOM     13  C   UNL     1       4.429   6.108  18.472  0.00  0.00    +0.000 C 
ATOM     14  C   UNL     1       5.114   4.727  18.464  0.00  0.00    +0.000 C 
ATOM     15  C   UNL     1       5.113   4.024  17.107  0.00  0.00    +0.000 C 
ATOM     16  C   UNL     1       5.667   4.885  15.981  0.00  0.00    +0.000 C 
ATOM     17  C   UNL     1       5.101   6.295  15.978  0.00  0.00    +0.000 C 
ATOM     18  C   UNL     1       5.078   6.951  17.357  0.00  0.00    +0.000 C 
ENDBRANCH  12  13
BRANCH   2  19
ATOM     19  C   UNL     1       1.974   8.940  18.036  0.00  0.00    +0.000 C 
BRANCH  19  20
ATOM     20  N   UNL     1       0.953   9.988  17.867  0.00  0.00    +0.000 NA
ATOM     21  H   UNL     1       0.099   9.664  18.322  0.00  0.00    +0.000 HD
BRANCH  20  22
ATOM     22  C   UNL     1       1.368  11.303  18.384  0.00  0.00    +0.000 C 
BRANCH  22  23
ATOM     23  C   UNL     1       0.271  11.884  19.342  0.00  0.00    +0.000 C 
ATOM     24  C   UNL     1       0.850  12.303  20.713  0.00  0.00    +0.000 C 
ATOM     25  C   UNL     1       1.961  13.344  20.679  0.00  0.00    +0.000 C 
ATOM     26  C   UNL     1       1.481  14.790  20.695  0.00  0.00    +0.000 C 
ATOM     27  C   UNL     1       0.242  15.111  19.866  0.00  0.00    +0.000 C 
ATOM     28  C   UNL     1       0.149  14.375  18.533  0.00  0.00    +0.000 C 
ATOM     29  C   UNL     1      -0.535  13.011  18.656  0.00  0.00    +0.000 C 
BRANCH  23  30
ATOM     30  O   UNL     1      -0.688  10.843  19.614  0.00  0.00    +0.000 OA
ATOM     31  H   UNL     1      -0.986  10.509  18.727  0.00  0.00    +0.000 HD
ENDBRANCH  23  30
ENDBRANCH  22  23
ENDBRANCH  20  22
ENDBRANCH  19  20
ENDBRANCH   2  19
TORSDOF 6
ENDMDL
MODEL 4
REMARK VINA RESULT:      -7.4      1.492      2.119
REMARK  Name = 
REMARK  6 active torsions:
REMARK  status: ('A' for Active; 'I' for Inactive)
REMARK    1  A    between atoms: C_2  and  C_3
REMARK    2  A    between atoms: C_3  and  N_4
REMARK    3  A    between atoms: N_4  and  C_5
REMARK    4  A    between atoms: C_5  and  C_6
REMARK    5  A    between atoms: C_6  and  O_7
REMARK    6  A    between atoms: C_23  and  C_24
REMARK                            x       y       z     vdW  Elec       q    Type
REMARK                         _______ _______ _______ _____ _____    ______ ____
ROOT
ATOM      1  O   UNL     1       1.288   8.697  20.155  0.00  0.00    +0.000 OA
ATOM      2  C   UNL     1       1.848   8.051  19.244  0.00  0.00    +0.000 C 
ATOM      3  N   UNL     1       2.381   6.784  19.498  0.00  0.00    +0.000 N 
ATOM      4  C   UNL     1       2.109   6.254  20.841  0.00  0.00    +0.000 C 
ATOM      5  C   UNL     1       2.529   4.815  21.135  0.00  0.00    +0.000 C 
ATOM      6  C   UNL     1       2.247   3.927  19.959  0.00  0.00    +0.000 A 
ATOM      7  C   UNL     1       1.839   2.609  20.152  0.00  0.00    +0.000 A 
ATOM      8  C   UNL     1       1.475   1.826  19.060  0.00  0.00    +0.000 A 
ATOM      9  C   UNL     1       1.536   2.364  17.774  0.00  0.00    +0.000 A 
ATOM     10  C   UNL     1       2.011   3.660  17.573  0.00  0.00    +0.000 A 
ATOM     11  C   UNL     1       2.403   4.454  18.664  0.00  0.00    +0.000 A 
ATOM     12  C   UNL     1       2.952   5.870  18.486  0.00  0.00    +0.000 C 
ENDROOT
BRANCH  12  13
ATOM     13  C   UNL     1       4.521   5.932  18.329  0.00  0.00    +0.000 C 
ATOM     14  C   UNL     1       5.207   4.570  18.100  0.00  0.00    +0.000 C 
ATOM     15  C   UNL     1       5.153   4.065  16.659  0.00  0.00    +0.000 C 
ATOM     16  C   UNL     1       5.661   5.080  15.644  0.00  0.00    +0.000 C 
ATOM     17  C   UNL     1       5.095   6.473  15.862  0.00  0.00    +0.000 C 
ATOM     18  C   UNL     1       5.125   6.928  17.320  0.00  0.00    +0.000 C 
ENDBRANCH  12  13
BRANCH   2  19
ATOM     19  C   UNL     1       1.997   8.693  17.841  0.00  0.00    +0.000 C 
BRANCH  19  20
ATOM     20  N   UNL     1       1.876  10.157  17.958  0.00  0.00    +0.000 NA
ATOM     21  H   UNL     1       2.253  10.568  17.103  0.00  0.00    +0.000 HD
BRANCH  20  22
ATOM     22  C   UNL     1       0.499  10.615  18.209  0.00  0.00    +0.000 C 
BRANCH  22  23
ATOM     23  C   UNL     1       0.501  12.101  18.711  0.00  0.00    +0.000 C 
ATOM     24  C   UNL     1      -0.865  12.794  18.501  0.00  0.00    +0.000 C 
ATOM     25  C   UNL     1      -2.060  12.133  19.174  0.00  0.00    +0.000 C 
ATOM     26  C   UNL     1      -2.310  12.578  20.610  0.00  0.00    +0.000 C 
ATOM     27  C   UNL     1      -1.081  12.786  21.489  0.00  0.00    +0.000 C 
ATOM     28  C   UNL     1       0.044  11.778  21.272  0.00  0.00    +0.000 C 
ATOM     29  C   UNL     1       1.013  12.202  20.166  0.00  0.00    +0.000 C 
BRANCH  23  30
ATOM     30  O   UNL     1       1.451  12.843  17.921  0.00  0.00    +0.000 OA
ATOM     31  H   UNL     1       2.283  12.884  18.463  0.00  0.00    +0.000 HD
ENDBRANCH  23  30
ENDBRANCH  22  23
ENDBRANCH  20  22
ENDBRANCH  19  20
ENDBRANCH   2  19
TORSDOF 6
ENDMDL
MODEL 5
REMARK VINA RESULT:      -7.3      1.845      4.211
REMARK  Name = 
REMARK  6 active torsions:
REMARK  status: ('A' for Active; 'I' for Inactive)
REMARK    1  A    between atoms: C_2  and  C_3
REMARK    2  A    between atoms: C_3  and  N_4
REMARK    3  A    between atoms: N_4  and  C_5
REMARK    4  A    between atoms: C_5  and  C_6
REMARK    5  A    between atoms: C_6  and  O_7
REMARK    6  A    between atoms: C_23  and  C_24
REMARK                            x       y       z     vdW  Elec       q    Type
REMARK                         _______ _______ _______ _____ _____    ______ ____
ROOT
ATOM      1  O   UNL     1       2.241   9.080  17.457  0.00  0.00    +0.000 OA
ATOM      2  C   UNL     1       2.430   8.068  18.164  0.00  0.00    +0.000 C 
ATOM      3  N   UNL     1       3.280   7.047  17.729  0.00  0.00    +0.000 N 
ATOM      4  C   UNL     1       4.001   7.330  16.481  0.00  0.00    +0.000 C 
ATOM      5  C   UNL     1       5.059   6.325  16.030  0.00  0.00    +0.000 C 
ATOM      6  C   UNL     1       5.851   5.823  17.200  0.00  0.00    +0.000 A 
ATOM      7  C   UNL     1       7.208   5.540  17.064  0.00  0.00    +0.000 A 
ATOM      8  C   UNL     1       7.959   5.178  18.181  0.00  0.00    +0.000 A 
ATOM      9  C   UNL     1       7.341   5.088  19.428  0.00  0.00    +0.000 A 
ATOM     10  C   UNL     1       5.968   5.302  19.553  0.00  0.00    +0.000 A 
ATOM     11  C   UNL     1       5.194   5.646  18.432  0.00  0.00    +0.000 A 
ATOM     12  C   UNL     1       3.684   5.866  18.521  0.00  0.00    +0.000 C 
ENDROOT
BRANCH  12  13
ATOM     13  C   UNL     1       2.832   4.561  18.270  0.00  0.00    +0.000 C 
ATOM     14  C   UNL     1       3.551   3.240  18.608  0.00  0.00    +0.000 C 
ATOM     15  C   UNL     1       3.544   2.873  20.092  0.00  0.00    +0.000 C 
ATOM     16  C   UNL     1       2.152   2.881  20.709  0.00  0.00    +0.000 C 
ATOM     17  C   UNL     1       1.348   4.118  20.345  0.00  0.00    +0.000 C 
ATOM     18  C   UNL     1       1.412   4.479  18.862  0.00  0.00    +0.000 C 
ENDBRANCH  12  13
BRANCH   2  19
ATOM     19  C   UNL     1       1.667   7.929  19.507  0.00  0.00    +0.000 C 
BRANCH  19  20
ATOM     20  N   UNL     1       1.435   9.267  20.079  0.00  0.00    +0.000 NA
ATOM     21  H   UNL     1       1.996   9.932  19.546  0.00  0.00    +0.000 HD
BRANCH  20  22
ATOM     22  C   UNL     1       0.016   9.660  20.099  0.00  0.00    +0.000 C 
BRANCH  22  23
ATOM     23  C   UNL     1      -0.223  10.890  19.154  0.00  0.00    +0.000 C 
ATOM     24  C   UNL     1      -1.558  11.610  19.454  0.00  0.00    +0.000 C 
ATOM     25  C   UNL     1      -1.727  12.140  20.872  0.00  0.00    +0.000 C 
ATOM     26  C   UNL     1      -1.180  13.544  21.097  0.00  0.00    +0.000 C 
ATOM     27  C   UNL     1       0.138  13.886  20.411  0.00  0.00    +0.000 C 
ATOM     28  C   UNL     1       1.159  12.752  20.375  0.00  0.00    +0.000 C 
ATOM     29  C   UNL     1       0.992  11.844  19.155  0.00  0.00    +0.000 C 
BRANCH  23  30
ATOM     30  O   UNL     1      -0.326  10.405  17.802  0.00  0.00    +0.000 OA
ATOM     31  H   UNL     1      -0.997  10.985  17.354  0.00  0.00    +0.000 HD
ENDBRANCH  23  30
ENDBRANCH  22  23
ENDBRANCH  20  22
ENDBRANCH  19  20
ENDBRANCH   2  19
TORSDOF 6
ENDMDL
MODEL 6
REMARK VINA RESULT:      -7.3      2.526      4.614
REMARK  Name = 
REMARK  6 active torsions:
REMARK  status: ('A' for Active; 'I' for Inactive)
REMARK    1  A    between atoms: C_2  and  C_3
REMARK    2  A    between atoms: C_3  and  N_4
REMARK    3  A    between atoms: N_4  and  C_5
REMARK    4  A    between atoms: C_5  and  C_6
REMARK    5  A    between atoms: C_6  and  O_7
REMARK    6  A    between atoms: C_23  and  C_24
REMARK                            x       y       z     vdW  Elec       q    Type
REMARK                         _______ _______ _______ _____ _____    ______ ____
ROOT
ATOM      1  O   UNL     1       2.064   8.899  17.451  0.00  0.00    +0.000 OA
ATOM      2  C   UNL     1       2.263   7.804  18.015  0.00  0.00    +0.000 C 
ATOM      3  N   UNL     1       3.278   6.951  17.570  0.00  0.00    +0.000 N 
ATOM      4  C   UNL     1       4.133   7.504  16.511  0.00  0.00    +0.000 C 
ATOM      5  C   UNL     1       5.353   6.689  16.085  0.00  0.00    +0.000 C 
ATOM      6  C   UNL     1       6.021   6.069  17.276  0.00  0.00    +0.000 A 
ATOM      7  C   UNL     1       7.407   5.935  17.317  0.00  0.00    +0.000 A 
ATOM      8  C   UNL     1       8.027   5.459  18.470  0.00  0.00    +0.000 A 
ATOM      9  C   UNL     1       7.252   5.104  19.573  0.00  0.00    +0.000 A 
ATOM     10  C   UNL     1       5.860   5.170  19.509  0.00  0.00    +0.000 A 
ATOM     11  C   UNL     1       5.219   5.628  18.345  0.00  0.00    +0.000 A 
ATOM     12  C   UNL     1       3.697   5.694  18.224  0.00  0.00    +0.000 C 
ENDROOT
BRANCH  12  13
ATOM     13  C   UNL     1       3.044   4.379  17.643  0.00  0.00    +0.000 C 
ATOM     14  C   UNL     1       3.790   3.075  17.990  0.00  0.00    +0.000 C 
ATOM     15  C   UNL     1       3.491   2.523  19.383  0.00  0.00    +0.000 C 
ATOM     16  C   UNL     1       2.003   2.362  19.662  0.00  0.00    +0.000 C 
ATOM     17  C   UNL     1       1.188   3.580  19.262  0.00  0.00    +0.000 C 
ATOM     18  C   UNL     1       1.543   4.131  17.883  0.00  0.00    +0.000 C 
ENDBRANCH  12  13
BRANCH   2  19
ATOM     19  C   UNL     1       1.337   7.371  19.182  0.00  0.00    +0.000 C 
BRANCH  19  20
ATOM     20  N   UNL     1       1.860   7.915  20.447  0.00  0.00    +0.000 NA
ATOM     21  H   UNL     1       2.378   8.766  20.228  0.00  0.00    +0.000 HD
BRANCH  20  22
ATOM     22  C   UNL     1       0.815   8.169  21.454  0.00  0.00    +0.000 C 
BRANCH  22  23
ATOM     23  C   UNL     1       1.122   9.494  22.236  0.00  0.00    +0.000 C 
ATOM     24  C   UNL     1       1.168  10.728  21.305  0.00  0.00    +0.000 C 
ATOM     25  C   UNL     1      -0.095  11.006  20.500  0.00  0.00    +0.000 C 
ATOM     26  C   UNL     1      -1.129  11.867  21.216  0.00  0.00    +0.000 C 
ATOM     27  C   UNL     1      -1.332  11.604  22.704  0.00  0.00    +0.000 C 
ATOM     28  C   UNL     1      -1.264  10.135  23.114  0.00  0.00    +0.000 C 
ATOM     29  C   UNL     1       0.161   9.676  23.433  0.00  0.00    +0.000 C 
BRANCH  23  30
ATOM     30  O   UNL     1       2.435   9.382  22.816  0.00  0.00    +0.000 OA
ATOM     31  H   UNL     1       2.431   8.535  23.337  0.00  0.00    +0.000 HD
ENDBRANCH  23  30
ENDBRANCH  22  23
ENDBRANCH  20  22
ENDBRANCH  19  20
ENDBRANCH   2  19
TORSDOF 6
ENDMDL
MODEL 7
REMARK VINA RESULT:      -7.3      2.142      4.108
REMARK  Name = 
REMARK  6 active torsions:
REMARK  status: ('A' for Active; 'I' for Inactive)
REMARK    1  A    between atoms: C_2  and  C_3
REMARK    2  A    between atoms: C_3  and  N_4
REMARK    3  A    between atoms: N_4  and  C_5
REMARK    4  A    between atoms: C_5  and  C_6
REMARK    5  A    between atoms: C_6  and  O_7
REMARK    6  A    between atoms: C_23  and  C_24
REMARK                            x       y       z     vdW  Elec       q    Type
REMARK                         _______ _______ _______ _____ _____    ______ ____
ROOT
ATOM      1  O   UNL     1       1.799   9.504  18.718  0.00  0.00    +0.000 OA
ATOM      2  C   UNL     1       1.977   8.351  19.163  0.00  0.00    +0.000 C 
ATOM      3  N   UNL     1       2.699   7.409  18.422  0.00  0.00    +0.000 N 
ATOM      4  C   UNL     1       3.312   7.926  17.192  0.00  0.00    +0.000 C 
ATOM      5  C   UNL     1       4.239   6.993  16.415  0.00  0.00    +0.000 C 
ATOM      6  C   UNL     1       5.102   6.199  17.351  0.00  0.00    +0.000 A 
ATOM      7  C   UNL     1       6.413   5.881  17.003  0.00  0.00    +0.000 A 
ATOM      8  C   UNL     1       7.240   5.239  17.921  0.00  0.00    +0.000 A 
ATOM      9  C   UNL     1       6.744   4.904  19.181  0.00  0.00    +0.000 A 
ATOM     10  C   UNL     1       5.411   5.158  19.505  0.00  0.00    +0.000 A 
ATOM     11  C   UNL     1       4.558   5.785  18.581  0.00  0.00    +0.000 A 
ATOM     12  C   UNL     1       3.086   6.061  18.887  0.00  0.00    +0.000 C 
ENDROOT
BRANCH  12  13
ATOM     13  C   UNL     1       2.115   4.893  18.457  0.00  0.00    +0.000 C 
ATOM     14  C   UNL     1       2.682   3.935  17.390  0.00  0.00    +0.000 C 
ATOM     15  C   UNL     1       3.619   2.859  17.935  0.00  0.00    +0.000 C 
ATOM     16  C   UNL     1       3.019   2.061  19.084  0.00  0.00    +0.000 C 
ATOM     17  C   UNL     1       2.361   2.938  20.137  0.00  0.00    +0.000 C 
ATOM     18  C   UNL     1       1.465   4.029  19.555  0.00  0.00    +0.000 C 
ENDBRANCH  12  13
BRANCH   2  19
ATOM     19  C   UNL     1       1.343   7.955  20.521  0.00  0.00    +0.000 C 
BRANCH  19  20
ATOM     20  N   UNL     1       1.240   9.148  21.379  0.00  0.00    +0.000 NA
ATOM     21  H   UNL     1       1.941   9.818  21.062  0.00  0.00    +0.000 HD
BRANCH  20  22
ATOM     22  C   UNL     1      -0.105   9.748  21.394  0.00  0.00    +0.000 C 
BRANCH  22  23
ATOM     23  C   UNL     1      -0.006  11.312  21.313  0.00  0.00    +0.000 C 
ATOM     24  C   UNL     1      -0.434  11.856  19.930  0.00  0.00    +0.000 C 
ATOM     25  C   UNL     1      -1.847  11.508  19.484  0.00  0.00    +0.000 C 
ATOM     26  C   UNL     1      -2.921  12.485  19.949  0.00  0.00    +0.000 C 
ATOM     27  C   UNL     1      -2.786  13.031  21.366  0.00  0.00    +0.000 C 
ATOM     28  C   UNL     1      -2.282  12.027  22.399  0.00  0.00    +0.000 C 
ATOM     29  C   UNL     1      -0.755  11.984  22.486  0.00  0.00    +0.000 C 
BRANCH  23  30
ATOM     30  O   UNL     1       1.375  11.685  21.480  0.00  0.00    +0.000 OA
ATOM     31  H   UNL     1       1.820  10.904  21.905  0.00  0.00    +0.000 HD
ENDBRANCH  23  30
ENDBRANCH  22  23
ENDBRANCH  20  22
ENDBRANCH  19  20
ENDBRANCH   2  19
TORSDOF 6
ENDMDL
MODEL 8
REMARK VINA RESULT:      -7.3      1.037      1.571
REMARK  Name = 
REMARK  6 active torsions:
REMARK  status: ('A' for Active; 'I' for Inactive)
REMARK    1  A    between atoms: C_2  and  C_3
REMARK    2  A    between atoms: C_3  and  N_4
REMARK    3  A    between atoms: N_4  and  C_5
REMARK    4  A    between atoms: C_5  and  C_6
REMARK    5  A    between atoms: C_6  and  O_7
REMARK    6  A    between atoms: C_23  and  C_24
REMARK                            x       y       z     vdW  Elec       q    Type
REMARK                         _______ _______ _______ _____ _____    ______ ____
ROOT
ATOM      1  O   UNL     1       0.986   9.063  20.144  0.00  0.00    +0.000 OA
ATOM      2  C   UNL     1       1.627   8.452  19.264  0.00  0.00    +0.000 C 
ATOM      3  N   UNL     1       2.169   7.191  19.527  0.00  0.00    +0.000 N 
ATOM      4  C   UNL     1       1.812   6.623  20.834  0.00  0.00    +0.000 C 
ATOM      5  C   UNL     1       2.243   5.187  21.126  0.00  0.00    +0.000 C 
ATOM      6  C   UNL     1       2.069   4.322  19.913  0.00  0.00    +0.000 A 
ATOM      7  C   UNL     1       1.679   2.991  20.046  0.00  0.00    +0.000 A 
ATOM      8  C   UNL     1       1.415   2.226  18.912  0.00  0.00    +0.000 A 
ATOM      9  C   UNL     1       1.558   2.796  17.647  0.00  0.00    +0.000 A 
ATOM     10  C   UNL     1       2.017   4.107  17.511  0.00  0.00    +0.000 A 
ATOM     11  C   UNL     1       2.308   4.883  18.645  0.00  0.00    +0.000 A 
ATOM     12  C   UNL     1       2.835   6.314  18.541  0.00  0.00    +0.000 C 
ENDROOT
BRANCH  12  13
ATOM     13  C   UNL     1       4.410   6.415  18.502  0.00  0.00    +0.000 C 
ATOM     14  C   UNL     1       5.154   5.179  19.047  0.00  0.00    +0.000 C 
ATOM     15  C   UNL     1       5.274   4.021  18.057  0.00  0.00    +0.000 C 
ATOM     16  C   UNL     1       5.863   4.433  16.715  0.00  0.00    +0.000 C 
ATOM     17  C   UNL     1       5.237   5.699  16.155  0.00  0.00    +0.000 C 
ATOM     18  C   UNL     1       5.093   6.820  17.182  0.00  0.00    +0.000 C 
ENDBRANCH  12  13
BRANCH   2  19
ATOM     19  C   UNL     1       1.864   9.131  17.890  0.00  0.00    +0.000 C 
BRANCH  19  20
ATOM     20  N   UNL     1       1.287  10.486  17.908  0.00  0.00    +0.000 NA
ATOM     21  H   UNL     1       0.511  10.483  18.572  0.00  0.00    +0.000 HD
BRANCH  20  22
ATOM     22  C   UNL     1       2.265  11.538  18.235  0.00  0.00    +0.000 C 
BRANCH  22  23
ATOM     23  C   UNL     1       1.536  12.907  18.473  0.00  0.00    +0.000 C 
ATOM     24  C   UNL     1       1.172  13.128  19.959  0.00  0.00    +0.000 C 
ATOM     25  C   UNL     1       2.335  13.103  20.942  0.00  0.00    +0.000 C 
ATOM     26  C   UNL     1       3.026  14.446  21.146  0.00  0.00    +0.000 C 
ATOM     27  C   UNL     1       3.220  15.314  19.907  0.00  0.00    +0.000 C 
ATOM     28  C   UNL     1       3.572  14.551  18.634  0.00  0.00    +0.000 C 
ATOM     29  C   UNL     1       2.335  14.082  17.864  0.00  0.00    +0.000 C 
BRANCH  23  30
ATOM     30  O   UNL     1       0.288  12.883  17.754  0.00  0.00    +0.000 OA
ATOM     31  H   UNL     1       0.491  12.485  16.867  0.00  0.00    +0.000 HD
ENDBRANCH  23  30
ENDBRANCH  22  23
ENDBRANCH  20  22
ENDBRANCH  19  20
ENDBRANCH   2  19
TORSDOF 6
ENDMDL
MODEL 9
REMARK VINA RESULT:      -7.2      1.018      1.724
REMARK  Name = 
REMARK  6 active torsions:
REMARK  status: ('A' for Active; 'I' for Inactive)
REMARK    1  A    between atoms: C_2  and  C_3
REMARK    2  A    between atoms: C_3  and  N_4
REMARK    3  A    between atoms: N_4  and  C_5
REMARK    4  A    between atoms: C_5  and  C_6
REMARK    5  A    between atoms: C_6  and  O_7
REMARK    6  A    between atoms: C_23  and  C_24
REMARK                            x       y       z     vdW  Elec       q    Type
REMARK                         _______ _______ _______ _____ _____    ______ ____
ROOT
ATOM      1  O   UNL     1       0.928   9.189  20.055  0.00  0.00    +0.000 OA
ATOM      2  C   UNL     1       1.536   8.533  19.184  0.00  0.00    +0.000 C 
ATOM      3  N   UNL     1       2.077   7.279  19.489  0.00  0.00    +0.000 N 
ATOM      4  C   UNL     1       1.755   6.775  20.831  0.00  0.00    +0.000 C 
ATOM      5  C   UNL     1       2.183   5.350  21.175  0.00  0.00    +0.000 C 
ATOM      6  C   UNL     1       1.965   4.432  20.009  0.00  0.00    +0.000 A 
ATOM      7  C   UNL     1       1.569   3.113  20.215  0.00  0.00    +0.000 A 
ATOM      8  C   UNL     1       1.264   2.300  19.125  0.00  0.00    +0.000 A 
ATOM      9  C   UNL     1       1.372   2.810  17.832  0.00  0.00    +0.000 A 
ATOM     10  C   UNL     1       1.837   4.109  17.622  0.00  0.00    +0.000 A 
ATOM     11  C   UNL     1       2.170   4.933  18.710  0.00  0.00    +0.000 A 
ATOM     12  C   UNL     1       2.704   6.353  18.524  0.00  0.00    +0.000 C 
ENDROOT
BRANCH  12  13
ATOM     13  C   UNL     1       4.278   6.436  18.433  0.00  0.00    +0.000 C 
ATOM     14  C   UNL     1       5.030   5.246  19.060  0.00  0.00    +0.000 C 
ATOM     15  C   UNL     1       5.115   4.007  18.170  0.00  0.00    +0.000 C 
ATOM     16  C   UNL     1       5.668   4.298  16.781  0.00  0.00    +0.000 C 
ATOM     17  C   UNL     1       5.033   5.517  16.133  0.00  0.00    +0.000 C 
ATOM     18  C   UNL     1       4.926   6.722  17.064  0.00  0.00    +0.000 C 
ENDBRANCH  12  13
BRANCH   2  19
ATOM     19  C   UNL     1       1.737   9.146  17.774  0.00  0.00    +0.000 C 
BRANCH  19  20
ATOM     20  N   UNL     1       1.383  10.576  17.809  0.00  0.00    +0.000 NA
ATOM     21  H   UNL     1       0.504  10.665  18.318  0.00  0.00    +0.000 HD
BRANCH  20  22
ATOM     22  C   UNL     1       2.431  11.427  18.399  0.00  0.00    +0.000 C 
BRANCH  22  23
ATOM     23  C   UNL     1       1.980  12.929  18.395  0.00  0.00    +0.000 C 
ATOM     24  C   UNL     1       0.501  13.100  18.812  0.00  0.00    +0.000 C 
ATOM     25  C   UNL     1       0.129  12.560  20.186  0.00  0.00    +0.000 C 
ATOM     26  C   UNL     1       0.330  13.544  21.334  0.00  0.00    +0.000 C 
ATOM     27  C   UNL     1       1.577  14.419  21.277  0.00  0.00    +0.000 C 
ATOM     28  C   UNL     1       2.828  13.725  20.745  0.00  0.00    +0.000 C 
ATOM     29  C   UNL     1       2.947  13.808  19.221  0.00  0.00    +0.000 C 
BRANCH  23  30
ATOM     30  O   UNL     1       2.075  13.425  17.046  0.00  0.00    +0.000 OA
ATOM     31  H   UNL     1       3.041  13.599  16.886  0.00  0.00    +0.000 HD
ENDBRANCH  23  30
ENDBRANCH  22  23
ENDBRANCH  20  22
ENDBRANCH  19  20
ENDBRANCH   2  19
TORSDOF 6
ENDMDL
