MODEL 1
REMARK VINA RESULT:      -7.6      0.000      0.000
REMARK  Name = 
REMARK  4 active torsions:
REMARK  status: ('A' for Active; 'I' for Inactive)
REMARK    1  A    between atoms: O_1  and  C_2
REMARK    2  A    between atoms: C_2  and  C_3
REMARK    3  A    between atoms: N_15  and  C_16
REMARK    4  A    between atoms: C_16  and  C_17
REMARK                            x       y       z     vdW  Elec       q    Type
REMARK                         _______ _______ _______ _____ _____    ______ ____
ROOT
ATOM      1  C   UNL     1       2.018   8.229  18.184  0.00  0.00    +0.000 A 
ATOM      2  C   UNL     1       3.332   8.147  17.740  0.00  0.00    +0.000 A 
ATOM      3  N   UNL     1       4.199   7.144  18.002  0.00  0.00    +0.000 NA
ATOM      4  C   UNL     1       3.660   6.126  18.700  0.00  0.00    +0.000 A 
ATOM      5  C   UNL     1       2.374   6.077  19.217  0.00  0.00    +0.000 A 
ATOM      6  C   UNL     1       1.527   7.173  18.959  0.00  0.00    +0.000 A 
ATOM      7  C   UNL     1       2.264   4.861  19.949  0.00  0.00    +0.000 A 
ATOM      8  C   UNL     1       1.234   4.297  20.733  0.00  0.00    +0.000 A 
ATOM      9  C   UNL     1       1.441   3.076  21.379  0.00  0.00    +0.000 A 
ATOM     10  C   UNL     1       2.656   2.414  21.248  0.00  0.00    +0.000 A 
ATOM     11  C   UNL     1       3.689   2.947  20.470  0.00  0.00    +0.000 A 
ATOM     12  C   UNL     1       3.481   4.175  19.820  0.00  0.00    +0.000 A 
ATOM     13  N   UNL     1       4.302   4.946  19.007  0.00  0.00    +0.000 N 
ENDROOT
BRANCH   1  14
ATOM     14  C   UNL     1       1.166   9.403  17.822  0.00  0.00    +0.000 C 
BRANCH  14  15
ATOM     15  O   UNL     1       2.007  10.464  17.393  0.00  0.00    +0.000 OA
ATOM     16  H   UNL     1       2.124  11.054  18.157  0.00  0.00    +0.000 HD
ENDBRANCH  14  15
ENDBRANCH   1  14
BRANCH  13  17
ATOM     17  C   UNL     1       5.703   4.675  18.666  0.00  0.00    +0.000 C 
BRANCH  17  18
ATOM     18  C   UNL     1       5.996   4.607  17.177  0.00  0.00    +0.000 A 
ATOM     19  C   UNL     1       5.331   3.706  16.314  0.00  0.00    +0.000 A 
ATOM     20 CL   UNL     1       4.013   2.706  16.797  0.00  0.00    +0.000 Cl
ATOM     21  C   UNL     1       5.634   3.629  14.948  0.00  0.00    +0.000 A 
ATOM     22  C   UNL     1       6.572   4.478  14.384  0.00  0.00    +0.000 A 
ATOM     23  C   UNL     1       7.190   5.423  15.189  0.00  0.00    +0.000 A 
ATOM     24  C   UNL     1       6.905   5.498  16.561  0.00  0.00    +0.000 A 
ATOM     25 CL   UNL     1       7.660   6.805  17.406  0.00  0.00    +0.000 Cl
ENDBRANCH  17  18
ENDBRANCH  13  17
TORSDOF 4
ENDMDL
MODEL 2
REMARK VINA RESULT:      -7.2      7.240     10.118
REMARK  Name = 
REMARK  4 active torsions:
REMARK  status: ('A' for Active; 'I' for Inactive)
REMARK    1  A    between atoms: O_1  and  C_2
REMARK    2  A    between atoms: C_2  and  C_3
REMARK    3  A    between atoms: N_15  and  C_16
REMARK    4  A    between atoms: C_16  and  C_17
REMARK                            x       y       z     vdW  Elec       q    Type
REMARK                         _______ _______ _______ _____ _____    ______ ____
ROOT
ATOM      1  C   UNL     1      -3.594  10.721  15.694  0.00  0.00    +0.000 A 
ATOM      2  C   UNL     1      -2.281  10.873  16.124  0.00  0.00    +0.000 A 
ATOM      3  N   UNL     1      -1.888  11.375  17.315  0.00  0.00    +0.000 NA
ATOM      4  C   UNL     1      -2.906  11.668  18.146  0.00  0.00    +0.000 A 
ATOM      5  C   UNL     1      -4.258  11.580  17.849  0.00  0.00    +0.000 A 
ATOM      6  C   UNL     1      -4.614  11.099  16.573  0.00  0.00    +0.000 A 
ATOM      7  C   UNL     1      -4.968  12.066  18.983  0.00  0.00    +0.000 A 
ATOM      8  C   UNL     1      -6.340  12.274  19.246  0.00  0.00    +0.000 A 
ATOM      9  C   UNL     1      -6.738  12.817  20.469  0.00  0.00    +0.000 A 
ATOM     10  C   UNL     1      -5.789  13.149  21.429  0.00  0.00    +0.000 A 
ATOM     11  C   UNL     1      -4.425  12.945  21.195  0.00  0.00    +0.000 A 
ATOM     12  C   UNL     1      -4.024  12.398  19.966  0.00  0.00    +0.000 A 
ATOM     13  N   UNL     1      -2.770  12.096  19.449  0.00  0.00    +0.000 N 
ENDROOT
BRANCH   1  14
ATOM     14  C   UNL     1      -3.889  10.153  14.342  0.00  0.00    +0.000 C 
BRANCH  14  15
ATOM     15  O   UNL     1      -2.674  10.044  13.615  0.00  0.00    +0.000 OA
ATOM     16  H   UNL     1      -2.677  10.759  12.957  0.00  0.00    +0.000 HD
ENDBRANCH  14  15
ENDBRANCH   1  14
BRANCH  13  17
ATOM     17  C   UNL     1      -1.473  12.360  20.082  0.00  0.00    +0.000 C 
BRANCH  17  18
ATOM     18  C   UNL     1      -0.982  11.261  21.009  0.00  0.00    +0.000 A 
ATOM     19  C   UNL     1      -0.279  10.129  20.537  0.00  0.00    +0.000 A 
ATOM     20 CL   UNL     1       0.248   9.934  18.907  0.00  0.00    +0.000 Cl
ATOM     21  C   UNL     1       0.141   9.105  21.397  0.00  0.00    +0.000 A 
ATOM     22  C   UNL     1      -0.081   9.195  22.761  0.00  0.00    +0.000 A 
ATOM     23  C   UNL     1      -0.705  10.327  23.267  0.00  0.00    +0.000 A 
ATOM     24  C   UNL     1      -1.142  11.350  22.411  0.00  0.00    +0.000 A 
ATOM     25 CL   UNL     1      -1.788  12.749  23.197  0.00  0.00    +0.000 Cl
ENDBRANCH  17  18
ENDBRANCH  13  17
TORSDOF 4
ENDMDL
MODEL 3
REMARK VINA RESULT:      -7.2      0.163      1.874
REMARK  Name = 
REMARK  4 active torsions:
REMARK  status: ('A' for Active; 'I' for Inactive)
REMARK    1  A    between atoms: O_1  and  C_2
REMARK    2  A    between atoms: C_2  and  C_3
REMARK    3  A    between atoms: N_15  and  C_16
REMARK    4  A    between atoms: C_16  and  C_17
REMARK                            x       y       z     vdW  Elec       q    Type
REMARK                         _______ _______ _______ _____ _____    ______ ____
ROOT
ATOM      1  C   UNL     1       1.968   8.300  18.178  0.00  0.00    +0.000 A 
ATOM      2  C   UNL     1       3.288   8.208  17.751  0.00  0.00    +0.000 A 
ATOM      3  N   UNL     1       4.139   7.193  18.013  0.00  0.00    +0.000 NA
ATOM      4  C   UNL     1       3.580   6.174  18.693  0.00  0.00    +0.000 A 
ATOM      5  C   UNL     1       2.287   6.133  19.192  0.00  0.00    +0.000 A 
ATOM      6  C   UNL     1       1.455   7.241  18.934  0.00  0.00    +0.000 A 
ATOM      7  C   UNL     1       2.153   4.910  19.909  0.00  0.00    +0.000 A 
ATOM      8  C   UNL     1       1.106   4.349  20.673  0.00  0.00    +0.000 A 
ATOM      9  C   UNL     1       1.292   3.120  21.307  0.00  0.00    +0.000 A 
ATOM     10  C   UNL     1       2.501   2.445  21.185  0.00  0.00    +0.000 A 
ATOM     11  C   UNL     1       3.550   2.976  20.427  0.00  0.00    +0.000 A 
ATOM     12  C   UNL     1       3.364   4.212  19.789  0.00  0.00    +0.000 A 
ATOM     13  N   UNL     1       4.205   4.983  18.995  0.00  0.00    +0.000 N 
ENDROOT
BRANCH   1  14
ATOM     14  C   UNL     1       1.134   9.487  17.817  0.00  0.00    +0.000 C 
BRANCH  14  15
ATOM     15  O   UNL     1       1.992  10.544  17.412  0.00  0.00    +0.000 OA
ATOM     16  H   UNL     1       1.735  11.327  17.929  0.00  0.00    +0.000 HD
ENDBRANCH  14  15
ENDBRANCH   1  14
BRANCH  13  17
ATOM     17  C   UNL     1       5.608   4.701  18.671  0.00  0.00    +0.000 C 
BRANCH  17  18
ATOM     18  C   UNL     1       5.928   4.682  17.186  0.00  0.00    +0.000 A 
ATOM     19  C   UNL     1       6.837   5.589  16.595  0.00  0.00    +0.000 A 
ATOM     20 CL   UNL     1       7.806   6.700  17.488  0.00  0.00    +0.000 Cl
ATOM     21  C   UNL     1       7.099   5.584  15.218  0.00  0.00    +0.000 A 
ATOM     22  C   UNL     1       6.503   4.647  14.390  0.00  0.00    +0.000 A 
ATOM     23  C   UNL     1       5.662   3.696  14.949  0.00  0.00    +0.000 A 
ATOM     24  C   UNL     1       5.381   3.703  16.324  0.00  0.00    +0.000 A 
ATOM     25 CL   UNL     1       4.416   2.385  16.892  0.00  0.00    +0.000 Cl
ENDBRANCH  17  18
ENDBRANCH  13  17
TORSDOF 4
ENDMDL
MODEL 4
REMARK VINA RESULT:      -6.9      5.111      8.599
REMARK  Name = 
REMARK  4 active torsions:
REMARK  status: ('A' for Active; 'I' for Inactive)
REMARK    1  A    between atoms: O_1  and  C_2
REMARK    2  A    between atoms: C_2  and  C_3
REMARK    3  A    between atoms: N_15  and  C_16
REMARK    4  A    between atoms: C_16  and  C_17
REMARK                            x       y       z     vdW  Elec       q    Type
REMARK                         _______ _______ _______ _____ _____    ______ ____
ROOT
ATOM      1  C   UNL     1       2.540   7.579  18.480  0.00  0.00    +0.000 A 
ATOM      2  C   UNL     1       2.057   8.466  17.525  0.00  0.00    +0.000 A 
ATOM      3  N   UNL     1       1.191   9.479  17.748  0.00  0.00    +0.000 NA
ATOM      4  C   UNL     1       0.860   9.638  19.042  0.00  0.00    +0.000 A 
ATOM      5  C   UNL     1       1.253   8.826  20.096  0.00  0.00    +0.000 A 
ATOM      6  C   UNL     1       2.116   7.752  19.801  0.00  0.00    +0.000 A 
ATOM      7  C   UNL     1       0.605   9.314  21.266  0.00  0.00    +0.000 A 
ATOM      8  C   UNL     1       0.569   8.869  22.606  0.00  0.00    +0.000 A 
ATOM      9  C   UNL     1      -0.210   9.550  23.543  0.00  0.00    +0.000 A 
ATOM     10  C   UNL     1      -0.947  10.666  23.162  0.00  0.00    +0.000 A 
ATOM     11  C   UNL     1      -0.921  11.131  21.843  0.00  0.00    +0.000 A 
ATOM     12  C   UNL     1      -0.137  10.447  20.900  0.00  0.00    +0.000 A 
ATOM     13  N   UNL     1       0.077  10.656  19.543  0.00  0.00    +0.000 N 
ENDROOT
BRANCH   1  14
ATOM     14  C   UNL     1       3.496   6.495  18.094  0.00  0.00    +0.000 C 
BRANCH  14  15
ATOM     15  O   UNL     1       4.452   7.028  17.189  0.00  0.00    +0.000 OA
ATOM     16  H   UNL     1       5.007   7.642  17.698  0.00  0.00    +0.000 HD
ENDBRANCH  14  15
ENDBRANCH   1  14
BRANCH  13  17
ATOM     17  C   UNL     1      -0.565  11.672  18.700  0.00  0.00    +0.000 C 
BRANCH  17  18
ATOM     18  C   UNL     1      -2.082  11.612  18.674  0.00  0.00    +0.000 A 
ATOM     19  C   UNL     1      -2.889  12.477  19.448  0.00  0.00    +0.000 A 
ATOM     20 CL   UNL     1      -2.274  13.794  20.374  0.00  0.00    +0.000 Cl
ATOM     21  C   UNL     1      -4.288  12.390  19.441  0.00  0.00    +0.000 A 
ATOM     22  C   UNL     1      -4.933  11.473  18.628  0.00  0.00    +0.000 A 
ATOM     23  C   UNL     1      -4.174  10.658  17.801  0.00  0.00    +0.000 A 
ATOM     24  C   UNL     1      -2.772  10.727  17.813  0.00  0.00    +0.000 A 
ATOM     25 CL   UNL     1      -1.970   9.739  16.641  0.00  0.00    +0.000 Cl
ENDBRANCH  17  18
ENDBRANCH  13  17
TORSDOF 4
ENDMDL
MODEL 5
REMARK VINA RESULT:      -6.6      1.809      4.838
REMARK  Name = 
REMARK  4 active torsions:
REMARK  status: ('A' for Active; 'I' for Inactive)
REMARK    1  A    between atoms: O_1  and  C_2
REMARK    2  A    between atoms: C_2  and  C_3
REMARK    3  A    between atoms: N_15  and  C_16
REMARK    4  A    between atoms: C_16  and  C_17
REMARK                            x       y       z     vdW  Elec       q    Type
REMARK                         _______ _______ _______ _____ _____    ______ ____
ROOT
ATOM      1  C   UNL     1       2.245   8.633  18.261  0.00  0.00    +0.000 A 
ATOM      2  C   UNL     1       2.071   7.764  19.332  0.00  0.00    +0.000 A 
ATOM      3  N   UNL     1       2.679   6.568  19.491  0.00  0.00    +0.000 NA
ATOM      4  C   UNL     1       3.578   6.281  18.531  0.00  0.00    +0.000 A 
ATOM      5  C   UNL     1       3.845   7.043  17.403  0.00  0.00    +0.000 A 
ATOM      6  C   UNL     1       3.145   8.257  17.259  0.00  0.00    +0.000 A 
ATOM      7  C   UNL     1       4.797   6.323  16.628  0.00  0.00    +0.000 A 
ATOM      8  C   UNL     1       5.394   6.560  15.369  0.00  0.00    +0.000 A 
ATOM      9  C   UNL     1       6.283   5.626  14.836  0.00  0.00    +0.000 A 
ATOM     10  C   UNL     1       6.587   4.467  15.541  0.00  0.00    +0.000 A 
ATOM     11  C   UNL     1       6.016   4.214  16.793  0.00  0.00    +0.000 A 
ATOM     12  C   UNL     1       5.121   5.153  17.330  0.00  0.00    +0.000 A 
ATOM     13  N   UNL     1       4.401   5.175  18.518  0.00  0.00    +0.000 N 
ENDROOT
BRANCH   1  14
ATOM     14  C   UNL     1       1.502   9.930  18.208  0.00  0.00    +0.000 C 
BRANCH  14  15
ATOM     15  O   UNL     1       2.245  10.853  17.426  0.00  0.00    +0.000 OA
ATOM     16  H   UNL     1       2.243  10.513  16.515  0.00  0.00    +0.000 HD
ENDBRANCH  14  15
ENDBRANCH   1  14
BRANCH  13  17
ATOM     17  C   UNL     1       4.348   4.116  19.532  0.00  0.00    +0.000 C 
BRANCH  17  18
ATOM     18  C   UNL     1       3.049   3.329  19.564  0.00  0.00    +0.000 A 
ATOM     19  C   UNL     1       2.713   2.379  18.573  0.00  0.00    +0.000 A 
ATOM     20 CL   UNL     1       3.782   1.879  17.318  0.00  0.00    +0.000 Cl
ATOM     21  C   UNL     1       1.496   1.684  18.596  0.00  0.00    +0.000 A 
ATOM     22  C   UNL     1       0.594   1.873  19.630  0.00  0.00    +0.000 A 
ATOM     23  C   UNL     1       0.925   2.744  20.657  0.00  0.00    +0.000 A 
ATOM     24  C   UNL     1       2.134   3.457  20.635  0.00  0.00    +0.000 A 
ATOM     25 CL   UNL     1       2.461   4.408  22.043  0.00  0.00    +0.000 Cl
ENDBRANCH  17  18
ENDBRANCH  13  17
TORSDOF 4
ENDMDL
MODEL 6
REMARK VINA RESULT:      -6.6      5.127      8.434
REMARK  Name = 
REMARK  4 active torsions:
REMARK  status: ('A' for Active; 'I' for Inactive)
REMARK    1  A    between atoms: O_1  and  C_2
REMARK    2  A    between atoms: C_2  and  C_3
REMARK    3  A    between atoms: N_15  and  C_16
REMARK    4  A    between atoms: C_16  and  C_17
REMARK                            x       y       z     vdW  Elec       q    Type
REMARK                         _______ _______ _______ _____ _____    ______ ____
ROOT
ATOM      1  C   UNL     1       2.446   7.557  18.786  0.00  0.00    +0.000 A 
ATOM      2  C   UNL     1       2.260   8.525  17.806  0.00  0.00    +0.000 A 
ATOM      3  N   UNL     1       1.543   9.662  17.938  0.00  0.00    +0.000 NA
ATOM      4  C   UNL     1       1.047   9.853  19.174  0.00  0.00    +0.000 A 
ATOM      5  C   UNL     1       1.140   8.972  20.241  0.00  0.00    +0.000 A 
ATOM      6  C   UNL     1       1.857   7.776  20.035  0.00  0.00    +0.000 A 
ATOM      7  C   UNL     1       0.407   9.541  21.320  0.00  0.00    +0.000 A 
ATOM      8  C   UNL     1       0.096   9.087  22.621  0.00  0.00    +0.000 A 
ATOM      9  C   UNL     1      -0.700   9.871  23.458  0.00  0.00    +0.000 A 
ATOM     10  C   UNL     1      -1.183  11.097  23.017  0.00  0.00    +0.000 A 
ATOM     11  C   UNL     1      -0.882  11.572  21.736  0.00  0.00    +0.000 A 
ATOM     12  C   UNL     1      -0.082  10.785  20.894  0.00  0.00    +0.000 A 
ATOM     13  N   UNL     1       0.368  10.977  19.593  0.00  0.00    +0.000 N 
ENDROOT
BRANCH   1  14
ATOM     14  C   UNL     1       3.265   6.338  18.503  0.00  0.00    +0.000 C 
BRANCH  14  15
ATOM     15  O   UNL     1       3.783   5.840  19.727  0.00  0.00    +0.000 OA
ATOM     16  H   UNL     1       3.022   5.542  20.253  0.00  0.00    +0.000 HD
ENDBRANCH  14  15
ENDBRANCH   1  14
BRANCH  13  17
ATOM     17  C   UNL     1       0.032  12.097  18.706  0.00  0.00    +0.000 C 
BRANCH  17  18
ATOM     18  C   UNL     1       0.717  13.409  19.047  0.00  0.00    +0.000 A 
ATOM     19  C   UNL     1       2.066  13.669  18.714  0.00  0.00    +0.000 A 
ATOM     20 CL   UNL     1       3.039  12.621  17.750  0.00  0.00    +0.000 Cl
ATOM     21  C   UNL     1       2.698  14.870  19.063  0.00  0.00    +0.000 A 
ATOM     22  C   UNL     1       1.996  15.873  19.713  0.00  0.00    +0.000 A 
ATOM     23  C   UNL     1       0.651  15.679  19.990  0.00  0.00    +0.000 A 
ATOM     24  C   UNL     1       0.014  14.473  19.658  0.00  0.00    +0.000 A 
ATOM     25 CL   UNL     1      -1.689  14.427  19.954  0.00  0.00    +0.000 Cl
ENDBRANCH  17  18
ENDBRANCH  13  17
TORSDOF 4
ENDMDL
MODEL 7
REMARK VINA RESULT:      -6.6      5.080      8.394
REMARK  Name = 
REMARK  4 active torsions:
REMARK  status: ('A' for Active; 'I' for Inactive)
REMARK    1  A    between atoms: O_1  and  C_2
REMARK    2  A    between atoms: C_2  and  C_3
REMARK    3  A    between atoms: N_15  and  C_16
REMARK    4  A    between atoms: C_16  and  C_17
REMARK                            x       y       z     vdW  Elec       q    Type
REMARK                         _______ _______ _______ _____ _____    ______ ____
ROOT
ATOM      1  C   UNL     1       2.439   7.508  18.767  0.00  0.00    +0.000 A 
ATOM      2  C   UNL     1       2.121   8.390  17.741  0.00  0.00    +0.000 A 
ATOM      3  N   UNL     1       1.333   9.482  17.847  0.00  0.00    +0.000 NA
ATOM      4  C   UNL     1       0.905   9.726  19.100  0.00  0.00    +0.000 A 
ATOM      5  C   UNL     1       1.131   8.930  20.214  0.00  0.00    +0.000 A 
ATOM      6  C   UNL     1       1.917   7.775  20.037  0.00  0.00    +0.000 A 
ATOM      7  C   UNL     1       0.429   9.523  21.301  0.00  0.00    +0.000 A 
ATOM      8  C   UNL     1       0.237   9.142  22.647  0.00  0.00    +0.000 A 
ATOM      9  C   UNL     1      -0.558   9.927  23.484  0.00  0.00    +0.000 A 
ATOM     10  C   UNL     1      -1.156  11.084  22.998  0.00  0.00    +0.000 A 
ATOM     11  C   UNL     1      -0.974  11.487  21.670  0.00  0.00    +0.000 A 
ATOM     12  C   UNL     1      -0.175  10.698  20.828  0.00  0.00    +0.000 A 
ATOM     13  N   UNL     1       0.175  10.828  19.490  0.00  0.00    +0.000 N 
ENDROOT
BRANCH   1  14
ATOM     14  C   UNL     1       3.325   6.331  18.509  0.00  0.00    +0.000 C 
BRANCH  14  15
ATOM     15  O   UNL     1       2.597   5.363  17.769  0.00  0.00    +0.000 OA
ATOM     16  H   UNL     1       3.127   4.548  17.776  0.00  0.00    +0.000 HD
ENDBRANCH  14  15
ENDBRANCH   1  14
BRANCH  13  17
ATOM     17  C   UNL     1      -0.298  11.857  18.556  0.00  0.00    +0.000 C 
BRANCH  17  18
ATOM     18  C   UNL     1       0.234  13.254  18.824  0.00  0.00    +0.000 A 
ATOM     19  C   UNL     1      -0.550  14.259  19.435  0.00  0.00    +0.000 A 
ATOM     20 CL   UNL     1      -2.120  13.988  20.093  0.00  0.00    +0.000 Cl
ATOM     21  C   UNL     1      -0.060  15.555  19.647  0.00  0.00    +0.000 A 
ATOM     22  C   UNL     1       1.241  15.882  19.304  0.00  0.00    +0.000 A 
ATOM     23  C   UNL     1       2.061  14.899  18.769  0.00  0.00    +0.000 A 
ATOM     24  C   UNL     1       1.574  13.603  18.538  0.00  0.00    +0.000 A 
ATOM     25 CL   UNL     1       2.746  12.457  17.984  0.00  0.00    +0.000 Cl
ENDBRANCH  17  18
ENDBRANCH  13  17
TORSDOF 4
ENDMDL
MODEL 8
REMARK VINA RESULT:      -6.5      5.130      8.508
REMARK  Name = 
REMARK  4 active torsions:
REMARK  status: ('A' for Active; 'I' for Inactive)
REMARK    1  A    between atoms: O_1  and  C_2
REMARK    2  A    between atoms: C_2  and  C_3
REMARK    3  A    between atoms: N_15  and  C_16
REMARK    4  A    between atoms: C_16  and  C_17
REMARK                            x       y       z     vdW  Elec       q    Type
REMARK                         _______ _______ _______ _____ _____    ______ ____
ROOT
ATOM      1  C   UNL     1       2.477   7.683  18.500  0.00  0.00    +0.000 A 
ATOM      2  C   UNL     1       2.019   8.598  17.559  0.00  0.00    +0.000 A 
ATOM      3  N   UNL     1       1.164   9.617  17.791  0.00  0.00    +0.000 NA
ATOM      4  C   UNL     1       0.815   9.752  19.084  0.00  0.00    +0.000 A 
ATOM      5  C   UNL     1       1.182   8.911  20.125  0.00  0.00    +0.000 A 
ATOM      6  C   UNL     1       2.035   7.832  19.818  0.00  0.00    +0.000 A 
ATOM      7  C   UNL     1       0.523   9.382  21.296  0.00  0.00    +0.000 A 
ATOM      8  C   UNL     1       0.462   8.907  22.625  0.00  0.00    +0.000 A 
ATOM      9  C   UNL     1      -0.322   9.577  23.565  0.00  0.00    +0.000 A 
ATOM     10  C   UNL     1      -1.038  10.711  23.199  0.00  0.00    +0.000 A 
ATOM     11  C   UNL     1      -0.987  11.205  21.891  0.00  0.00    +0.000 A 
ATOM     12  C   UNL     1      -0.198  10.532  20.945  0.00  0.00    +0.000 A 
ATOM     13  N   UNL     1       0.039  10.769  19.596  0.00  0.00    +0.000 N 
ENDROOT
BRANCH   1  14
ATOM     14  C   UNL     1       3.424   6.596  18.104  0.00  0.00    +0.000 C 
BRANCH  14  15
ATOM     15  O   UNL     1       4.267   7.077  17.067  0.00  0.00    +0.000 OA
ATOM     16  H   UNL     1       3.902   7.932  16.783  0.00  0.00    +0.000 HD
ENDBRANCH  14  15
ENDBRANCH   1  14
BRANCH  13  17
ATOM     17  C   UNL     1      -0.577  11.811  18.767  0.00  0.00    +0.000 C 
BRANCH  17  18
ATOM     18  C   UNL     1      -2.088  11.716  18.642  0.00  0.00    +0.000 A 
ATOM     19  C   UNL     1      -2.721  10.795  17.776  0.00  0.00    +0.000 A 
ATOM     20 CL   UNL     1      -1.884   9.573  16.894  0.00  0.00    +0.000 Cl
ATOM     21  C   UNL     1      -4.115  10.740  17.644  0.00  0.00    +0.000 A 
ATOM     22  C   UNL     1      -4.929  11.564  18.404  0.00  0.00    +0.000 A 
ATOM     23  C   UNL     1      -4.343  12.428  19.317  0.00  0.00    +0.000 A 
ATOM     24  C   UNL     1      -2.948  12.503  19.445  0.00  0.00    +0.000 A 
ATOM     25 CL   UNL     1      -2.371  13.534  20.708  0.00  0.00    +0.000 Cl
ENDBRANCH  17  18
ENDBRANCH  13  17
TORSDOF 4
ENDMDL
MODEL 9
REMARK VINA RESULT:      -6.5      6.851     10.031
REMARK  Name = 
REMARK  4 active torsions:
REMARK  status: ('A' for Active; 'I' for Inactive)
REMARK    1  A    between atoms: O_1  and  C_2
REMARK    2  A    between atoms: C_2  and  C_3
REMARK    3  A    between atoms: N_15  and  C_16
REMARK    4  A    between atoms: C_16  and  C_17
REMARK                            x       y       z     vdW  Elec       q    Type
REMARK                         _______ _______ _______ _____ _____    ______ ____
ROOT
ATOM      1  C   UNL     1      -5.794  13.111  21.478  0.00  0.00    +0.000 A 
ATOM      2  C   UNL     1      -4.597  13.278  22.165  0.00  0.00    +0.000 A 
ATOM      3  N   UNL     1      -3.366  12.966  21.705  0.00  0.00    +0.000 NA
ATOM      4  C   UNL     1      -3.355  12.526  20.433  0.00  0.00    +0.000 A 
ATOM      5  C   UNL     1      -4.466  12.298  19.634  0.00  0.00    +0.000 A 
ATOM      6  C   UNL     1      -5.731  12.591  20.181  0.00  0.00    +0.000 A 
ATOM      7  C   UNL     1      -3.994  11.760  18.404  0.00  0.00    +0.000 A 
ATOM      8  C   UNL     1      -4.646  11.283  17.246  0.00  0.00    +0.000 A 
ATOM      9  C   UNL     1      -3.895  10.763  16.190  0.00  0.00    +0.000 A 
ATOM     10  C   UNL     1      -2.508  10.718  16.274  0.00  0.00    +0.000 A 
ATOM     11  C   UNL     1      -1.838  11.192  17.406  0.00  0.00    +0.000 A 
ATOM     12  C   UNL     1      -2.593  11.715  18.468  0.00  0.00    +0.000 A 
ATOM     13  N   UNL     1      -2.223  12.239  19.701  0.00  0.00    +0.000 N 
ENDROOT
BRANCH   1  14
ATOM     14  C   UNL     1      -7.093  13.496  22.111  0.00  0.00    +0.000 C 
BRANCH  14  15
ATOM     15  O   UNL     1      -7.149  12.942  23.417  0.00  0.00    +0.000 OA
ATOM     16  H   UNL     1      -6.236  12.719  23.666  0.00  0.00    +0.000 HD
ENDBRANCH  14  15
ENDBRANCH   1  14
BRANCH  13  17
ATOM     17  C   UNL     1      -0.865  12.310  20.252  0.00  0.00    +0.000 C 
BRANCH  17  18
ATOM     18  C   UNL     1      -0.287  10.978  20.699  0.00  0.00    +0.000 A 
ATOM     19  C   UNL     1       0.619  10.240  19.905  0.00  0.00    +0.000 A 
ATOM     20 CL   UNL     1       1.304  10.820  18.433  0.00  0.00    +0.000 Cl
ATOM     21  C   UNL     1       1.119   8.996  20.313  0.00  0.00    +0.000 A 
ATOM     22  C   UNL     1       0.773   8.467  21.546  0.00  0.00    +0.000 A 
ATOM     23  C   UNL     1      -0.057   9.199  22.381  0.00  0.00    +0.000 A 
ATOM     24  C   UNL     1      -0.576  10.438  21.974  0.00  0.00    +0.000 A 
ATOM     25 CL   UNL     1      -1.494  11.288  23.169  0.00  0.00    +0.000 Cl
ENDBRANCH  17  18
ENDBRANCH  13  17
TORSDOF 4
ENDMDL
