MODEL 1
REMARK VINA RESULT:      -8.6      0.000      0.000
REMARK  Name = 
REMARK  5 active torsions:
REMARK  status: ('A' for Active; 'I' for Inactive)
REMARK    1  A    between atoms: C_1  and  C_2
REMARK    2  A    between atoms: N_4  and  C_5
REMARK    3  A    between atoms: C_9  and  N_10
REMARK    4  A    between atoms: N_10  and  C_11
REMARK    5  A    between atoms: C_13  and  C_14
REMARK                            x       y       z     vdW  Elec       q    Type
REMARK                         _______ _______ _______ _____ _____    ______ ____
ROOT
ATOM      1  C   UNL     1       2.618   7.387  19.164  0.00  0.00    +0.000 A 
ATOM      2  N   UNL     1       1.968   7.883  20.228  0.00  0.00    +0.000 NA
ATOM      3  C   UNL     1       1.173   8.954  20.024  0.00  0.00    +0.000 A 
ATOM      4  N   UNL     1       0.996   9.587  18.846  0.00  0.00    +0.000 NA
ATOM      5  C   UNL     1       1.702   9.093  17.815  0.00  0.00    +0.000 A 
ATOM      6  C   UNL     1       2.542   8.012  17.928  0.00  0.00    +0.000 A 
ATOM      7  F   UNL     1       3.192   7.527  16.862  0.00  0.00    +0.000 F 
ENDROOT
BRANCH   3   8
ATOM      8  C   UNL     1       0.349   9.374  21.143  0.00  0.00    +0.000 A 
ATOM      9  C   UNL     1      -0.216   8.511  22.069  0.00  0.00    +0.000 A 
ATOM     10  N   UNL     1      -0.871   9.250  23.005  0.00  0.00    +0.000 N 
ATOM     11  C   UNL     1      -0.769  10.578  22.709  0.00  0.00    +0.000 A 
ATOM     12  N   UNL     1      -1.314  11.574  23.434  0.00  0.00    +0.000 NA
ATOM     13  C   UNL     1      -1.076  12.800  22.905  0.00  0.00    +0.000 A 
ATOM     14  C   UNL     1      -0.343  13.061  21.754  0.00  0.00    +0.000 A 
ATOM     15 CL   UNL     1      -0.136  14.670  21.185  0.00  0.00    +0.000 Cl
ATOM     16  C   UNL     1       0.215  11.999  21.054  0.00  0.00    +0.000 A 
ATOM     17  C   UNL     1      -0.011  10.700  21.546  0.00  0.00    +0.000 A 
ATOM     18  H   UNL     1      -1.372   8.894  23.812  0.00  0.00    +0.000 HD
ENDBRANCH   3   8
BRANCH   1  19
ATOM     19  N   UNL     1       3.437   6.255  19.291  0.00  0.00    +0.000 N 
ATOM     20  H   UNL     1       3.961   6.120  18.426  0.00  0.00    +0.000 HD
BRANCH  19  25
ATOM     21  C   UNL     1       4.298   3.498  18.238  0.00  0.00    +0.000 C 
ATOM     22  C   UNL     1       3.017   3.054  17.511  0.00  0.00    +0.000 C 
ATOM     23  C   UNL     1       1.963   4.158  17.501  0.00  0.00    +0.000 C 
ATOM     24  C   UNL     1       1.616   4.587  18.929  0.00  0.00    +0.000 C 
ATOM     25  C   UNL     1       2.848   4.991  19.763  0.00  0.00    +0.000 C 
ATOM     26  C   UNL     1       3.935   3.900  19.682  0.00  0.00    +0.000 C 
BRANCH  21  30
ATOM     27  C   UNL     1       6.804   6.036  16.885  0.00  0.00    +0.000 C 
ATOM     28  C   UNL     1       6.330   4.887  17.740  0.00  0.00    +0.000 C 
ATOM     29  O   UNL     1       7.076   4.269  18.484  0.00  0.00    +0.000 OA
ATOM     30  N   UNL     1       4.995   4.598  17.560  0.00  0.00    +0.000 N 
ATOM     31  H   UNL     1       4.410   5.364  17.239  0.00  0.00    +0.000 HD
ENDBRANCH  21  30
ENDBRANCH  19  25
ENDBRANCH   1  19
TORSDOF 4
ENDMDL
MODEL 2
REMARK VINA RESULT:      -8.2      2.279      3.791
REMARK  Name = 
REMARK  5 active torsions:
REMARK  status: ('A' for Active; 'I' for Inactive)
REMARK    1  A    between atoms: C_1  and  C_2
REMARK    2  A    between atoms: N_4  and  C_5
REMARK    3  A    between atoms: C_9  and  N_10
REMARK    4  A    between atoms: N_10  and  C_11
REMARK    5  A    between atoms: C_13  and  C_14
REMARK                            x       y       z     vdW  Elec       q    Type
REMARK                         _______ _______ _______ _____ _____    ______ ____
ROOT
ATOM      1  C   UNL     1       3.684   5.911  19.341  0.00  0.00    +0.000 A 
ATOM      2  N   UNL     1       3.161   7.080  18.941  0.00  0.00    +0.000 NA
ATOM      3  C   UNL     1       2.005   7.469  19.519  0.00  0.00    +0.000 A 
ATOM      4  N   UNL     1       1.315   6.771  20.444  0.00  0.00    +0.000 NA
ATOM      5  C   UNL     1       1.844   5.583  20.781  0.00  0.00    +0.000 A 
ATOM      6  C   UNL     1       3.011   5.100  20.242  0.00  0.00    +0.000 A 
ATOM      7  F   UNL     1       3.524   3.929  20.641  0.00  0.00    +0.000 F 
ENDROOT
BRANCH   3   8
ATOM      8  C   UNL     1       1.540   8.809  19.203  0.00  0.00    +0.000 A 
ATOM      9  C   UNL     1       1.790   9.465  18.008  0.00  0.00    +0.000 A 
ATOM     10  N   UNL     1       1.159  10.670  18.036  0.00  0.00    +0.000 N 
ATOM     11  C   UNL     1       0.516  10.834  19.228  0.00  0.00    +0.000 A 
ATOM     12  N   UNL     1      -0.197  11.922  19.577  0.00  0.00    +0.000 NA
ATOM     13  C   UNL     1      -0.716  11.833  20.827  0.00  0.00    +0.000 A 
ATOM     14  C   UNL     1      -0.575  10.754  21.691  0.00  0.00    +0.000 A 
ATOM     15 CL   UNL     1      -1.273  10.782  23.262  0.00  0.00    +0.000 Cl
ATOM     16  C   UNL     1       0.153   9.647  21.275  0.00  0.00    +0.000 A 
ATOM     17  C   UNL     1       0.730   9.688  19.992  0.00  0.00    +0.000 A 
ATOM     18  H   UNL     1       1.152  11.365  17.298  0.00  0.00    +0.000 HD
ENDBRANCH   3   8
BRANCH   1  19
ATOM     19  N   UNL     1       4.901   5.455  18.810  0.00  0.00    +0.000 N 
ATOM     20  H   UNL     1       5.587   5.380  19.560  0.00  0.00    +0.000 HD
BRANCH  19  25
ATOM     21  C   UNL     1       5.296   4.060  16.099  0.00  0.00    +0.000 C 
ATOM     22  C   UNL     1       6.831   4.045  16.003  0.00  0.00    +0.000 C 
ATOM     23  C   UNL     1       7.481   4.575  17.278  0.00  0.00    +0.000 C 
ATOM     24  C   UNL     1       7.003   5.998  17.577  0.00  0.00    +0.000 C 
ATOM     25  C   UNL     1       5.467   6.129  17.630  0.00  0.00    +0.000 C 
ATOM     26  C   UNL     1       4.829   5.504  16.372  0.00  0.00    +0.000 C 
BRANCH  21  30
ATOM     27  C   UNL     1       3.178   1.849  18.375  0.00  0.00    +0.000 C 
ATOM     28  C   UNL     1       3.436   2.851  17.276  0.00  0.00    +0.000 C 
ATOM     29  O   UNL     1       2.542   3.313  16.584  0.00  0.00    +0.000 OA
ATOM     30  N   UNL     1       4.772   3.149  17.125  0.00  0.00    +0.000 N 
ATOM     31  H   UNL     1       5.355   3.025  17.948  0.00  0.00    +0.000 HD
ENDBRANCH  21  30
ENDBRANCH  19  25
ENDBRANCH   1  19
TORSDOF 4
ENDMDL
MODEL 3
REMARK VINA RESULT:      -8.0      1.303      1.482
REMARK  Name = 
REMARK  5 active torsions:
REMARK  status: ('A' for Active; 'I' for Inactive)
REMARK    1  A    between atoms: C_1  and  C_2
REMARK    2  A    between atoms: N_4  and  C_5
REMARK    3  A    between atoms: C_9  and  N_10
REMARK    4  A    between atoms: N_10  and  C_11
REMARK    5  A    between atoms: C_13  and  C_14
REMARK                            x       y       z     vdW  Elec       q    Type
REMARK                         _______ _______ _______ _____ _____    ______ ____
ROOT
ATOM      1  C   UNL     1       2.277   6.898  20.076  0.00  0.00    +0.000 A 
ATOM      2  N   UNL     1       1.650   7.660  20.985  0.00  0.00    +0.000 NA
ATOM      3  C   UNL     1       1.105   8.817  20.552  0.00  0.00    +0.000 A 
ATOM      4  N   UNL     1       1.160   9.286  19.289  0.00  0.00    +0.000 NA
ATOM      5  C   UNL     1       1.839   8.520  18.419  0.00  0.00    +0.000 A 
ATOM      6  C   UNL     1       2.434   7.332  18.768  0.00  0.00    +0.000 A 
ATOM      7  F   UNL     1       3.064   6.580  17.857  0.00  0.00    +0.000 F 
ENDROOT
BRANCH   3   8
ATOM      8  C   UNL     1       0.288   9.546  21.506  0.00  0.00    +0.000 A 
ATOM      9  C   UNL     1      -0.450   8.956  22.520  0.00  0.00    +0.000 A 
ATOM     10  N   UNL     1      -1.043   9.939  23.251  0.00  0.00    +0.000 N 
ATOM     11  C   UNL     1      -0.731  11.162  22.732  0.00  0.00    +0.000 A 
ATOM     12  N   UNL     1      -1.164  12.340  23.219  0.00  0.00    +0.000 NA
ATOM     13  C   UNL     1      -0.719  13.402  22.503  0.00  0.00    +0.000 A 
ATOM     14  C   UNL     1       0.109  13.341  21.389  0.00  0.00    +0.000 A 
ATOM     15 CL   UNL     1       0.583  14.771  20.561  0.00  0.00    +0.000 Cl
ATOM     16  C   UNL     1       0.545  12.102  20.939  0.00  0.00    +0.000 A 
ATOM     17  C   UNL     1       0.103  10.960  21.634  0.00  0.00    +0.000 A 
ATOM     18  H   UNL     1      -1.636   9.812  24.064  0.00  0.00    +0.000 HD
ENDBRANCH   3   8
BRANCH   1  19
ATOM     19  N   UNL     1       2.840   5.666  20.444  0.00  0.00    +0.000 N 
ATOM     20  H   UNL     1       3.398   5.308  19.670  0.00  0.00    +0.000 HD
BRANCH  19  25
ATOM     21  C   UNL     1       3.231   2.669  19.882  0.00  0.00    +0.000 C 
ATOM     22  C   UNL     1       1.960   2.359  19.073  0.00  0.00    +0.000 C 
ATOM     23  C   UNL     1       1.150   3.621  18.789  0.00  0.00    +0.000 C 
ATOM     24  C   UNL     1       0.766   4.322  20.094  0.00  0.00    +0.000 C 
ATOM     25  C   UNL     1       1.972   4.619  21.007  0.00  0.00    +0.000 C 
ATOM     26  C   UNL     1       2.825   3.349  21.204  0.00  0.00    +0.000 C 
BRANCH  21  30
ATOM     27  C   UNL     1       5.500   4.341  17.310  0.00  0.00    +0.000 C 
ATOM     28  C   UNL     1       4.527   3.310  17.828  0.00  0.00    +0.000 C 
ATOM     29  O   UNL     1       4.073   2.422  17.124  0.00  0.00    +0.000 OA
ATOM     30  N   UNL     1       4.192   3.505  19.150  0.00  0.00    +0.000 N 
ATOM     31  H   UNL     1       4.875   3.997  19.718  0.00  0.00    +0.000 HD
ENDBRANCH  21  30
ENDBRANCH  19  25
ENDBRANCH   1  19
TORSDOF 4
ENDMDL
MODEL 4
REMARK VINA RESULT:      -7.7      2.198      2.447
REMARK  Name = 
REMARK  5 active torsions:
REMARK  status: ('A' for Active; 'I' for Inactive)
REMARK    1  A    between atoms: C_1  and  C_2
REMARK    2  A    between atoms: N_4  and  C_5
REMARK    3  A    between atoms: C_9  and  N_10
REMARK    4  A    between atoms: N_10  and  C_11
REMARK    5  A    between atoms: C_13  and  C_14
REMARK                            x       y       z     vdW  Elec       q    Type
REMARK                         _______ _______ _______ _____ _____    ______ ____
ROOT
ATOM      1  C   UNL     1       2.342   7.016  19.731  0.00  0.00    +0.000 A 
ATOM      2  N   UNL     1       1.694   7.983  20.396  0.00  0.00    +0.000 NA
ATOM      3  C   UNL     1       1.250   9.037  19.680  0.00  0.00    +0.000 A 
ATOM      4  N   UNL     1       1.427   9.216  18.355  0.00  0.00    +0.000 NA
ATOM      5  C   UNL     1       2.125   8.252  17.732  0.00  0.00    +0.000 A 
ATOM      6  C   UNL     1       2.623   7.146  18.378  0.00  0.00    +0.000 A 
ATOM      7  F   UNL     1       3.275   6.189  17.708  0.00  0.00    +0.000 F 
ENDROOT
BRANCH   3   8
ATOM      8  C   UNL     1       0.406   9.989  20.380  0.00  0.00    +0.000 A 
ATOM      9  C   UNL     1       0.627  10.430  21.675  0.00  0.00    +0.000 A 
ATOM     10  N   UNL     1      -0.322  11.355  21.985  0.00  0.00    +0.000 N 
ATOM     11  C   UNL     1      -1.174  11.521  20.933  0.00  0.00    +0.000 A 
ATOM     12  N   UNL     1      -2.228  12.360  20.919  0.00  0.00    +0.000 NA
ATOM     13  C   UNL     1      -2.921  12.316  19.754  0.00  0.00    +0.000 A 
ATOM     14  C   UNL     1      -2.613  11.523  18.655  0.00  0.00    +0.000 A 
ATOM     15 CL   UNL     1      -3.594  11.552  17.242  0.00  0.00    +0.000 Cl
ATOM     16  C   UNL     1      -1.504  10.690  18.713  0.00  0.00    +0.000 A 
ATOM     17  C   UNL     1      -0.754  10.681  19.904  0.00  0.00    +0.000 A 
ATOM     18  H   UNL     1      -0.409  11.860  22.860  0.00  0.00    +0.000 HD
ENDBRANCH   3   8
BRANCH   1  19
ATOM     19  N   UNL     1       2.805   5.873  20.402  0.00  0.00    +0.000 N 
ATOM     20  H   UNL     1       3.467   5.378  19.805  0.00  0.00    +0.000 HD
BRANCH  19  25
ATOM     21  C   UNL     1       3.084   2.815  20.279  0.00  0.00    +0.000 C 
ATOM     22  C   UNL     1       1.885   2.450  19.388  0.00  0.00    +0.000 C 
ATOM     23  C   UNL     1       1.178   3.694  18.857  0.00  0.00    +0.000 C 
ATOM     24  C   UNL     1       0.705   4.581  20.012  0.00  0.00    +0.000 C 
ATOM     25  C   UNL     1       1.828   4.948  21.002  0.00  0.00    +0.000 C 
ATOM     26  C   UNL     1       2.587   3.683  21.451  0.00  0.00    +0.000 C 
BRANCH  21  30
ATOM     27  C   UNL     1       5.642   4.072  17.743  0.00  0.00    +0.000 C 
ATOM     28  C   UNL     1       4.553   3.173  18.273  0.00  0.00    +0.000 C 
ATOM     29  O   UNL     1       4.064   2.272  17.610  0.00  0.00    +0.000 OA
ATOM     30  N   UNL     1       4.158   3.504  19.550  0.00  0.00    +0.000 N 
ATOM     31  H   UNL     1       4.847   3.982  20.124  0.00  0.00    +0.000 HD
ENDBRANCH  21  30
ENDBRANCH  19  25
ENDBRANCH   1  19
TORSDOF 4
ENDMDL
MODEL 5
REMARK VINA RESULT:      -7.6      2.162      3.457
REMARK  Name = 
REMARK  5 active torsions:
REMARK  status: ('A' for Active; 'I' for Inactive)
REMARK    1  A    between atoms: C_1  and  C_2
REMARK    2  A    between atoms: N_4  and  C_5
REMARK    3  A    between atoms: C_9  and  N_10
REMARK    4  A    between atoms: N_10  and  C_11
REMARK    5  A    between atoms: C_13  and  C_14
REMARK                            x       y       z     vdW  Elec       q    Type
REMARK                         _______ _______ _______ _____ _____    ______ ____
ROOT
ATOM      1  C   UNL     1       3.869   6.101  18.817  0.00  0.00    +0.000 A 
ATOM      2  N   UNL     1       3.212   7.231  18.519  0.00  0.00    +0.000 NA
ATOM      3  C   UNL     1       2.100   7.507  19.233  0.00  0.00    +0.000 A 
ATOM      4  N   UNL     1       1.577   6.729  20.202  0.00  0.00    +0.000 NA
ATOM      5  C   UNL     1       2.234   5.581  20.437  0.00  0.00    +0.000 A 
ATOM      6  C   UNL     1       3.368   5.212  19.757  0.00  0.00    +0.000 A 
ATOM      7  F   UNL     1       4.015   4.078  20.055  0.00  0.00    +0.000 F 
ENDROOT
BRANCH   3   8
ATOM      8  C   UNL     1       1.497   8.810  19.017  0.00  0.00    +0.000 A 
ATOM      9  C   UNL     1       1.564   9.520  17.828  0.00  0.00    +0.000 A 
ATOM     10  N   UNL     1       0.843  10.666  17.967  0.00  0.00    +0.000 N 
ATOM     11  C   UNL     1       0.318  10.739  19.224  0.00  0.00    +0.000 A 
ATOM     12  N   UNL     1      -0.440  11.752  19.686  0.00  0.00    +0.000 NA
ATOM     13  C   UNL     1      -0.816  11.582  20.978  0.00  0.00    +0.000 A 
ATOM     14  C   UNL     1      -0.496  10.494  21.781  0.00  0.00    +0.000 A 
ATOM     15 CL   UNL     1      -1.025  10.417  23.415  0.00  0.00    +0.000 Cl
ATOM     16  C   UNL     1       0.272   9.467  21.251  0.00  0.00    +0.000 A 
ATOM     17  C   UNL     1       0.705   9.594  19.918  0.00  0.00    +0.000 A 
ATOM     18  H   UNL     1       0.702  11.379  17.261  0.00  0.00    +0.000 HD
ENDBRANCH   3   8
BRANCH   1  19
ATOM     19  N   UNL     1       5.051   5.762  18.140  0.00  0.00    +0.000 N 
ATOM     20  H   UNL     1       5.190   6.408  17.364  0.00  0.00    +0.000 HD
BRANCH  19  25
ATOM     21  C   UNL     1       7.463   4.856  16.463  0.00  0.00    +0.000 C 
ATOM     22  C   UNL     1       6.767   4.445  15.155  0.00  0.00    +0.000 C 
ATOM     23  C   UNL     1       5.275   4.766  15.185  0.00  0.00    +0.000 C 
ATOM     24  C   UNL     1       4.595   4.067  16.365  0.00  0.00    +0.000 C 
ATOM     25  C   UNL     1       5.265   4.367  17.722  0.00  0.00    +0.000 C 
ATOM     26  C   UNL     1       6.786   4.123  17.638  0.00  0.00    +0.000 C 
BRANCH  21  30
ATOM     27  C   UNL     1       7.776   8.407  17.823  0.00  0.00    +0.000 C 
ATOM     28  C   UNL     1       7.832   6.900  17.876  0.00  0.00    +0.000 C 
ATOM     29  O   UNL     1       8.207   6.290  18.865  0.00  0.00    +0.000 OA
ATOM     30  N   UNL     1       7.454   6.307  16.691  0.00  0.00    +0.000 N 
ATOM     31  H   UNL     1       6.827   6.846  16.100  0.00  0.00    +0.000 HD
ENDBRANCH  21  30
ENDBRANCH  19  25
ENDBRANCH   1  19
TORSDOF 4
ENDMDL
MODEL 6
REMARK VINA RESULT:      -7.6      1.622      2.594
REMARK  Name = 
REMARK  5 active torsions:
REMARK  status: ('A' for Active; 'I' for Inactive)
REMARK    1  A    between atoms: C_1  and  C_2
REMARK    2  A    between atoms: N_4  and  C_5
REMARK    3  A    between atoms: C_9  and  N_10
REMARK    4  A    between atoms: N_10  and  C_11
REMARK    5  A    between atoms: C_13  and  C_14
REMARK                            x       y       z     vdW  Elec       q    Type
REMARK                         _______ _______ _______ _____ _____    ______ ____
ROOT
ATOM      1  C   UNL     1       2.286   7.603  19.011  0.00  0.00    +0.000 A 
ATOM      2  N   UNL     1       1.673   8.050  20.118  0.00  0.00    +0.000 NA
ATOM      3  C   UNL     1       1.085   9.263  20.053  0.00  0.00    +0.000 A 
ATOM      4  N   UNL     1       1.084  10.078  18.979  0.00  0.00    +0.000 NA
ATOM      5  C   UNL     1       1.751   9.619  17.907  0.00  0.00    +0.000 A 
ATOM      6  C   UNL     1       2.386   8.402  17.881  0.00  0.00    +0.000 A 
ATOM      7  F   UNL     1       3.002   7.967  16.775  0.00  0.00    +0.000 F 
ENDROOT
BRANCH   3   8
ATOM      8  C   UNL     1       0.284   9.658  21.198  0.00  0.00    +0.000 A 
ATOM      9  C   UNL     1      -0.227   8.778  22.140  0.00  0.00    +0.000 A 
ATOM     10  N   UNL     1      -0.874   9.497  23.097  0.00  0.00    +0.000 N 
ATOM     11  C   UNL     1      -0.819  10.828  22.800  0.00  0.00    +0.000 A 
ATOM     12  N   UNL     1      -1.369  11.807  23.543  0.00  0.00    +0.000 NA
ATOM     13  C   UNL     1      -1.182  13.040  23.010  0.00  0.00    +0.000 A 
ATOM     14  C   UNL     1      -0.492  13.323  21.838  0.00  0.00    +0.000 A 
ATOM     15 CL   UNL     1      -0.348  14.938  21.265  0.00  0.00    +0.000 Cl
ATOM     16  C   UNL     1       0.073  12.279  21.119  0.00  0.00    +0.000 A 
ATOM     17  C   UNL     1      -0.101  10.973  21.615  0.00  0.00    +0.000 A 
ATOM     18  H   UNL     1      -1.340   9.127  23.918  0.00  0.00    +0.000 HD
ENDBRANCH   3   8
BRANCH   1  19
ATOM     19  N   UNL     1       2.892   6.338  18.991  0.00  0.00    +0.000 N 
ATOM     20  H   UNL     1       3.375   6.182  19.876  0.00  0.00    +0.000 HD
BRANCH  19  25
ATOM     21  C   UNL     1       3.831   3.460  18.454  0.00  0.00    +0.000 C 
ATOM     22  C   UNL     1       5.345   3.604  18.679  0.00  0.00    +0.000 C 
ATOM     23  C   UNL     1       5.712   4.999  19.177  0.00  0.00    +0.000 C 
ATOM     24  C   UNL     1       5.240   6.067  18.187  0.00  0.00    +0.000 C 
ATOM     25  C   UNL     1       3.740   5.965  17.846  0.00  0.00    +0.000 C 
ATOM     26  C   UNL     1       3.377   4.524  17.435  0.00  0.00    +0.000 C 
BRANCH  21  30
ATOM     27  C   UNL     1       1.311   3.139  21.301  0.00  0.00    +0.000 C 
ATOM     28  C   UNL     1       1.883   2.878  19.929  0.00  0.00    +0.000 C 
ATOM     29  O   UNL     1       1.367   2.104  19.138  0.00  0.00    +0.000 OA
ATOM     30  N   UNL     1       3.050   3.571  19.693  0.00  0.00    +0.000 N 
ATOM     31  H   UNL     1       3.176   4.430  20.222  0.00  0.00    +0.000 HD
ENDBRANCH  21  30
ENDBRANCH  19  25
ENDBRANCH   1  19
TORSDOF 4
ENDMDL
MODEL 7
REMARK VINA RESULT:      -7.4      4.243      8.688
REMARK  Name = 
REMARK  5 active torsions:
REMARK  status: ('A' for Active; 'I' for Inactive)
REMARK    1  A    between atoms: C_1  and  C_2
REMARK    2  A    between atoms: N_4  and  C_5
REMARK    3  A    between atoms: C_9  and  N_10
REMARK    4  A    between atoms: N_10  and  C_11
REMARK    5  A    between atoms: C_13  and  C_14
REMARK                            x       y       z     vdW  Elec       q    Type
REMARK                         _______ _______ _______ _____ _____    ______ ____
ROOT
ATOM      1  C   UNL     1       0.962   9.518  19.642  0.00  0.00    +0.000 A 
ATOM      2  N   UNL     1       1.800   8.801  18.879  0.00  0.00    +0.000 NA
ATOM      3  C   UNL     1       2.188   7.596  19.349  0.00  0.00    +0.000 A 
ATOM      4  N   UNL     1       1.826   7.063  20.534  0.00  0.00    +0.000 NA
ATOM      5  C   UNL     1       1.028   7.832  21.292  0.00  0.00    +0.000 A 
ATOM      6  C   UNL     1       0.588   9.074  20.901  0.00  0.00    +0.000 A 
ATOM      7  F   UNL     1      -0.243   9.787  21.672  0.00  0.00    +0.000 F 
ENDROOT
BRANCH   3   8
ATOM      8  C   UNL     1       2.956   6.762  18.442  0.00  0.00    +0.000 A 
ATOM      9  C   UNL     1       3.910   7.236  17.556  0.00  0.00    +0.000 A 
ATOM     10  N   UNL     1       4.466   6.175  16.910  0.00  0.00    +0.000 N 
ATOM     11  C   UNL     1       3.888   5.014  17.334  0.00  0.00    +0.000 A 
ATOM     12  N   UNL     1       4.207   3.785  16.885  0.00  0.00    +0.000 NA
ATOM     13  C   UNL     1       3.466   2.806  17.460  0.00  0.00    +0.000 A 
ATOM     14  C   UNL     1       2.483   2.990  18.424  0.00  0.00    +0.000 A 
ATOM     15 CL   UNL     1       1.604   1.655  19.056  0.00  0.00    +0.000 Cl
ATOM     16  C   UNL     1       2.206   4.276  18.868  0.00  0.00    +0.000 A 
ATOM     17  C   UNL     1       2.933   5.337  18.296  0.00  0.00    +0.000 A 
ATOM     18  H   UNL     1       5.199   6.211  16.211  0.00  0.00    +0.000 HD
ENDBRANCH   3   8
BRANCH   1  19
ATOM     19  N   UNL     1       0.489  10.765  19.205  0.00  0.00    +0.000 N 
ATOM     20  H   UNL     1       0.901  10.982  18.298  0.00  0.00    +0.000 HD
BRANCH  19  25
ATOM     21  C   UNL     1      -1.150  13.334  18.806  0.00  0.00    +0.000 C 
ATOM     22  C   UNL     1      -0.033  14.346  18.501  0.00  0.00    +0.000 C 
ATOM     23  C   UNL     1       1.330  13.667  18.397  0.00  0.00    +0.000 C 
ATOM     24  C   UNL     1       1.660  12.916  19.690  0.00  0.00    +0.000 C 
ATOM     25  C   UNL     1       0.563  11.920  20.116  0.00  0.00    +0.000 C 
ATOM     26  C   UNL     1      -0.817  12.608  20.124  0.00  0.00    +0.000 C 
BRANCH  21  30
ATOM     27  C   UNL     1      -2.490  10.748  16.343  0.00  0.00    +0.000 C 
ATOM     28  C   UNL     1      -2.519  11.635  17.563  0.00  0.00    +0.000 C 
ATOM     29  O   UNL     1      -3.491  11.709  18.299  0.00  0.00    +0.000 OA
ATOM     30  N   UNL     1      -1.361  12.363  17.725  0.00  0.00    +0.000 N 
ATOM     31  H   UNL     1      -0.521  11.966  17.315  0.00  0.00    +0.000 HD
ENDBRANCH  21  30
ENDBRANCH  19  25
ENDBRANCH   1  19
TORSDOF 4
ENDMDL
MODEL 8
REMARK VINA RESULT:      -7.4      4.096      8.783
REMARK  Name = 
REMARK  5 active torsions:
REMARK  status: ('A' for Active; 'I' for Inactive)
REMARK    1  A    between atoms: C_1  and  C_2
REMARK    2  A    between atoms: N_4  and  C_5
REMARK    3  A    between atoms: C_9  and  N_10
REMARK    4  A    between atoms: N_10  and  C_11
REMARK    5  A    between atoms: C_13  and  C_14
REMARK                            x       y       z     vdW  Elec       q    Type
REMARK                         _______ _______ _______ _____ _____    ______ ____
ROOT
ATOM      1  C   UNL     1       2.572   6.989  19.066  0.00  0.00    +0.000 A 
ATOM      2  N   UNL     1       3.734   7.086  18.401  0.00  0.00    +0.000 NA
ATOM      3  C   UNL     1       4.467   5.960  18.269  0.00  0.00    +0.000 A 
ATOM      4  N   UNL     1       4.145   4.750  18.772  0.00  0.00    +0.000 NA
ATOM      5  C   UNL     1       3.001   4.704  19.474  0.00  0.00    +0.000 A 
ATOM      6  C   UNL     1       2.193   5.798  19.668  0.00  0.00    +0.000 A 
ATOM      7  F   UNL     1       1.039   5.695  20.339  0.00  0.00    +0.000 F 
ENDROOT
BRANCH   3   8
ATOM      8  C   UNL     1       5.632   6.042  17.407  0.00  0.00    +0.000 A 
ATOM      9  C   UNL     1       6.803   6.708  17.731  0.00  0.00    +0.000 A 
ATOM     10  N   UNL     1       7.697   6.529  16.719  0.00  0.00    +0.000 N 
ATOM     11  C   UNL     1       7.137   5.777  15.728  0.00  0.00    +0.000 A 
ATOM     12  N   UNL     1       7.755   5.425  14.584  0.00  0.00    +0.000 NA
ATOM     13  C   UNL     1       6.963   4.692  13.763  0.00  0.00    +0.000 A 
ATOM     14  C   UNL     1       5.656   4.303  14.027  0.00  0.00    +0.000 A 
ATOM     15 CL   UNL     1       4.759   3.386  12.882  0.00  0.00    +0.000 Cl
ATOM     16  C   UNL     1       5.072   4.674  15.230  0.00  0.00    +0.000 A 
ATOM     17  C   UNL     1       5.840   5.450  16.119  0.00  0.00    +0.000 A 
ATOM     18  H   UNL     1       8.643   6.891  16.679  0.00  0.00    +0.000 HD
ENDBRANCH   3   8
BRANCH   1  19
ATOM     19  N   UNL     1       1.740   8.109  19.216  0.00  0.00    +0.000 N 
ATOM     20  H   UNL     1       0.791   7.797  19.418  0.00  0.00    +0.000 HD
BRANCH  19  25
ATOM     21  C   UNL     1       0.836  11.001  19.735  0.00  0.00    +0.000 C 
ATOM     22  C   UNL     1      -0.422  11.073  18.854  0.00  0.00    +0.000 C 
ATOM     23  C   UNL     1      -0.753   9.719  18.233  0.00  0.00    +0.000 C 
ATOM     24  C   UNL     1       0.423   9.204  17.400  0.00  0.00    +0.000 C 
ATOM     25  C   UNL     1       1.752   9.156  18.182  0.00  0.00    +0.000 C 
ATOM     26  C   UNL     1       2.017  10.508  18.876  0.00  0.00    +0.000 C 
BRANCH  21  30
ATOM     27  C   UNL     1       0.044   9.482  23.144  0.00  0.00    +0.000 C 
ATOM     28  C   UNL     1       0.155  10.581  22.116  0.00  0.00    +0.000 C 
ATOM     29  O   UNL     1      -0.206  11.726  22.336  0.00  0.00    +0.000 OA
ATOM     30  N   UNL     1       0.667  10.142  20.915  0.00  0.00    +0.000 N 
ATOM     31  H   UNL     1       1.264   9.320  20.955  0.00  0.00    +0.000 HD
ENDBRANCH  21  30
ENDBRANCH  19  25
ENDBRANCH   1  19
TORSDOF 4
ENDMDL
MODEL 9
REMARK VINA RESULT:      -7.3      4.828      8.712
REMARK  Name = 
REMARK  5 active torsions:
REMARK  status: ('A' for Active; 'I' for Inactive)
REMARK    1  A    between atoms: C_1  and  C_2
REMARK    2  A    between atoms: N_4  and  C_5
REMARK    3  A    between atoms: C_9  and  N_10
REMARK    4  A    between atoms: N_10  and  C_11
REMARK    5  A    between atoms: C_13  and  C_14
REMARK                            x       y       z     vdW  Elec       q    Type
REMARK                         _______ _______ _______ _____ _____    ______ ____
ROOT
ATOM      1  C   UNL     1      -0.146   9.971  20.311  0.00  0.00    +0.000 A 
ATOM      2  N   UNL     1       0.643   9.144  19.610  0.00  0.00    +0.000 NA
ATOM      3  C   UNL     1       1.483   8.350  20.307  0.00  0.00    +0.000 A 
ATOM      4  N   UNL     1       1.617   8.336  21.649  0.00  0.00    +0.000 NA
ATOM      5  C   UNL     1       0.847   9.214  22.314  0.00  0.00    +0.000 A 
ATOM      6  C   UNL     1      -0.031  10.067  21.690  0.00  0.00    +0.000 A 
ATOM      7  F   UNL     1      -0.810  10.895  22.398  0.00  0.00    +0.000 F 
ENDROOT
BRANCH   3   8
ATOM      8  C   UNL     1       2.205   7.344  19.549  0.00  0.00    +0.000 A 
ATOM      9  C   UNL     1       2.954   7.605  18.412  0.00  0.00    +0.000 A 
ATOM     10  N   UNL     1       3.534   6.445  18.000  0.00  0.00    +0.000 N 
ATOM     11  C   UNL     1       3.171   5.422  18.826  0.00  0.00    +0.000 A 
ATOM     12  N   UNL     1       3.569   4.142  18.689  0.00  0.00    +0.000 NA
ATOM     13  C   UNL     1       3.046   3.324  19.635  0.00  0.00    +0.000 A 
ATOM     14  C   UNL     1       2.200   3.712  20.667  0.00  0.00    +0.000 A 
ATOM     15 CL   UNL     1       1.592   2.561  21.791  0.00  0.00    +0.000 Cl
ATOM     16  C   UNL     1       1.836   5.047  20.776  0.00  0.00    +0.000 A 
ATOM     17  C   UNL     1       2.336   5.943  19.812  0.00  0.00    +0.000 A 
ATOM     18  H   UNL     1       4.147   6.328  17.201  0.00  0.00    +0.000 HD
ENDBRANCH   3   8
BRANCH   1  19
ATOM     19  N   UNL     1      -1.068  10.804  19.658  0.00  0.00    +0.000 N 
ATOM     20  H   UNL     1      -2.003  10.621  20.023  0.00  0.00    +0.000 HD
BRANCH  19  25
ATOM     21  C   UNL     1      -3.289  12.161  18.024  0.00  0.00    +0.000 C 
ATOM     22  C   UNL     1      -3.911  10.946  17.316  0.00  0.00    +0.000 C 
ATOM     23  C   UNL     1      -3.291   9.636  17.795  0.00  0.00    +0.000 C 
ATOM     24  C   UNL     1      -1.777   9.640  17.567  0.00  0.00    +0.000 C 
ATOM     25  C   UNL     1      -1.068  10.861  18.187  0.00  0.00    +0.000 C 
ATOM     26  C   UNL     1      -1.771  12.166  17.762  0.00  0.00    +0.000 C 
BRANCH  21  30
ATOM     27  C   UNL     1      -4.729  12.622  21.527  0.00  0.00    +0.000 C 
ATOM     28  C   UNL     1      -4.672  12.780  20.028  0.00  0.00    +0.000 C 
ATOM     29  O   UNL     1      -5.547  13.347  19.392  0.00  0.00    +0.000 OA
ATOM     30  N   UNL     1      -3.560  12.190  19.467  0.00  0.00    +0.000 N 
ATOM     31  H   UNL     1      -2.750  12.095  20.073  0.00  0.00    +0.000 HD
ENDBRANCH  21  30
ENDBRANCH  19  25
ENDBRANCH   1  19
TORSDOF 4
ENDMDL
