MODEL 1
REMARK VINA RESULT:      -9.0      0.000      0.000
REMARK  Name = 
REMARK  7 active torsions:
REMARK  status: ('A' for Active; 'I' for Inactive)
REMARK    1  A    between atoms: C_1  and  C_2
REMARK    2  A    between atoms: C_2  and  O_3
REMARK    3  A    between atoms: O_3  and  C_4
REMARK    4  A    between atoms: C_14  and  C_15
REMARK    5  A    between atoms: C_15  and  C_16
REMARK    6  A    between atoms: C_19  and  C_20
REMARK    7  A    between atoms: C_25  and  C_26
REMARK                            x       y       z     vdW  Elec       q    Type
REMARK                         _______ _______ _______ _____ _____    ______ ____
ROOT
ATOM      1  C   UNL     1       0.991   8.983  19.764  0.00  0.00    +0.000 A 
ATOM      2  C   UNL     1       1.557   7.870  20.390  0.00  0.00    +0.000 A 
ATOM      3  C   UNL     1       2.447   7.034  19.697  0.00  0.00    +0.000 A 
ATOM      4  C   UNL     1       2.783   7.258  18.347  0.00  0.00    +0.000 A 
ATOM      5  C   UNL     1       2.159   8.355  17.728  0.00  0.00    +0.000 A 
ATOM      6  C   UNL     1       1.320   9.230  18.431  0.00  0.00    +0.000 A 
ENDROOT
BRANCH   4   7
ATOM      7  C   UNL     1       3.742   6.359  17.631  0.00  0.00    +0.000 A 
ATOM      8  C   UNL     1       4.853   6.944  16.972  0.00  0.00    +0.000 A 
ATOM      9  C   UNL     1       5.795   6.186  16.266  0.00  0.00    +0.000 A 
ATOM     10  C   UNL     1       5.681   4.807  16.223  0.00  0.00    +0.000 A 
ATOM     11  C   UNL     1       4.616   4.189  16.874  0.00  0.00    +0.000 A 
ATOM     12  C   UNL     1       3.634   4.943  17.557  0.00  0.00    +0.000 A 
BRANCH  12  13
ATOM     13  C   UNL     1       2.545   4.180  18.155  0.00  0.00    +0.000 A 
ATOM     14  N   UNL     1       1.330   4.021  17.523  0.00  0.00    +0.000 NA
ATOM     15  N   UNL     1       0.606   3.214  18.287  0.00  0.00    +0.000 NA
ATOM     16  N   UNL     1       1.400   2.935  19.326  0.00  0.00    +0.000 N 
ATOM     17  N   UNL     1       2.588   3.554  19.343  0.00  0.00    +0.000 NA
ATOM     18  H   UNL     1       1.124   2.277  20.049  0.00  0.00    +0.000 HD
ENDBRANCH  12  13
ENDBRANCH   4   7
BRANCH   1  19
ATOM     19  C   UNL     1       0.020   9.880  20.501  0.00  0.00    +0.000 C 
BRANCH  19  30
ATOM     20  C   UNL     1      -0.866  11.699  18.998  0.00  0.00    +0.000 A 
ATOM     21  N   UNL     1      -0.894  12.973  18.505  0.00  0.00    +0.000 NA
ATOM     22  C   UNL     1      -0.108  13.852  19.043  0.00  0.00    +0.000 A 
ATOM     23  C   UNL     1      -0.144  15.254  18.541  0.00  0.00    +0.000 A 
ATOM     24  C   UNL     1       0.631  16.190  19.099  0.00  0.00    +0.000 A 
ATOM     25  C   UNL     1       1.523  15.842  20.172  0.00  0.00    +0.000 A 
ATOM     26  C   UNL     1       1.586  14.578  20.608  0.00  0.00    +0.000 A 
ATOM     27  N   UNL     1       0.787  13.575  20.066  0.00  0.00    +0.000 N 
ATOM     28  C   UNL     1       0.915  12.274  20.531  0.00  0.00    +0.000 A 
ATOM     29  O   UNL     1       1.771  11.914  21.342  0.00  0.00    +0.000 OA
ATOM     30  C   UNL     1      -0.046  11.289  19.978  0.00  0.00    +0.000 A 
BRANCH  20  31
ATOM     31  O   UNL     1      -1.746  10.758  18.475  0.00  0.00    +0.000 OA
BRANCH  31  33
ATOM     32  C   UNL     1      -2.615   9.980  16.406  0.00  0.00    +0.000 C 
ATOM     33  C   UNL     1      -2.465  11.184  17.319  0.00  0.00    +0.000 C 
ENDBRANCH  31  33
ENDBRANCH  20  31
ENDBRANCH  19  30
ENDBRANCH   1  19
TORSDOF 6
ENDMDL
MODEL 2
REMARK VINA RESULT:      -8.9      0.740      1.021
REMARK  Name = 
REMARK  7 active torsions:
REMARK  status: ('A' for Active; 'I' for Inactive)
REMARK    1  A    between atoms: C_1  and  C_2
REMARK    2  A    between atoms: C_2  and  O_3
REMARK    3  A    between atoms: O_3  and  C_4
REMARK    4  A    between atoms: C_14  and  C_15
REMARK    5  A    between atoms: C_15  and  C_16
REMARK    6  A    between atoms: C_19  and  C_20
REMARK    7  A    between atoms: C_25  and  C_26
REMARK                            x       y       z     vdW  Elec       q    Type
REMARK                         _______ _______ _______ _____ _____    ______ ____
ROOT
ATOM      1  C   UNL     1       0.756   9.370  20.055  0.00  0.00    +0.000 A 
ATOM      2  C   UNL     1       1.309   8.290  20.748  0.00  0.00    +0.000 A 
ATOM      3  C   UNL     1       2.136   7.366  20.092  0.00  0.00    +0.000 A 
ATOM      4  C   UNL     1       2.422   7.465  18.716  0.00  0.00    +0.000 A 
ATOM      5  C   UNL     1       1.812   8.531  18.033  0.00  0.00    +0.000 A 
ATOM      6  C   UNL     1       1.036   9.494  18.693  0.00  0.00    +0.000 A 
ENDROOT
BRANCH   4   7
ATOM      7  C   UNL     1       3.315   6.474  18.039  0.00  0.00    +0.000 A 
ATOM      8  C   UNL     1       4.259   6.949  17.093  0.00  0.00    +0.000 A 
ATOM      9  C   UNL     1       5.128   6.097  16.401  0.00  0.00    +0.000 A 
ATOM     10  C   UNL     1       5.110   4.736  16.657  0.00  0.00    +0.000 A 
ATOM     11  C   UNL     1       4.212   4.228  17.593  0.00  0.00    +0.000 A 
ATOM     12  C   UNL     1       3.302   5.071  18.270  0.00  0.00    +0.000 A 
BRANCH  12  13
ATOM     13  C   UNL     1       2.383   4.409  19.189  0.00  0.00    +0.000 A 
ATOM     14  N   UNL     1       2.738   4.104  20.486  0.00  0.00    +0.000 NA
ATOM     15  N   UNL     1       1.662   3.593  21.066  0.00  0.00    +0.000 NA
ATOM     16  N   UNL     1       0.727   3.606  20.110  0.00  0.00    +0.000 N 
ATOM     17  N   UNL     1       1.125   4.034  18.904  0.00  0.00    +0.000 NA
ATOM     18  H   UNL     1      -0.232   3.328  20.294  0.00  0.00    +0.000 HD
ENDBRANCH  12  13
ENDBRANCH   4   7
BRANCH   1  19
ATOM     19  C   UNL     1      -0.148  10.362  20.753  0.00  0.00    +0.000 C 
BRANCH  19  30
ATOM     20  C   UNL     1      -1.002  12.180  19.230  0.00  0.00    +0.000 A 
ATOM     21  N   UNL     1      -0.961  13.425  18.668  0.00  0.00    +0.000 NA
ATOM     22  C   UNL     1      -0.052  14.251  19.084  0.00  0.00    +0.000 A 
ATOM     23  C   UNL     1      -0.009  15.623  18.506  0.00  0.00    +0.000 A 
ATOM     24  C   UNL     1       0.896  16.508  18.939  0.00  0.00    +0.000 A 
ATOM     25  C   UNL     1       1.847  16.132  19.949  0.00  0.00    +0.000 A 
ATOM     26  C   UNL     1       1.837  14.890  20.450  0.00  0.00    +0.000 A 
ATOM     27  N   UNL     1       0.904  13.942  20.039  0.00  0.00    +0.000 N 
ATOM     28  C   UNL     1       0.957  12.659  20.566  0.00  0.00    +0.000 A 
ATOM     29  O   UNL     1       1.849  12.261  21.319  0.00  0.00    +0.000 OA
ATOM     30  C   UNL     1      -0.136  11.743  20.157  0.00  0.00    +0.000 A 
BRANCH  20  31
ATOM     31  O   UNL     1      -2.007  11.301  18.841  0.00  0.00    +0.000 OA
BRANCH  31  33
ATOM     32  C   UNL     1      -2.094   9.969  16.877  0.00  0.00    +0.000 C 
ATOM     33  C   UNL     1      -2.345  11.349  17.456  0.00  0.00    +0.000 C 
ENDBRANCH  31  33
ENDBRANCH  20  31
ENDBRANCH  19  30
ENDBRANCH   1  19
TORSDOF 6
ENDMDL
MODEL 3
REMARK VINA RESULT:      -8.9      2.385      3.403
REMARK  Name = 
REMARK  7 active torsions:
REMARK  status: ('A' for Active; 'I' for Inactive)
REMARK    1  A    between atoms: C_1  and  C_2
REMARK    2  A    between atoms: C_2  and  O_3
REMARK    3  A    between atoms: O_3  and  C_4
REMARK    4  A    between atoms: C_14  and  C_15
REMARK    5  A    between atoms: C_15  and  C_16
REMARK    6  A    between atoms: C_19  and  C_20
REMARK    7  A    between atoms: C_25  and  C_26
REMARK                            x       y       z     vdW  Elec       q    Type
REMARK                         _______ _______ _______ _____ _____    ______ ____
ROOT
ATOM      1  C   UNL     1       1.730   8.973  18.811  0.00  0.00    +0.000 A 
ATOM      2  C   UNL     1       1.463   8.567  20.122  0.00  0.00    +0.000 A 
ATOM      3  C   UNL     1       1.697   7.243  20.523  0.00  0.00    +0.000 A 
ATOM      4  C   UNL     1       2.178   6.266  19.629  0.00  0.00    +0.000 A 
ATOM      5  C   UNL     1       2.389   6.689  18.305  0.00  0.00    +0.000 A 
ATOM      6  C   UNL     1       2.219   8.024  17.912  0.00  0.00    +0.000 A 
ENDROOT
BRANCH   4   7
ATOM      7  C   UNL     1       2.430   4.862  20.082  0.00  0.00    +0.000 A 
ATOM      8  C   UNL     1       1.432   4.209  20.848  0.00  0.00    +0.000 A 
ATOM      9  C   UNL     1       1.581   2.902  21.326  0.00  0.00    +0.000 A 
ATOM     10  C   UNL     1       2.726   2.183  21.024  0.00  0.00    +0.000 A 
ATOM     11  C   UNL     1       3.724   2.778  20.256  0.00  0.00    +0.000 A 
ATOM     12  C   UNL     1       3.604   4.111  19.800  0.00  0.00    +0.000 A 
BRANCH  12  13
ATOM     13  C   UNL     1       4.739   4.631  19.047  0.00  0.00    +0.000 A 
ATOM     14  N   UNL     1       4.941   4.320  17.719  0.00  0.00    +0.000 NA
ATOM     15  N   UNL     1       5.998   5.014  17.321  0.00  0.00    +0.000 NA
ATOM     16  N   UNL     1       6.381   5.694  18.407  0.00  0.00    +0.000 N 
ATOM     17  N   UNL     1       5.689   5.451  19.528  0.00  0.00    +0.000 NA
ATOM     18  H   UNL     1       7.139   6.369  18.376  0.00  0.00    +0.000 HD
ENDBRANCH  12  13
ENDBRANCH   4   7
BRANCH   1  19
ATOM     19  C   UNL     1       1.467  10.395  18.368  0.00  0.00    +0.000 C 
BRANCH  19  30
ATOM     20  C   UNL     1      -0.996  10.897  18.552  0.00  0.00    +0.000 A 
ATOM     21  N   UNL     1      -2.081  11.509  19.113  0.00  0.00    +0.000 NA
ATOM     22  C   UNL     1      -1.892  12.236  20.170  0.00  0.00    +0.000 A 
ATOM     23  C   UNL     1      -3.066  12.887  20.815  0.00  0.00    +0.000 A 
ATOM     24  C   UNL     1      -2.906  13.616  21.925  0.00  0.00    +0.000 A 
ATOM     25  C   UNL     1      -1.596  13.793  22.490  0.00  0.00    +0.000 A 
ATOM     26  C   UNL     1      -0.530  13.238  21.898  0.00  0.00    +0.000 A 
ATOM     27  N   UNL     1      -0.653  12.461  20.749  0.00  0.00    +0.000 N 
ATOM     28  C   UNL     1       0.487  11.935  20.157  0.00  0.00    +0.000 A 
ATOM     29  O   UNL     1       1.635  12.191  20.526  0.00  0.00    +0.000 OA
ATOM     30  C   UNL     1       0.261  11.033  19.002  0.00  0.00    +0.000 A 
BRANCH  20  31
ATOM     31  O   UNL     1      -1.188  10.064  17.455  0.00  0.00    +0.000 OA
BRANCH  31  33
ATOM     32  C   UNL     1      -2.706  10.334  15.648  0.00  0.00    +0.000 C 
ATOM     33  C   UNL     1      -2.551   9.864  17.084  0.00  0.00    +0.000 C 
ENDBRANCH  31  33
ENDBRANCH  20  31
ENDBRANCH  19  30
ENDBRANCH   1  19
TORSDOF 6
ENDMDL
MODEL 4
REMARK VINA RESULT:      -8.8      2.343      3.490
REMARK  Name = 
REMARK  7 active torsions:
REMARK  status: ('A' for Active; 'I' for Inactive)
REMARK    1  A    between atoms: C_1  and  C_2
REMARK    2  A    between atoms: C_2  and  O_3
REMARK    3  A    between atoms: O_3  and  C_4
REMARK    4  A    between atoms: C_14  and  C_15
REMARK    5  A    between atoms: C_15  and  C_16
REMARK    6  A    between atoms: C_19  and  C_20
REMARK    7  A    between atoms: C_25  and  C_26
REMARK                            x       y       z     vdW  Elec       q    Type
REMARK                         _______ _______ _______ _____ _____    ______ ____
ROOT
ATOM      1  C   UNL     1       1.705   8.951  18.724  0.00  0.00    +0.000 A 
ATOM      2  C   UNL     1       2.213   7.984  17.852  0.00  0.00    +0.000 A 
ATOM      3  C   UNL     1       2.455   6.676  18.296  0.00  0.00    +0.000 A 
ATOM      4  C   UNL     1       2.229   6.287  19.631  0.00  0.00    +0.000 A 
ATOM      5  C   UNL     1       1.768   7.292  20.499  0.00  0.00    +0.000 A 
ATOM      6  C   UNL     1       1.462   8.584  20.048  0.00  0.00    +0.000 A 
ENDROOT
BRANCH   4   7
ATOM      7  C   UNL     1       2.486   4.882  20.080  0.00  0.00    +0.000 A 
ATOM      8  C   UNL     1       1.509   4.239  20.882  0.00  0.00    +0.000 A 
ATOM      9  C   UNL     1       1.665   2.933  21.359  0.00  0.00    +0.000 A 
ATOM     10  C   UNL     1       2.794   2.205  21.022  0.00  0.00    +0.000 A 
ATOM     11  C   UNL     1       3.770   2.790  20.220  0.00  0.00    +0.000 A 
ATOM     12  C   UNL     1       3.645   4.122  19.763  0.00  0.00    +0.000 A 
BRANCH  12  13
ATOM     13  C   UNL     1       4.758   4.632  18.971  0.00  0.00    +0.000 A 
ATOM     14  N   UNL     1       5.736   5.436  19.517  0.00  0.00    +0.000 NA
ATOM     15  N   UNL     1       6.631   5.649  18.562  0.00  0.00    +0.000 NA
ATOM     16  N   UNL     1       6.158   4.982  17.504  0.00  0.00    +0.000 N 
ATOM     17  N   UNL     1       4.968   4.388  17.667  0.00  0.00    +0.000 NA
ATOM     18  H   UNL     1       6.681   4.915  16.636  0.00  0.00    +0.000 HD
ENDBRANCH  12  13
ENDBRANCH   4   7
BRANCH   1  19
ATOM     19  C   UNL     1       1.454  10.367  18.255  0.00  0.00    +0.000 C 
BRANCH  19  30
ATOM     20  C   UNL     1      -1.005  10.868  18.483  0.00  0.00    +0.000 A 
ATOM     21  N   UNL     1      -2.077  11.505  19.042  0.00  0.00    +0.000 NA
ATOM     22  C   UNL     1      -1.862  12.287  20.054  0.00  0.00    +0.000 A 
ATOM     23  C   UNL     1      -3.020  12.966  20.699  0.00  0.00    +0.000 A 
ATOM     24  C   UNL     1      -2.833  13.752  21.765  0.00  0.00    +0.000 A 
ATOM     25  C   UNL     1      -1.508  13.963  22.282  0.00  0.00    +0.000 A 
ATOM     26  C   UNL     1      -0.457  13.382  21.689  0.00  0.00    +0.000 A 
ATOM     27  N   UNL     1      -0.608  12.546  20.586  0.00  0.00    +0.000 N 
ATOM     28  C   UNL     1       0.517  11.994  19.989  0.00  0.00    +0.000 A 
ATOM     29  O   UNL     1       1.674  12.273  20.312  0.00  0.00    +0.000 OA
ATOM     30  C   UNL     1       0.263  11.032  18.889  0.00  0.00    +0.000 A 
BRANCH  20  31
ATOM     31  O   UNL     1      -1.224   9.980  17.437  0.00  0.00    +0.000 OA
BRANCH  31  33
ATOM     32  C   UNL     1      -2.676  10.398  15.604  0.00  0.00    +0.000 C 
ATOM     33  C   UNL     1      -2.584   9.863  17.022  0.00  0.00    +0.000 C 
ENDBRANCH  31  33
ENDBRANCH  20  31
ENDBRANCH  19  30
ENDBRANCH   1  19
TORSDOF 6
ENDMDL
MODEL 5
REMARK VINA RESULT:      -8.8      2.294      4.454
REMARK  Name = 
REMARK  7 active torsions:
REMARK  status: ('A' for Active; 'I' for Inactive)
REMARK    1  A    between atoms: C_1  and  C_2
REMARK    2  A    between atoms: C_2  and  O_3
REMARK    3  A    between atoms: O_3  and  C_4
REMARK    4  A    between atoms: C_14  and  C_15
REMARK    5  A    between atoms: C_15  and  C_16
REMARK    6  A    between atoms: C_19  and  C_20
REMARK    7  A    between atoms: C_25  and  C_26
REMARK                            x       y       z     vdW  Elec       q    Type
REMARK                         _______ _______ _______ _____ _____    ______ ____
ROOT
ATOM      1  C   UNL     1       1.741   8.938  18.717  0.00  0.00    +0.000 A 
ATOM      2  C   UNL     1       2.173   7.960  17.818  0.00  0.00    +0.000 A 
ATOM      3  C   UNL     1       2.407   6.645  18.249  0.00  0.00    +0.000 A 
ATOM      4  C   UNL     1       2.247   6.261  19.595  0.00  0.00    +0.000 A 
ATOM      5  C   UNL     1       1.862   7.276  20.487  0.00  0.00    +0.000 A 
ATOM      6  C   UNL     1       1.565   8.577  20.054  0.00  0.00    +0.000 A 
ENDROOT
BRANCH   4   7
ATOM      7  C   UNL     1       2.493   4.850  20.029  0.00  0.00    +0.000 A 
ATOM      8  C   UNL     1       1.493   4.193  20.790  0.00  0.00    +0.000 A 
ATOM      9  C   UNL     1       1.637   2.879  21.251  0.00  0.00    +0.000 A 
ATOM     10  C   UNL     1       2.777   2.158  20.937  0.00  0.00    +0.000 A 
ATOM     11  C   UNL     1       3.776   2.758  20.175  0.00  0.00    +0.000 A 
ATOM     12  C   UNL     1       3.663   4.097  19.735  0.00  0.00    +0.000 A 
BRANCH  12  13
ATOM     13  C   UNL     1       4.798   4.620  18.987  0.00  0.00    +0.000 A 
ATOM     14  N   UNL     1       5.809   5.335  19.595  0.00  0.00    +0.000 NA
ATOM     15  N   UNL     1       6.715   5.586  18.660  0.00  0.00    +0.000 NA
ATOM     16  N   UNL     1       6.216   5.028  17.551  0.00  0.00    +0.000 N 
ATOM     17  N   UNL     1       5.001   4.475  17.666  0.00  0.00    +0.000 NA
ATOM     18  H   UNL     1       6.737   5.009  16.680  0.00  0.00    +0.000 HD
ENDBRANCH  12  13
ENDBRANCH   4   7
BRANCH   1  19
ATOM     19  C   UNL     1       1.500  10.361  18.263  0.00  0.00    +0.000 C 
BRANCH  19  30
ATOM     20  C   UNL     1       0.255  11.784  19.930  0.00  0.00    +0.000 A 
ATOM     21  N   UNL     1      -0.876  12.330  20.468  0.00  0.00    +0.000 NA
ATOM     22  C   UNL     1      -2.004  12.112  19.868  0.00  0.00    +0.000 A 
ATOM     23  C   UNL     1      -3.244  12.724  20.420  0.00  0.00    +0.000 A 
ATOM     24  C   UNL     1      -4.417  12.543  19.804  0.00  0.00    +0.000 A 
ATOM     25  C   UNL     1      -4.491  11.738  18.615  0.00  0.00    +0.000 A 
ATOM     26  C   UNL     1      -3.386  11.157  18.129  0.00  0.00    +0.000 A 
ATOM     27  N   UNL     1      -2.143  11.330  18.731  0.00  0.00    +0.000 N 
ATOM     28  C   UNL     1      -1.035  10.679  18.207  0.00  0.00    +0.000 A 
ATOM     29  O   UNL     1      -1.088   9.865  17.282  0.00  0.00    +0.000 OA
ATOM     30  C   UNL     1       0.267  11.000  18.841  0.00  0.00    +0.000 A 
BRANCH  20  31
ATOM     31  O   UNL     1       1.481  12.057  20.525  0.00  0.00    +0.000 OA
BRANCH  31  33
ATOM     32  C   UNL     1       2.795  13.837  19.659  0.00  0.00    +0.000 C 
ATOM     33  C   UNL     1       1.767  13.444  20.704  0.00  0.00    +0.000 C 
ENDBRANCH  31  33
ENDBRANCH  20  31
ENDBRANCH  19  30
ENDBRANCH   1  19
TORSDOF 6
ENDMDL
MODEL 6
REMARK VINA RESULT:      -8.7      0.320      1.160
REMARK  Name = 
REMARK  7 active torsions:
REMARK  status: ('A' for Active; 'I' for Inactive)
REMARK    1  A    between atoms: C_1  and  C_2
REMARK    2  A    between atoms: C_2  and  O_3
REMARK    3  A    between atoms: O_3  and  C_4
REMARK    4  A    between atoms: C_14  and  C_15
REMARK    5  A    between atoms: C_15  and  C_16
REMARK    6  A    between atoms: C_19  and  C_20
REMARK    7  A    between atoms: C_25  and  C_26
REMARK                            x       y       z     vdW  Elec       q    Type
REMARK                         _______ _______ _______ _____ _____    ______ ____
ROOT
ATOM      1  C   UNL     1       1.010   8.882  19.726  0.00  0.00    +0.000 A 
ATOM      2  C   UNL     1       1.363   9.153  18.402  0.00  0.00    +0.000 A 
ATOM      3  C   UNL     1       2.244   8.309  17.708  0.00  0.00    +0.000 A 
ATOM      4  C   UNL     1       2.828   7.179  18.314  0.00  0.00    +0.000 A 
ATOM      5  C   UNL     1       2.496   6.959  19.662  0.00  0.00    +0.000 A 
ATOM      6  C   UNL     1       1.568   7.761  20.343  0.00  0.00    +0.000 A 
ENDROOT
BRANCH   4   7
ATOM      7  C   UNL     1       3.757   6.287  17.551  0.00  0.00    +0.000 A 
ATOM      8  C   UNL     1       4.842   6.877  16.855  0.00  0.00    +0.000 A 
ATOM      9  C   UNL     1       5.755   6.127  16.106  0.00  0.00    +0.000 A 
ATOM     10  C   UNL     1       5.637   4.748  16.052  0.00  0.00    +0.000 A 
ATOM     11  C   UNL     1       4.597   4.125  16.738  0.00  0.00    +0.000 A 
ATOM     12  C   UNL     1       3.644   4.872  17.467  0.00  0.00    +0.000 A 
BRANCH  12  13
ATOM     13  C   UNL     1       2.579   4.104  18.099  0.00  0.00    +0.000 A 
ATOM     14  N   UNL     1       2.770   3.426  19.285  0.00  0.00    +0.000 NA
ATOM     15  N   UNL     1       1.596   2.910  19.622  0.00  0.00    +0.000 NA
ATOM     16  N   UNL     1       0.769   3.287  18.641  0.00  0.00    +0.000 N 
ATOM     17  N   UNL     1       1.326   3.969  17.631  0.00  0.00    +0.000 NA
ATOM     18  H   UNL     1      -0.225   3.084  18.671  0.00  0.00    +0.000 HD
ENDBRANCH  12  13
ENDBRANCH   4   7
BRANCH   1  19
ATOM     19  C   UNL     1       0.073   9.795  20.485  0.00  0.00    +0.000 C 
BRANCH  19  30
ATOM     20  C   UNL     1      -0.804  11.602  18.962  0.00  0.00    +0.000 A 
ATOM     21  N   UNL     1      -0.832  12.873  18.461  0.00  0.00    +0.000 NA
ATOM     22  C   UNL     1      -0.055  13.758  19.003  0.00  0.00    +0.000 A 
ATOM     23  C   UNL     1      -0.092  15.157  18.493  0.00  0.00    +0.000 A 
ATOM     24  C   UNL     1       0.674  16.099  19.054  0.00  0.00    +0.000 A 
ATOM     25  C   UNL     1       1.555  15.762  20.139  0.00  0.00    +0.000 A 
ATOM     26  C   UNL     1       1.619  14.500  20.583  0.00  0.00    +0.000 A 
ATOM     27  N   UNL     1       0.829  13.491  20.037  0.00  0.00    +0.000 N 
ATOM     28  C   UNL     1       0.957  12.193  20.512  0.00  0.00    +0.000 A 
ATOM     29  O   UNL     1       1.807  11.841  21.334  0.00  0.00    +0.000 OA
ATOM     30  C   UNL     1       0.006  11.201  19.953  0.00  0.00    +0.000 A 
BRANCH  20  31
ATOM     31  O   UNL     1      -1.674  10.654  18.435  0.00  0.00    +0.000 OA
BRANCH  31  33
ATOM     32  C   UNL     1      -3.927  11.240  17.963  0.00  0.00    +0.000 C 
ATOM     33  C   UNL     1      -2.524  11.132  17.394  0.00  0.00    +0.000 C 
ENDBRANCH  31  33
ENDBRANCH  20  31
ENDBRANCH  19  30
ENDBRANCH   1  19
TORSDOF 6
ENDMDL
MODEL 7
REMARK VINA RESULT:      -8.5      2.835      4.409
REMARK  Name = 
REMARK  7 active torsions:
REMARK  status: ('A' for Active; 'I' for Inactive)
REMARK    1  A    between atoms: C_1  and  C_2
REMARK    2  A    between atoms: C_2  and  O_3
REMARK    3  A    between atoms: O_3  and  C_4
REMARK    4  A    between atoms: C_14  and  C_15
REMARK    5  A    between atoms: C_15  and  C_16
REMARK    6  A    between atoms: C_19  and  C_20
REMARK    7  A    between atoms: C_25  and  C_26
REMARK                            x       y       z     vdW  Elec       q    Type
REMARK                         _______ _______ _______ _____ _____    ______ ____
ROOT
ATOM      1  C   UNL     1       1.676   8.808  19.556  0.00  0.00    +0.000 A 
ATOM      2  C   UNL     1       2.196   8.356  18.341  0.00  0.00    +0.000 A 
ATOM      3  C   UNL     1       2.448   6.992  18.133  0.00  0.00    +0.000 A 
ATOM      4  C   UNL     1       2.220   6.029  19.136  0.00  0.00    +0.000 A 
ATOM      5  C   UNL     1       1.746   6.517  20.366  0.00  0.00    +0.000 A 
ATOM      6  C   UNL     1       1.431   7.870  20.560  0.00  0.00    +0.000 A 
ENDROOT
BRANCH   4   7
ATOM      7  C   UNL     1       2.488   4.577  18.889  0.00  0.00    +0.000 A 
ATOM      8  C   UNL     1       1.385   3.689  18.818  0.00  0.00    +0.000 A 
ATOM      9  C   UNL     1       1.536   2.314  18.602  0.00  0.00    +0.000 A 
ATOM     10  C   UNL     1       2.800   1.780  18.413  0.00  0.00    +0.000 A 
ATOM     11  C   UNL     1       3.910   2.619  18.454  0.00  0.00    +0.000 A 
ATOM     12  C   UNL     1       3.777   4.003  18.710  0.00  0.00    +0.000 A 
BRANCH  12  13
ATOM     13  C   UNL     1       5.019   4.762  18.775  0.00  0.00    +0.000 A 
ATOM     14  N   UNL     1       5.806   4.784  19.907  0.00  0.00    +0.000 NA
ATOM     15  N   UNL     1       6.889   5.487  19.606  0.00  0.00    +0.000 NA
ATOM     16  N   UNL     1       6.706   5.856  18.334  0.00  0.00    +0.000 N 
ATOM     17  N   UNL     1       5.539   5.501  17.780  0.00  0.00    +0.000 NA
ATOM     18  H   UNL     1       7.419   6.359  17.815  0.00  0.00    +0.000 HD
ENDBRANCH  12  13
ENDBRANCH   4   7
BRANCH   1  19
ATOM     19  C   UNL     1       1.414  10.279  19.792  0.00  0.00    +0.000 C 
BRANCH  19  30
ATOM     20  C   UNL     1      -0.791  11.298  20.463  0.00  0.00    +0.000 A 
ATOM     21  N   UNL     1      -2.093  11.650  20.244  0.00  0.00    +0.000 NA
ATOM     22  C   UNL     1      -2.592  11.436  19.066  0.00  0.00    +0.000 A 
ATOM     23  C   UNL     1      -4.000  11.840  18.797  0.00  0.00    +0.000 A 
ATOM     24  C   UNL     1      -4.531  11.663  17.582  0.00  0.00    +0.000 A 
ATOM     25  C   UNL     1      -3.753  11.058  16.535  0.00  0.00    +0.000 A 
ATOM     26  C   UNL     1      -2.497  10.662  16.778  0.00  0.00    +0.000 A 
ATOM     27  N   UNL     1      -1.900  10.841  18.023  0.00  0.00    +0.000 N 
ATOM     28  C   UNL     1      -0.607  10.382  18.231  0.00  0.00    +0.000 A 
ATOM     29  O   UNL     1       0.033   9.728  17.405  0.00  0.00    +0.000 OA
ATOM     30  C   UNL     1      -0.007  10.707  19.549  0.00  0.00    +0.000 A 
BRANCH  20  31
ATOM     31  O   UNL     1      -0.220  11.576  21.700  0.00  0.00    +0.000 OA
BRANCH  31  33
ATOM     32  C   UNL     1      -0.260   9.756  23.225  0.00  0.00    +0.000 C 
ATOM     33  C   UNL     1      -0.933  11.055  22.821  0.00  0.00    +0.000 C 
ENDBRANCH  31  33
ENDBRANCH  20  31
ENDBRANCH  19  30
ENDBRANCH   1  19
TORSDOF 6
ENDMDL
MODEL 8
REMARK VINA RESULT:      -8.5      2.568      8.454
REMARK  Name = 
REMARK  7 active torsions:
REMARK  status: ('A' for Active; 'I' for Inactive)
REMARK    1  A    between atoms: C_1  and  C_2
REMARK    2  A    between atoms: C_2  and  O_3
REMARK    3  A    between atoms: O_3  and  C_4
REMARK    4  A    between atoms: C_14  and  C_15
REMARK    5  A    between atoms: C_15  and  C_16
REMARK    6  A    between atoms: C_19  and  C_20
REMARK    7  A    between atoms: C_25  and  C_26
REMARK                            x       y       z     vdW  Elec       q    Type
REMARK                         _______ _______ _______ _____ _____    ______ ____
ROOT
ATOM      1  C   UNL     1       2.094   7.327  19.665  0.00  0.00    +0.000 A 
ATOM      2  C   UNL     1       2.292   7.969  18.440  0.00  0.00    +0.000 A 
ATOM      3  C   UNL     1       1.873   9.294  18.250  0.00  0.00    +0.000 A 
ATOM      4  C   UNL     1       1.216  10.021  19.262  0.00  0.00    +0.000 A 
ATOM      5  C   UNL     1       0.984   9.335  20.466  0.00  0.00    +0.000 A 
ATOM      6  C   UNL     1       1.455   8.033  20.685  0.00  0.00    +0.000 A 
ENDROOT
BRANCH   4   7
ATOM      7  C   UNL     1       0.786  11.438  19.041  0.00  0.00    +0.000 A 
ATOM      8  C   UNL     1       1.672  12.480  19.416  0.00  0.00    +0.000 A 
ATOM      9  C   UNL     1       1.354  13.834  19.259  0.00  0.00    +0.000 A 
ATOM     10  C   UNL     1       0.147  14.198  18.685  0.00  0.00    +0.000 A 
ATOM     11  C   UNL     1      -0.744  13.207  18.283  0.00  0.00    +0.000 A 
ATOM     12  C   UNL     1      -0.454  11.836  18.471  0.00  0.00    +0.000 A 
BRANCH  12  13
ATOM     13  C   UNL     1      -1.491  10.901  18.051  0.00  0.00    +0.000 A 
ATOM     14  N   UNL     1      -2.767  10.940  18.573  0.00  0.00    +0.000 NA
ATOM     15  N   UNL     1      -3.473  10.025  17.924  0.00  0.00    +0.000 NA
ATOM     16  N   UNL     1      -2.606   9.482  17.062  0.00  0.00    +0.000 N 
ATOM     17  N   UNL     1      -1.345   9.929  17.135  0.00  0.00    +0.000 NA
ATOM     18  H   UNL     1      -2.893   8.786  16.381  0.00  0.00    +0.000 HD
ENDBRANCH  12  13
ENDBRANCH   4   7
BRANCH   1  19
ATOM     19  C   UNL     1       2.531   5.893  19.872  0.00  0.00    +0.000 C 
BRANCH  19  30
ATOM     20  C   UNL     1       2.668   4.433  17.823  0.00  0.00    +0.000 A 
ATOM     21  N   UNL     1       3.328   3.852  16.776  0.00  0.00    +0.000 NA
ATOM     22  C   UNL     1       4.571   4.169  16.588  0.00  0.00    +0.000 A 
ATOM     23  C   UNL     1       5.300   3.572  15.435  0.00  0.00    +0.000 A 
ATOM     24  C   UNL     1       6.573   3.906  15.197  0.00  0.00    +0.000 A 
ATOM     25  C   UNL     1       7.252   4.827  16.066  0.00  0.00    +0.000 A 
ATOM     26  C   UNL     1       6.615   5.344  17.125  0.00  0.00    +0.000 A 
ATOM     27  N   UNL     1       5.286   5.035  17.402  0.00  0.00    +0.000 N 
ATOM     28  C   UNL     1       4.682   5.572  18.530  0.00  0.00    +0.000 A 
ATOM     29  O   UNL     1       5.277   6.243  19.376  0.00  0.00    +0.000 OA
ATOM     30  C   UNL     1       3.237   5.280  18.694  0.00  0.00    +0.000 A 
BRANCH  20  31
ATOM     31  O   UNL     1       1.319   4.152  18.003  0.00  0.00    +0.000 OA
BRANCH  31  33
ATOM     32  C   UNL     1       0.747   2.931  19.959  0.00  0.00    +0.000 C 
ATOM     33  C   UNL     1       1.036   2.834  18.472  0.00  0.00    +0.000 C 
ENDBRANCH  31  33
ENDBRANCH  20  31
ENDBRANCH  19  30
ENDBRANCH   1  19
TORSDOF 6
ENDMDL
MODEL 9
REMARK VINA RESULT:      -8.4      2.478      4.495
REMARK  Name = 
REMARK  7 active torsions:
REMARK  status: ('A' for Active; 'I' for Inactive)
REMARK    1  A    between atoms: C_1  and  C_2
REMARK    2  A    between atoms: C_2  and  O_3
REMARK    3  A    between atoms: O_3  and  C_4
REMARK    4  A    between atoms: C_14  and  C_15
REMARK    5  A    between atoms: C_15  and  C_16
REMARK    6  A    between atoms: C_19  and  C_20
REMARK    7  A    between atoms: C_25  and  C_26
REMARK                            x       y       z     vdW  Elec       q    Type
REMARK                         _______ _______ _______ _____ _____    ______ ____
ROOT
ATOM      1  C   UNL     1       1.324   9.462  19.114  0.00  0.00    +0.000 A 
ATOM      2  C   UNL     1       1.857   8.622  18.133  0.00  0.00    +0.000 A 
ATOM      3  C   UNL     1       2.167   7.285  18.426  0.00  0.00    +0.000 A 
ATOM      4  C   UNL     1       1.985   6.741  19.713  0.00  0.00    +0.000 A 
ATOM      5  C   UNL     1       1.496   7.622  20.693  0.00  0.00    +0.000 A 
ATOM      6  C   UNL     1       1.125   8.940  20.394  0.00  0.00    +0.000 A 
ENDROOT
BRANCH   4   7
ATOM      7  C   UNL     1       2.313   5.309  20.000  0.00  0.00    +0.000 A 
ATOM      8  C   UNL     1       1.467   4.584  20.877  0.00  0.00    +0.000 A 
ATOM      9  C   UNL     1       1.700   3.246  21.214  0.00  0.00    +0.000 A 
ATOM     10  C   UNL     1       2.772   2.569  20.656  0.00  0.00    +0.000 A 
ATOM     11  C   UNL     1       3.617   3.237  19.774  0.00  0.00    +0.000 A 
ATOM     12  C   UNL     1       3.418   4.599  19.454  0.00  0.00    +0.000 A 
BRANCH  12  13
ATOM     13  C   UNL     1       4.401   5.194  18.555  0.00  0.00    +0.000 A 
ATOM     14  N   UNL     1       4.275   5.123  17.184  0.00  0.00    +0.000 NA
ATOM     15  N   UNL     1       5.276   5.827  16.673  0.00  0.00    +0.000 NA
ATOM     16  N   UNL     1       5.949   6.275  17.738  0.00  0.00    +0.000 N 
ATOM     17  N   UNL     1       5.503   5.864  18.932  0.00  0.00    +0.000 NA
ATOM     18  H   UNL     1       6.739   6.906  17.645  0.00  0.00    +0.000 HD
ENDBRANCH  12  13
ENDBRANCH   4   7
BRANCH   1  19
ATOM     19  C   UNL     1       1.001  10.908  18.810  0.00  0.00    +0.000 C 
BRANCH  19  30
ATOM     20  C   UNL     1      -0.945  11.965  20.014  0.00  0.00    +0.000 A 
ATOM     21  N   UNL     1      -2.270  12.259  20.175  0.00  0.00    +0.000 NA
ATOM     22  C   UNL     1      -3.095  11.879  19.251  0.00  0.00    +0.000 A 
ATOM     23  C   UNL     1      -4.539  12.217  19.392  0.00  0.00    +0.000 A 
ATOM     24  C   UNL     1      -5.409  11.867  18.439  0.00  0.00    +0.000 A 
ATOM     25  C   UNL     1      -4.959  11.144  17.281  0.00  0.00    +0.000 A 
ATOM     26  C   UNL     1      -3.669  10.807  17.161  0.00  0.00    +0.000 A 
ATOM     27  N   UNL     1      -2.726  11.163  18.123  0.00  0.00    +0.000 N 
ATOM     28  C   UNL     1      -1.407  10.762  17.966  0.00  0.00    +0.000 A 
ATOM     29  O   UNL     1      -1.017  10.015  17.066  0.00  0.00    +0.000 OA
ATOM     30  C   UNL     1      -0.449  11.271  18.978  0.00  0.00    +0.000 A 
BRANCH  20  31
ATOM     31  O   UNL     1      -0.036  12.417  20.964  0.00  0.00    +0.000 OA
BRANCH  31  33
ATOM     32  C   UNL     1      -0.692  11.023  22.772  0.00  0.00    +0.000 C 
ATOM     33  C   UNL     1      -0.534  12.458  22.300  0.00  0.00    +0.000 C 
ENDBRANCH  31  33
ENDBRANCH  20  31
ENDBRANCH  19  30
ENDBRANCH   1  19
TORSDOF 6
ENDMDL
