MODEL 1
REMARK VINA RESULT:      -6.6      0.000      0.000
REMARK  Name = 
REMARK  9 active torsions:
REMARK  status: ('A' for Active; 'I' for Inactive)
REMARK    1  A    between atoms: C_1  and  C_2
REMARK    2  A    between atoms: C_2  and  C_3
REMARK    3  A    between atoms: C_3  and  O_4
REMARK    4  A    between atoms: O_4  and  C_5
REMARK    5  A    between atoms: C_8  and  C_9
REMARK    6  A    between atoms: N_11  and  C_12
REMARK    7  A    between atoms: C_12  and  C_13
REMARK    8  A    between atoms: C_13  and  C_14
REMARK    9  A    between atoms: C_14  and  N_15
REMARK                            x       y       z     vdW  Elec       q    Type
REMARK                         _______ _______ _______ _____ _____    ______ ____
ROOT
ATOM      1  C   UNL     1       3.148   5.744  18.670  0.00  0.00    +0.000 C 
ATOM      2  O   UNL     1       2.052   6.144  18.289  0.00  0.00    +0.000 OA
ATOM      3  N   UNL     1       3.357   5.314  19.962  0.00  0.00    +0.000 N 
ATOM      4  H   UNL     1       4.255   4.959  20.247  0.00  0.00    +0.000 HD
ENDROOT
BRANCH   1   8
ATOM      5  C   UNL     1       6.554   5.413  16.035  0.00  0.00    +0.000 A 
ATOM      6  C   UNL     1       6.294   4.491  17.048  0.00  0.00    +0.000 A 
ATOM      7  C   UNL     1       5.177   4.624  17.873  0.00  0.00    +0.000 A 
ATOM      8  C   UNL     1       4.297   5.698  17.716  0.00  0.00    +0.000 A 
ATOM      9  C   UNL     1       4.556   6.637  16.709  0.00  0.00    +0.000 A 
ATOM     10  C   UNL     1       5.680   6.495  15.874  0.00  0.00    +0.000 A 
BRANCH   5  11
ATOM     11  O   UNL     1       7.616   5.331  15.171  0.00  0.00    +0.000 OA
BRANCH  11  12
ATOM     12  C   UNL     1       7.244   5.065  13.811  0.00  0.00    +0.000 C 
BRANCH  12  14
ATOM     13  C   UNL     1       6.186   3.404  12.271  0.00  0.00    +0.000 C 
ATOM     14  C   UNL     1       6.315   3.865  13.717  0.00  0.00    +0.000 C 
ENDBRANCH  12  14
ENDBRANCH  11  12
ENDBRANCH   5  11
ENDBRANCH   1   8
BRANCH   3  15
ATOM     15  C   UNL     1       2.267   5.279  20.919  0.00  0.00    +0.000 C 
BRANCH  15  16
ATOM     16  C   UNL     1       2.187   3.942  21.653  0.00  0.00    +0.000 C 
BRANCH  16  17
ATOM     17  C   UNL     1       1.357   2.923  20.880  0.00  0.00    +0.000 C 
BRANCH  17  18
ATOM     18  N   UNL     1       1.994   2.505  19.650  0.00  0.00    +0.000 N 
ATOM     19  C   UNL     1       1.474   2.613  18.392  0.00  0.00    +0.000 A 
ATOM     20  C   UNL     1       2.418   2.041  17.571  0.00  0.00    +0.000 A 
ATOM     21  N   UNL     1       3.487   1.588  18.300  0.00  0.00    +0.000 NA
ATOM     22  C   UNL     1       3.205   1.884  19.548  0.00  0.00    +0.000 A 
ENDBRANCH  17  18
ENDBRANCH  16  17
ENDBRANCH  15  16
ENDBRANCH   3  15
TORSDOF 8
ENDMDL
MODEL 2
REMARK VINA RESULT:      -6.5      4.651      8.160
REMARK  Name = 
REMARK  9 active torsions:
REMARK  status: ('A' for Active; 'I' for Inactive)
REMARK    1  A    between atoms: C_1  and  C_2
REMARK    2  A    between atoms: C_2  and  C_3
REMARK    3  A    between atoms: C_3  and  O_4
REMARK    4  A    between atoms: O_4  and  C_5
REMARK    5  A    between atoms: C_8  and  C_9
REMARK    6  A    between atoms: N_11  and  C_12
REMARK    7  A    between atoms: C_12  and  C_13
REMARK    8  A    between atoms: C_13  and  C_14
REMARK    9  A    between atoms: C_14  and  N_15
REMARK                            x       y       z     vdW  Elec       q    Type
REMARK                         _______ _______ _______ _____ _____    ______ ____
ROOT
ATOM      1  C   UNL     1       6.289   5.878  18.386  0.00  0.00    +0.000 C 
ATOM      2  O   UNL     1       7.093   5.317  19.125  0.00  0.00    +0.000 OA
ATOM      3  N   UNL     1       6.620   7.010  17.675  0.00  0.00    +0.000 N 
ATOM      4  H   UNL     1       5.956   7.437  17.049  0.00  0.00    +0.000 HD
ENDROOT
BRANCH   1   8
ATOM      5  C   UNL     1       2.408   4.045  17.899  0.00  0.00    +0.000 A 
ATOM      6  C   UNL     1       3.588   3.306  17.953  0.00  0.00    +0.000 A 
ATOM      7  C   UNL     1       4.823   3.930  18.122  0.00  0.00    +0.000 A 
ATOM      8  C   UNL     1       4.911   5.321  18.225  0.00  0.00    +0.000 A 
ATOM      9  C   UNL     1       3.732   6.076  18.161  0.00  0.00    +0.000 A 
ATOM     10  C   UNL     1       2.488   5.440  17.996  0.00  0.00    +0.000 A 
BRANCH   5  11
ATOM     11  O   UNL     1       1.158   3.496  17.760  0.00  0.00    +0.000 OA
BRANCH  11  12
ATOM     12  C   UNL     1       0.755   2.675  18.865  0.00  0.00    +0.000 C 
BRANCH  12  14
ATOM     13  C   UNL     1       1.429   2.639  21.273  0.00  0.00    +0.000 C 
ATOM     14  C   UNL     1       0.771   3.458  20.170  0.00  0.00    +0.000 C 
ENDBRANCH  12  14
ENDBRANCH  11  12
ENDBRANCH   5  11
ENDBRANCH   1   8
BRANCH   3  15
ATOM     15  C   UNL     1       7.958   7.564  17.742  0.00  0.00    +0.000 C 
BRANCH  15  16
ATOM     16  C   UNL     1       7.949   9.089  17.818  0.00  0.00    +0.000 C 
BRANCH  16  17
ATOM     17  C   UNL     1       8.926   9.608  18.868  0.00  0.00    +0.000 C 
BRANCH  17  18
ATOM     18  N   UNL     1       9.393  10.947  18.579  0.00  0.00    +0.000 N 
ATOM     19  C   UNL     1       8.764  11.871  17.794  0.00  0.00    +0.000 A 
ATOM     20  C   UNL     1       9.610  12.955  17.783  0.00  0.00    +0.000 A 
ATOM     21  N   UNL     1      10.731  12.707  18.533  0.00  0.00    +0.000 NA
ATOM     22  C   UNL     1      10.571  11.490  19.002  0.00  0.00    +0.000 A 
ENDBRANCH  17  18
ENDBRANCH  16  17
ENDBRANCH  15  16
ENDBRANCH   3  15
TORSDOF 8
ENDMDL
MODEL 3
REMARK VINA RESULT:      -6.4      5.093      8.365
REMARK  Name = 
REMARK  9 active torsions:
REMARK  status: ('A' for Active; 'I' for Inactive)
REMARK    1  A    between atoms: C_1  and  C_2
REMARK    2  A    between atoms: C_2  and  C_3
REMARK    3  A    between atoms: C_3  and  O_4
REMARK    4  A    between atoms: O_4  and  C_5
REMARK    5  A    between atoms: C_8  and  C_9
REMARK    6  A    between atoms: N_11  and  C_12
REMARK    7  A    between atoms: C_12  and  C_13
REMARK    8  A    between atoms: C_13  and  C_14
REMARK    9  A    between atoms: C_14  and  N_15
REMARK                            x       y       z     vdW  Elec       q    Type
REMARK                         _______ _______ _______ _____ _____    ______ ____
ROOT
ATOM      1  C   UNL     1       6.993   6.219  17.194  0.00  0.00    +0.000 C 
ATOM      2  O   UNL     1       7.499   6.101  16.082  0.00  0.00    +0.000 OA
ATOM      3  N   UNL     1       7.271   7.293  18.010  0.00  0.00    +0.000 N 
ATOM      4  H   UNL     1       6.821   7.389  18.906  0.00  0.00    +0.000 HD
ENDROOT
BRANCH   1   8
ATOM      5  C   UNL     1       4.138   3.207  18.389  0.00  0.00    +0.000 A 
ATOM      6  C   UNL     1       4.353   3.552  17.056  0.00  0.00    +0.000 A 
ATOM      7  C   UNL     1       5.292   4.522  16.706  0.00  0.00    +0.000 A 
ATOM      8  C   UNL     1       6.031   5.188  17.688  0.00  0.00    +0.000 A 
ATOM      9  C   UNL     1       5.814   4.857  19.032  0.00  0.00    +0.000 A 
ATOM     10  C   UNL     1       4.869   3.872  19.380  0.00  0.00    +0.000 A 
BRANCH   5  11
ATOM     11  O   UNL     1       3.250   2.246  18.804  0.00  0.00    +0.000 OA
BRANCH  11  12
ATOM     12  C   UNL     1       1.920   2.421  18.296  0.00  0.00    +0.000 C 
BRANCH  12  14
ATOM     13  C   UNL     1       0.870   3.546  20.267  0.00  0.00    +0.000 C 
ATOM     14  C   UNL     1       1.297   3.709  18.814  0.00  0.00    +0.000 C 
ENDBRANCH  12  14
ENDBRANCH  11  12
ENDBRANCH   5  11
ENDBRANCH   1   8
BRANCH   3  15
ATOM     15  C   UNL     1       8.150   8.357  17.564  0.00  0.00    +0.000 C 
BRANCH  15  16
ATOM     16  C   UNL     1       8.651   9.216  18.723  0.00  0.00    +0.000 C 
BRANCH  16  17
ATOM     17  C   UNL     1       8.843  10.671  18.305  0.00  0.00    +0.000 C 
BRANCH  17  18
ATOM     18  N   UNL     1      10.108  11.214  18.751  0.00  0.00    +0.000 N 
ATOM     19  C   UNL     1      10.483  11.432  20.045  0.00  0.00    +0.000 A 
ATOM     20  C   UNL     1      11.733  11.999  19.958  0.00  0.00    +0.000 A 
ATOM     21  N   UNL     1      12.117  12.134  18.648  0.00  0.00    +0.000 NA
ATOM     22  C   UNL     1      11.119  11.650  17.944  0.00  0.00    +0.000 A 
ENDBRANCH  17  18
ENDBRANCH  16  17
ENDBRANCH  15  16
ENDBRANCH   3  15
TORSDOF 8
ENDMDL
MODEL 4
REMARK VINA RESULT:      -6.4      3.275      6.681
REMARK  Name = 
REMARK  9 active torsions:
REMARK  status: ('A' for Active; 'I' for Inactive)
REMARK    1  A    between atoms: C_1  and  C_2
REMARK    2  A    between atoms: C_2  and  C_3
REMARK    3  A    between atoms: C_3  and  O_4
REMARK    4  A    between atoms: O_4  and  C_5
REMARK    5  A    between atoms: C_8  and  C_9
REMARK    6  A    between atoms: N_11  and  C_12
REMARK    7  A    between atoms: C_12  and  C_13
REMARK    8  A    between atoms: C_13  and  C_14
REMARK    9  A    between atoms: C_14  and  N_15
REMARK                            x       y       z     vdW  Elec       q    Type
REMARK                         _______ _______ _______ _____ _____    ______ ____
ROOT
ATOM      1  C   UNL     1       3.405   6.368  17.730  0.00  0.00    +0.000 C 
ATOM      2  O   UNL     1       4.410   6.752  17.139  0.00  0.00    +0.000 OA
ATOM      3  N   UNL     1       3.006   5.050  17.708  0.00  0.00    +0.000 N 
ATOM      4  H   UNL     1       2.197   4.749  18.227  0.00  0.00    +0.000 HD
ENDROOT
BRANCH   1   8
ATOM      5  C   UNL     1       1.038   9.016  20.189  0.00  0.00    +0.000 A 
ATOM      6  C   UNL     1       1.528   7.796  20.653  0.00  0.00    +0.000 A 
ATOM      7  C   UNL     1       2.299   6.971  19.834  0.00  0.00    +0.000 A 
ATOM      8  C   UNL     1       2.586   7.340  18.517  0.00  0.00    +0.000 A 
ATOM      9  C   UNL     1       2.089   8.559  18.037  0.00  0.00    +0.000 A 
ATOM     10  C   UNL     1       1.317   9.391  18.870  0.00  0.00    +0.000 A 
BRANCH   5  11
ATOM     11  O   UNL     1       0.297   9.887  20.946  0.00  0.00    +0.000 OA
BRANCH  11  12
ATOM     12  C   UNL     1      -0.475   9.255  21.977  0.00  0.00    +0.000 C 
BRANCH  12  14
ATOM     13  C   UNL     1      -1.168  11.484  22.871  0.00  0.00    +0.000 C 
ATOM     14  C   UNL     1      -0.562  10.131  23.218  0.00  0.00    +0.000 C 
ENDBRANCH  12  14
ENDBRANCH  11  12
ENDBRANCH   5  11
ENDBRANCH   1   8
BRANCH   3  15
ATOM     15  C   UNL     1       3.791   4.048  17.013  0.00  0.00    +0.000 C 
BRANCH  15  16
ATOM     16  C   UNL     1       4.182   2.887  17.924  0.00  0.00    +0.000 C 
BRANCH  16  17
ATOM     17  C   UNL     1       2.968   2.061  18.338  0.00  0.00    +0.000 C 
BRANCH  17  18
ATOM     18  N   UNL     1       2.536   2.349  19.689  0.00  0.00    +0.000 N 
ATOM     19  C   UNL     1       1.269   2.674  20.081  0.00  0.00    +0.000 A 
ATOM     20  C   UNL     1       1.368   2.904  21.434  0.00  0.00    +0.000 A 
ATOM     21  N   UNL     1       2.659   2.731  21.864  0.00  0.00    +0.000 NA
ATOM     22  C   UNL     1       3.339   2.395  20.792  0.00  0.00    +0.000 A 
ENDBRANCH  17  18
ENDBRANCH  16  17
ENDBRANCH  15  16
ENDBRANCH   3  15
TORSDOF 8
ENDMDL
MODEL 5
REMARK VINA RESULT:      -6.4      3.515      6.111
REMARK  Name = 
REMARK  9 active torsions:
REMARK  status: ('A' for Active; 'I' for Inactive)
REMARK    1  A    between atoms: C_1  and  C_2
REMARK    2  A    between atoms: C_2  and  C_3
REMARK    3  A    between atoms: C_3  and  O_4
REMARK    4  A    between atoms: O_4  and  C_5
REMARK    5  A    between atoms: C_8  and  C_9
REMARK    6  A    between atoms: N_11  and  C_12
REMARK    7  A    between atoms: C_12  and  C_13
REMARK    8  A    between atoms: C_13  and  C_14
REMARK    9  A    between atoms: C_14  and  N_15
REMARK                            x       y       z     vdW  Elec       q    Type
REMARK                         _______ _______ _______ _____ _____    ______ ____
ROOT
ATOM      1  C   UNL     1       3.266   5.901  18.759  0.00  0.00    +0.000 C 
ATOM      2  O   UNL     1       4.003   5.467  19.641  0.00  0.00    +0.000 OA
ATOM      3  N   UNL     1       3.098   5.241  17.561  0.00  0.00    +0.000 N 
ATOM      4  H   UNL     1       2.465   5.596  16.864  0.00  0.00    +0.000 HD
ENDROOT
BRANCH   1   8
ATOM      5  C   UNL     1       1.023   9.489  19.621  0.00  0.00    +0.000 A 
ATOM      6  C   UNL     1       1.250   8.497  20.573  0.00  0.00    +0.000 A 
ATOM      7  C   UNL     1       1.988   7.355  20.263  0.00  0.00    +0.000 A 
ATOM      8  C   UNL     1       2.508   7.169  18.979  0.00  0.00    +0.000 A 
ATOM      9  C   UNL     1       2.276   8.155  18.010  0.00  0.00    +0.000 A 
ATOM     10  C   UNL     1       1.535   9.308  18.331  0.00  0.00    +0.000 A 
BRANCH   5  11
ATOM     11  O   UNL     1       0.328  10.647  19.864  0.00  0.00    +0.000 OA
BRANCH  11  12
ATOM     12  C   UNL     1       0.145  11.472  18.705  0.00  0.00    +0.000 C 
BRANCH  12  14
ATOM     13  C   UNL     1       2.127  12.951  18.341  0.00  0.00    +0.000 C 
ATOM     14  C   UNL     1       0.721  12.863  18.920  0.00  0.00    +0.000 C 
ENDBRANCH  12  14
ENDBRANCH  11  12
ENDBRANCH   5  11
ENDBRANCH   1   8
BRANCH   3  15
ATOM     15  C   UNL     1       3.759   3.975  17.312  0.00  0.00    +0.000 C 
BRANCH  15  16
ATOM     16  C   UNL     1       2.801   2.791  17.422  0.00  0.00    +0.000 C 
BRANCH  16  17
ATOM     17  C   UNL     1       3.165   1.877  18.587  0.00  0.00    +0.000 C 
BRANCH  17  18
ATOM     18  N   UNL     1       2.602   2.326  19.842  0.00  0.00    +0.000 N 
ATOM     19  C   UNL     1       1.342   2.818  20.033  0.00  0.00    +0.000 A 
ATOM     20  C   UNL     1       1.294   3.152  21.367  0.00  0.00    +0.000 A 
ATOM     21  N   UNL     1       2.490   2.880  21.981  0.00  0.00    +0.000 NA
ATOM     22  C   UNL     1       3.257   2.381  21.038  0.00  0.00    +0.000 A 
ENDBRANCH  17  18
ENDBRANCH  16  17
ENDBRANCH  15  16
ENDBRANCH   3  15
TORSDOF 8
ENDMDL
MODEL 6
REMARK VINA RESULT:      -6.4      3.091      4.568
REMARK  Name = 
REMARK  9 active torsions:
REMARK  status: ('A' for Active; 'I' for Inactive)
REMARK    1  A    between atoms: C_1  and  C_2
REMARK    2  A    between atoms: C_2  and  C_3
REMARK    3  A    between atoms: C_3  and  O_4
REMARK    4  A    between atoms: O_4  and  C_5
REMARK    5  A    between atoms: C_8  and  C_9
REMARK    6  A    between atoms: N_11  and  C_12
REMARK    7  A    between atoms: C_12  and  C_13
REMARK    8  A    between atoms: C_13  and  C_14
REMARK    9  A    between atoms: C_14  and  N_15
REMARK                            x       y       z     vdW  Elec       q    Type
REMARK                         _______ _______ _______ _____ _____    ______ ____
ROOT
ATOM      1  C   UNL     1       5.265   4.374  16.975  0.00  0.00    +0.000 C 
ATOM      2  O   UNL     1       5.251   4.008  15.804  0.00  0.00    +0.000 OA
ATOM      3  N   UNL     1       4.456   3.795  17.929  0.00  0.00    +0.000 N 
ATOM      4  H   UNL     1       4.506   4.087  18.891  0.00  0.00    +0.000 HD
ENDROOT
BRANCH   1   8
ATOM      5  C   UNL     1       8.005   7.390  18.405  0.00  0.00    +0.000 A 
ATOM      6  C   UNL     1       7.874   6.144  19.015  0.00  0.00    +0.000 A 
ATOM      7  C   UNL     1       6.986   5.190  18.519  0.00  0.00    +0.000 A 
ATOM      8  C   UNL     1       6.190   5.466  17.404  0.00  0.00    +0.000 A 
ATOM      9  C   UNL     1       6.306   6.721  16.790  0.00  0.00    +0.000 A 
ATOM     10  C   UNL     1       7.208   7.678  17.291  0.00  0.00    +0.000 A 
BRANCH   5  11
ATOM     11  O   UNL     1       8.875   8.366  18.823  0.00  0.00    +0.000 OA
BRANCH  11  12
ATOM     12  C   UNL     1       8.611   9.661  18.266  0.00  0.00    +0.000 C 
BRANCH  12  14
ATOM     13  C   UNL     1      10.409  11.398  18.228  0.00  0.00    +0.000 C 
ATOM     14  C   UNL     1       9.307  10.756  19.061  0.00  0.00    +0.000 C 
ENDBRANCH  12  14
ENDBRANCH  11  12
ENDBRANCH   5  11
ENDBRANCH   1   8
BRANCH   3  15
ATOM     15  C   UNL     1       3.581   2.690  17.588  0.00  0.00    +0.000 C 
BRANCH  15  16
ATOM     16  C   UNL     1       2.119   3.122  17.489  0.00  0.00    +0.000 C 
BRANCH  16  17
ATOM     17  C   UNL     1       1.277   2.524  18.612  0.00  0.00    +0.000 C 
BRANCH  17  18
ATOM     18  N   UNL     1       1.609   3.075  19.908  0.00  0.00    +0.000 N 
ATOM     19  C   UNL     1       1.809   4.394  20.199  0.00  0.00    +0.000 A 
ATOM     20  C   UNL     1       2.146   4.412  21.532  0.00  0.00    +0.000 A 
ATOM     21  N   UNL     1       2.161   3.141  22.049  0.00  0.00    +0.000 NA
ATOM     22  C   UNL     1       1.831   2.358  21.048  0.00  0.00    +0.000 A 
ENDBRANCH  17  18
ENDBRANCH  16  17
ENDBRANCH  15  16
ENDBRANCH   3  15
TORSDOF 8
ENDMDL
MODEL 7
REMARK VINA RESULT:      -6.4      1.639      2.420
REMARK  Name = 
REMARK  9 active torsions:
REMARK  status: ('A' for Active; 'I' for Inactive)
REMARK    1  A    between atoms: C_1  and  C_2
REMARK    2  A    between atoms: C_2  and  C_3
REMARK    3  A    between atoms: C_3  and  O_4
REMARK    4  A    between atoms: O_4  and  C_5
REMARK    5  A    between atoms: C_8  and  C_9
REMARK    6  A    between atoms: N_11  and  C_12
REMARK    7  A    between atoms: C_12  and  C_13
REMARK    8  A    between atoms: C_13  and  C_14
REMARK    9  A    between atoms: C_14  and  N_15
REMARK                            x       y       z     vdW  Elec       q    Type
REMARK                         _______ _______ _______ _____ _____    ______ ____
ROOT
ATOM      1  C   UNL     1       5.311   4.964  18.177  0.00  0.00    +0.000 C 
ATOM      2  O   UNL     1       6.036   4.595  19.097  0.00  0.00    +0.000 OA
ATOM      3  N   UNL     1       4.123   5.623  18.406  0.00  0.00    +0.000 N 
ATOM      4  H   UNL     1       3.558   5.946  17.638  0.00  0.00    +0.000 HD
ENDROOT
BRANCH   1   8
ATOM      5  C   UNL     1       6.280   4.121  14.054  0.00  0.00    +0.000 A 
ATOM      6  C   UNL     1       5.069   3.747  14.634  0.00  0.00    +0.000 A 
ATOM      7  C   UNL     1       4.786   4.046  15.966  0.00  0.00    +0.000 A 
ATOM      8  C   UNL     1       5.719   4.715  16.762  0.00  0.00    +0.000 A 
ATOM      9  C   UNL     1       6.945   5.086  16.192  0.00  0.00    +0.000 A 
ATOM     10  C   UNL     1       7.223   4.787  14.845  0.00  0.00    +0.000 A 
BRANCH   5  11
ATOM     11  O   UNL     1       6.615   3.883  12.745  0.00  0.00    +0.000 OA
BRANCH  11  12
ATOM     12  C   UNL     1       5.535   3.378  11.948  0.00  0.00    +0.000 C 
BRANCH  12  14
ATOM     13  C   UNL     1       7.248   1.752  11.128  0.00  0.00    +0.000 C 
ATOM     14  C   UNL     1       5.788   1.940  11.521  0.00  0.00    +0.000 C 
ENDBRANCH  12  14
ENDBRANCH  11  12
ENDBRANCH   5  11
ENDBRANCH   1   8
BRANCH   3  15
ATOM     15  C   UNL     1       3.702   5.947  19.755  0.00  0.00    +0.000 C 
BRANCH  15  16
ATOM     16  C   UNL     1       2.212   5.692  19.972  0.00  0.00    +0.000 C 
BRANCH  16  17
ATOM     17  C   UNL     1       1.950   4.279  20.482  0.00  0.00    +0.000 C 
BRANCH  17  18
ATOM     18  N   UNL     1       2.255   3.266  19.494  0.00  0.00    +0.000 N 
ATOM     19  C   UNL     1       3.258   2.343  19.564  0.00  0.00    +0.000 A 
ATOM     20  C   UNL     1       3.178   1.646  18.382  0.00  0.00    +0.000 A 
ATOM     21  N   UNL     1       2.159   2.128  17.600  0.00  0.00    +0.000 NA
ATOM     22  C   UNL     1       1.619   3.102  18.297  0.00  0.00    +0.000 A 
ENDBRANCH  17  18
ENDBRANCH  16  17
ENDBRANCH  15  16
ENDBRANCH   3  15
TORSDOF 8
ENDMDL
MODEL 8
REMARK VINA RESULT:      -6.3      3.948      6.779
REMARK  Name = 
REMARK  9 active torsions:
REMARK  status: ('A' for Active; 'I' for Inactive)
REMARK    1  A    between atoms: C_1  and  C_2
REMARK    2  A    between atoms: C_2  and  C_3
REMARK    3  A    between atoms: C_3  and  O_4
REMARK    4  A    between atoms: O_4  and  C_5
REMARK    5  A    between atoms: C_8  and  C_9
REMARK    6  A    between atoms: N_11  and  C_12
REMARK    7  A    between atoms: C_12  and  C_13
REMARK    8  A    between atoms: C_13  and  C_14
REMARK    9  A    between atoms: C_14  and  N_15
REMARK                            x       y       z     vdW  Elec       q    Type
REMARK                         _______ _______ _______ _____ _____    ______ ____
ROOT
ATOM      1  C   UNL     1       2.927   6.082  19.657  0.00  0.00    +0.000 C 
ATOM      2  O   UNL     1       2.391   5.253  20.388  0.00  0.00    +0.000 OA
ATOM      3  N   UNL     1       4.149   5.848  19.066  0.00  0.00    +0.000 N 
ATOM      4  H   UNL     1       4.557   6.527  18.443  0.00  0.00    +0.000 HD
ENDROOT
BRANCH   1   8
ATOM      5  C   UNL     1       0.861   9.828  19.068  0.00  0.00    +0.000 A 
ATOM      6  C   UNL     1       0.889   9.170  20.296  0.00  0.00    +0.000 A 
ATOM      7  C   UNL     1       1.576   7.966  20.452  0.00  0.00    +0.000 A 
ATOM      8  C   UNL     1       2.242   7.379  19.373  0.00  0.00    +0.000 A 
ATOM      9  C   UNL     1       2.210   8.027  18.131  0.00  0.00    +0.000 A 
ATOM     10  C   UNL     1       1.520   9.244  17.980  0.00  0.00    +0.000 A 
BRANCH   5  11
ATOM     11  O   UNL     1       0.227  11.026  18.848  0.00  0.00    +0.000 OA
BRANCH  11  12
ATOM     12  C   UNL     1      -1.204  10.946  18.893  0.00  0.00    +0.000 C 
BRANCH  12  14
ATOM     13  C   UNL     1      -3.008   9.749  17.642  0.00  0.00    +0.000 C 
ATOM     14  C   UNL     1      -1.784  10.648  17.519  0.00  0.00    +0.000 C 
ENDBRANCH  12  14
ENDBRANCH  11  12
ENDBRANCH   5  11
ENDBRANCH   1   8
BRANCH   3  15
ATOM     15  C   UNL     1       4.836   4.585  19.253  0.00  0.00    +0.000 C 
BRANCH  15  16
ATOM     16  C   UNL     1       4.838   3.735  17.984  0.00  0.00    +0.000 C 
BRANCH  16  17
ATOM     17  C   UNL     1       4.446   4.552  16.758  0.00  0.00    +0.000 C 
BRANCH  17  18
ATOM     18  N   UNL     1       5.553   4.751  15.846  0.00  0.00    +0.000 N 
ATOM     19  C   UNL     1       5.658   4.250  14.580  0.00  0.00    +0.000 A 
ATOM     20  C   UNL     1       6.894   4.664  14.141  0.00  0.00    +0.000 A 
ATOM     21  N   UNL     1       7.536   5.394  15.109  0.00  0.00    +0.000 NA
ATOM     22  C   UNL     1       6.703   5.432  16.123  0.00  0.00    +0.000 A 
ENDBRANCH  17  18
ENDBRANCH  16  17
ENDBRANCH  15  16
ENDBRANCH   3  15
TORSDOF 8
ENDMDL
MODEL 9
REMARK VINA RESULT:      -6.3      4.938      8.249
REMARK  Name = 
REMARK  9 active torsions:
REMARK  status: ('A' for Active; 'I' for Inactive)
REMARK    1  A    between atoms: C_1  and  C_2
REMARK    2  A    between atoms: C_2  and  C_3
REMARK    3  A    between atoms: C_3  and  O_4
REMARK    4  A    between atoms: O_4  and  C_5
REMARK    5  A    between atoms: C_8  and  C_9
REMARK    6  A    between atoms: N_11  and  C_12
REMARK    7  A    between atoms: C_12  and  C_13
REMARK    8  A    between atoms: C_13  and  C_14
REMARK    9  A    between atoms: C_14  and  N_15
REMARK                            x       y       z     vdW  Elec       q    Type
REMARK                         _______ _______ _______ _____ _____    ______ ____
ROOT
ATOM      1  C   UNL     1       6.878   6.357  17.093  0.00  0.00    +0.000 C 
ATOM      2  O   UNL     1       7.495   6.201  16.043  0.00  0.00    +0.000 OA
ATOM      3  N   UNL     1       7.044   7.480  17.874  0.00  0.00    +0.000 N 
ATOM      4  H   UNL     1       6.505   7.604  18.716  0.00  0.00    +0.000 HD
ENDROOT
BRANCH   1   8
ATOM      5  C   UNL     1       3.957   3.366  18.176  0.00  0.00    +0.000 A 
ATOM      6  C   UNL     1       4.059   3.885  16.886  0.00  0.00    +0.000 A 
ATOM      7  C   UNL     1       5.023   4.843  16.570  0.00  0.00    +0.000 A 
ATOM      8  C   UNL     1       5.902   5.320  17.545  0.00  0.00    +0.000 A 
ATOM      9  C   UNL     1       5.800   4.813  18.848  0.00  0.00    +0.000 A 
ATOM     10  C   UNL     1       4.830   3.842  19.160  0.00  0.00    +0.000 A 
BRANCH   5  11
ATOM     11  O   UNL     1       3.052   2.405  18.551  0.00  0.00    +0.000 OA
BRANCH  11  12
ATOM     12  C   UNL     1       1.685   2.835  18.491  0.00  0.00    +0.000 C 
BRANCH  12  14
ATOM     13  C   UNL     1       1.180   4.327  20.434  0.00  0.00    +0.000 C 
ATOM     14  C   UNL     1       1.069   2.912  19.880  0.00  0.00    +0.000 C 
ENDBRANCH  12  14
ENDBRANCH  11  12
ENDBRANCH   5  11
ENDBRANCH   1   8
BRANCH   3  15
ATOM     15  C   UNL     1       7.931   8.549  17.459  0.00  0.00    +0.000 C 
BRANCH  15  16
ATOM     16  C   UNL     1       8.641   9.202  18.643  0.00  0.00    +0.000 C 
BRANCH  16  17
ATOM     17  C   UNL     1       9.202  10.573  18.278  0.00  0.00    +0.000 C 
BRANCH  17  18
ATOM     18  N   UNL     1       9.449  11.399  19.440  0.00  0.00    +0.000 N 
ATOM     19  C   UNL     1       9.271  11.034  20.744  0.00  0.00    +0.000 A 
ATOM     20  C   UNL     1       9.584  12.160  21.469  0.00  0.00    +0.000 A 
ATOM     21  N   UNL     1       9.939  13.192  20.638  0.00  0.00    +0.000 NA
ATOM     22  C   UNL     1       9.850  12.703  19.423  0.00  0.00    +0.000 A 
ENDBRANCH  17  18
ENDBRANCH  16  17
ENDBRANCH  15  16
ENDBRANCH   3  15
TORSDOF 8
ENDMDL
