MODEL 1
REMARK VINA RESULT:      -7.8      0.000      0.000
REMARK  Name = 
REMARK  13 active torsions:
REMARK  status: ('A' for Active; 'I' for Inactive)
REMARK    1  A    between atoms: C_1  and  O_2
REMARK    2  A    between atoms: O_2  and  C_3
REMARK    3  A    between atoms: C_6  and  C_7
REMARK    4  A    between atoms: C_10  and  N_11
REMARK    5  A    between atoms: C_12  and  C_13
REMARK    6  A    between atoms: C_15  and  O_16
REMARK    7  A    between atoms: O_16  and  C_17
REMARK    8  A    between atoms: C_18  and  O_19
REMARK    9  A    between atoms: O_19  and  C_20
REMARK   10  A    between atoms: C_21  and  O_22
REMARK   11  A    between atoms: O_22  and  C_23
REMARK   12  A    between atoms: C_26  and  O_27
REMARK   13  A    between atoms: O_27  and  C_28
REMARK                            x       y       z     vdW  Elec       q    Type
REMARK                         _______ _______ _______ _____ _____    ______ ____
ROOT
ATOM      1  C   UNL     1       2.852   4.716  18.802  0.00  0.00    +0.000 A 
ATOM      2  N   UNL     1       2.109   3.881  19.549  0.00  0.00    +0.000 NA
ATOM      3  O   UNL     1       2.556   2.611  19.276  0.00  0.00    +0.000 OA
ATOM      4  C   UNL     1       3.579   2.660  18.389  0.00  0.00    +0.000 A 
ATOM      5  C   UNL     1       3.836   3.977  18.060  0.00  0.00    +0.000 A 
ENDROOT
BRANCH   1   9
ATOM      6  C   UNL     1       1.827   8.877  18.814  0.00  0.00    +0.000 A 
ATOM      7  C   UNL     1       2.319   8.267  17.652  0.00  0.00    +0.000 A 
ATOM      8  C   UNL     1       2.627   6.909  17.636  0.00  0.00    +0.000 A 
ATOM      9  C   UNL     1       2.556   6.151  18.805  0.00  0.00    +0.000 A 
ATOM     10  C   UNL     1       2.162   6.791  19.988  0.00  0.00    +0.000 A 
ATOM     11  C   UNL     1       1.793   8.147  20.009  0.00  0.00    +0.000 A 
BRANCH   6  13
ATOM     12  C   UNL     1       0.004  10.323  18.466  0.00  0.00    +0.000 C 
ATOM     13  O   UNL     1       1.392  10.174  18.774  0.00  0.00    +0.000 OA
ENDBRANCH   6  13
BRANCH  11  14
ATOM     14  O   UNL     1       1.410   8.555  21.258  0.00  0.00    +0.000 OA
ATOM     15  C   UNL     1       0.043   8.461  21.626  0.00  0.00    +0.000 C 
ENDBRANCH  11  14
ENDBRANCH   1   9
BRANCH   5  16
ATOM     16  C   UNL     1       4.866   4.407  17.124  0.00  0.00    +0.000 A 
ATOM     17  C   UNL     1       5.796   5.381  17.493  0.00  0.00    +0.000 A 
ATOM     18  C   UNL     1       6.812   5.774  16.618  0.00  0.00    +0.000 A 
ATOM     19  C   UNL     1       6.936   5.154  15.354  0.00  0.00    +0.000 A 
ATOM     20  C   UNL     1       6.015   4.154  14.978  0.00  0.00    +0.000 A 
ATOM     21  C   UNL     1       4.972   3.822  15.857  0.00  0.00    +0.000 A 
BRANCH  18  22
ATOM     22  O   UNL     1       7.723   6.762  16.921  0.00  0.00    +0.000 OA
ATOM     23  C   UNL     1       7.933   7.036  18.302  0.00  0.00    +0.000 C 
ENDBRANCH  18  22
BRANCH  19  24
ATOM     24  O   UNL     1       7.939   5.654  14.556  0.00  0.00    +0.000 OA
ATOM     25  C   UNL     1       7.844   5.407  13.159  0.00  0.00    +0.000 C 
ENDBRANCH  19  24
BRANCH  20  26
ATOM     26  O   UNL     1       6.162   3.566  13.749  0.00  0.00    +0.000 OA
ATOM     27  C   UNL     1       5.033   3.524  12.882  0.00  0.00    +0.000 C 
ENDBRANCH  20  26
ENDBRANCH   5  16
BRANCH   4  28
ATOM     28  N   UNL     1       4.114   1.479  18.030  0.00  0.00    +0.000 N 
ATOM     29  H   UNL     1       3.809   1.072  17.150  0.00  0.00    +0.000 HD
ATOM     30  H   UNL     1       4.342   0.789  18.740  0.00  0.00    +0.000 HD
ENDBRANCH   4  28
TORSDOF 8
ENDMDL
MODEL 2
REMARK VINA RESULT:      -7.3      0.424      2.420
REMARK  Name = 
REMARK  13 active torsions:
REMARK  status: ('A' for Active; 'I' for Inactive)
REMARK    1  A    between atoms: C_1  and  O_2
REMARK    2  A    between atoms: O_2  and  C_3
REMARK    3  A    between atoms: C_6  and  C_7
REMARK    4  A    between atoms: C_10  and  N_11
REMARK    5  A    between atoms: C_12  and  C_13
REMARK    6  A    between atoms: C_15  and  O_16
REMARK    7  A    between atoms: O_16  and  C_17
REMARK    8  A    between atoms: C_18  and  O_19
REMARK    9  A    between atoms: O_19  and  C_20
REMARK   10  A    between atoms: C_21  and  O_22
REMARK   11  A    between atoms: O_22  and  C_23
REMARK   12  A    between atoms: C_26  and  O_27
REMARK   13  A    between atoms: O_27  and  C_28
REMARK                            x       y       z     vdW  Elec       q    Type
REMARK                         _______ _______ _______ _____ _____    ______ ____
ROOT
ATOM      1  C   UNL     1       2.889   4.456  18.966  0.00  0.00    +0.000 A 
ATOM      2  N   UNL     1       2.101   3.630  19.676  0.00  0.00    +0.000 NA
ATOM      3  O   UNL     1       2.558   2.356  19.440  0.00  0.00    +0.000 OA
ATOM      4  C   UNL     1       3.631   2.394  18.614  0.00  0.00    +0.000 A 
ATOM      5  C   UNL     1       3.912   3.707  18.289  0.00  0.00    +0.000 A 
ENDROOT
BRANCH   1   9
ATOM      6  C   UNL     1       1.880   8.620  18.888  0.00  0.00    +0.000 A 
ATOM      7  C   UNL     1       2.396   7.990  17.748  0.00  0.00    +0.000 A 
ATOM      8  C   UNL     1       2.700   6.632  17.760  0.00  0.00    +0.000 A 
ATOM      9  C   UNL     1       2.598   5.892  18.939  0.00  0.00    +0.000 A 
ATOM     10  C   UNL     1       2.179   6.552  20.103  0.00  0.00    +0.000 A 
ATOM     11  C   UNL     1       1.815   7.909  20.094  0.00  0.00    +0.000 A 
BRANCH   6  13
ATOM     12  C   UNL     1       0.165  10.084  18.215  0.00  0.00    +0.000 C 
ATOM     13  O   UNL     1       1.451   9.918  18.818  0.00  0.00    +0.000 OA
ENDBRANCH   6  13
BRANCH  11  14
ATOM     14  O   UNL     1       1.404   8.338  21.327  0.00  0.00    +0.000 OA
ATOM     15  C   UNL     1       0.016   8.486  21.579  0.00  0.00    +0.000 C 
ENDBRANCH  11  14
ENDBRANCH   1   9
BRANCH   5  16
ATOM     16  C   UNL     1       4.996   4.127  17.411  0.00  0.00    +0.000 A 
ATOM     17  C   UNL     1       5.055   3.674  16.092  0.00  0.00    +0.000 A 
ATOM     18  C   UNL     1       6.068   4.100  15.229  0.00  0.00    +0.000 A 
ATOM     19  C   UNL     1       7.028   5.036  15.674  0.00  0.00    +0.000 A 
ATOM     20  C   UNL     1       6.967   5.518  16.998  0.00  0.00    +0.000 A 
ATOM     21  C   UNL     1       5.970   5.027  17.857  0.00  0.00    +0.000 A 
BRANCH  18  22
ATOM     22  O   UNL     1       6.193   3.644  13.935  0.00  0.00    +0.000 OA
ATOM     23  C   UNL     1       4.985   3.450  13.206  0.00  0.00    +0.000 C 
ENDBRANCH  18  22
BRANCH  19  24
ATOM     24  O   UNL     1       8.008   5.346  14.759  0.00  0.00    +0.000 OA
ATOM     25  C   UNL     1       7.585   5.777  13.472  0.00  0.00    +0.000 C 
ENDBRANCH  19  24
BRANCH  20  26
ATOM     26  O   UNL     1       7.908   6.429  17.401  0.00  0.00    +0.000 OA
ATOM     27  C   UNL     1       7.575   7.812  17.344  0.00  0.00    +0.000 C 
ENDBRANCH  20  26
ENDBRANCH   5  16
BRANCH   4  28
ATOM     28  N   UNL     1       4.182   1.209  18.296  0.00  0.00    +0.000 N 
ATOM     29  H   UNL     1       3.556   0.422  18.151  0.00  0.00    +0.000 HD
ATOM     30  H   UNL     1       5.081   0.946  18.691  0.00  0.00    +0.000 HD
ENDBRANCH   4  28
TORSDOF 8
ENDMDL
MODEL 3
REMARK VINA RESULT:      -7.3      1.142      1.194
REMARK  Name = 
REMARK  13 active torsions:
REMARK  status: ('A' for Active; 'I' for Inactive)
REMARK    1  A    between atoms: C_1  and  O_2
REMARK    2  A    between atoms: O_2  and  C_3
REMARK    3  A    between atoms: C_6  and  C_7
REMARK    4  A    between atoms: C_10  and  N_11
REMARK    5  A    between atoms: C_12  and  C_13
REMARK    6  A    between atoms: C_15  and  O_16
REMARK    7  A    between atoms: O_16  and  C_17
REMARK    8  A    between atoms: C_18  and  O_19
REMARK    9  A    between atoms: O_19  and  C_20
REMARK   10  A    between atoms: C_21  and  O_22
REMARK   11  A    between atoms: O_22  and  C_23
REMARK   12  A    between atoms: C_26  and  O_27
REMARK   13  A    between atoms: O_27  and  C_28
REMARK                            x       y       z     vdW  Elec       q    Type
REMARK                         _______ _______ _______ _____ _____    ______ ____
ROOT
ATOM      1  C   UNL     1       2.117   4.641  19.266  0.00  0.00    +0.000 A 
ATOM      2  N   UNL     1       1.182   3.911  19.897  0.00  0.00    +0.000 NA
ATOM      3  O   UNL     1       1.481   2.593  19.646  0.00  0.00    +0.000 OA
ATOM      4  C   UNL     1       2.601   2.508  18.889  0.00  0.00    +0.000 A 
ATOM      5  C   UNL     1       3.074   3.780  18.627  0.00  0.00    +0.000 A 
ENDROOT
BRANCH   1   9
ATOM      6  C   UNL     1       1.675   8.904  19.279  0.00  0.00    +0.000 A 
ATOM      7  C   UNL     1       2.114   8.236  18.128  0.00  0.00    +0.000 A 
ATOM      8  C   UNL     1       2.232   6.849  18.110  0.00  0.00    +0.000 A 
ATOM      9  C   UNL     1       2.022   6.103  19.271  0.00  0.00    +0.000 A 
ATOM     10  C   UNL     1       1.683   6.788  20.447  0.00  0.00    +0.000 A 
ATOM     11  C   UNL     1       1.503   8.181  20.467  0.00  0.00    +0.000 A 
BRANCH   6  13
ATOM     12  C   UNL     1       2.063  10.936  18.158  0.00  0.00    +0.000 C 
ATOM     13  O   UNL     1       1.424  10.249  19.237  0.00  0.00    +0.000 OA
ENDBRANCH   6  13
BRANCH  11  14
ATOM     14  O   UNL     1       1.142   8.634  21.707  0.00  0.00    +0.000 OA
ATOM     15  C   UNL     1      -0.230   8.860  21.986  0.00  0.00    +0.000 C 
ENDBRANCH  11  14
ENDBRANCH   1   9
BRANCH   5  16
ATOM     16  C   UNL     1       4.259   4.072  17.833  0.00  0.00    +0.000 A 
ATOM     17  C   UNL     1       5.504   4.225  18.445  0.00  0.00    +0.000 A 
ATOM     18  C   UNL     1       6.654   4.467  17.689  0.00  0.00    +0.000 A 
ATOM     19  C   UNL     1       6.575   4.519  16.280  0.00  0.00    +0.000 A 
ATOM     20  C   UNL     1       5.327   4.345  15.647  0.00  0.00    +0.000 A 
ATOM     21  C   UNL     1       4.181   4.160  16.437  0.00  0.00    +0.000 A 
BRANCH  18  22
ATOM     22  O   UNL     1       7.894   4.670  18.254  0.00  0.00    +0.000 OA
ATOM     23  C   UNL     1       7.985   5.685  19.249  0.00  0.00    +0.000 C 
ENDBRANCH  18  22
BRANCH  19  24
ATOM     24  O   UNL     1       7.758   4.813  15.641  0.00  0.00    +0.000 OA
ATOM     25  C   UNL     1       7.715   5.787  14.606  0.00  0.00    +0.000 C 
ENDBRANCH  19  24
BRANCH  20  26
ATOM     26  O   UNL     1       5.281   4.395  14.278  0.00  0.00    +0.000 OA
ATOM     27  C   UNL     1       5.751   3.268  13.546  0.00  0.00    +0.000 C 
ENDBRANCH  20  26
ENDBRANCH   5  16
BRANCH   4  28
ATOM     28  N   UNL     1       3.010   1.268  18.565  0.00  0.00    +0.000 N 
ATOM     29  H   UNL     1       3.585   1.164  17.733  0.00  0.00    +0.000 HD
ATOM     30  H   UNL     1       2.404   0.472  18.743  0.00  0.00    +0.000 HD
ENDBRANCH   4  28
TORSDOF 8
ENDMDL
MODEL 4
REMARK VINA RESULT:      -7.3      4.759     10.052
REMARK  Name = 
REMARK  13 active torsions:
REMARK  status: ('A' for Active; 'I' for Inactive)
REMARK    1  A    between atoms: C_1  and  O_2
REMARK    2  A    between atoms: O_2  and  C_3
REMARK    3  A    between atoms: C_6  and  C_7
REMARK    4  A    between atoms: C_10  and  N_11
REMARK    5  A    between atoms: C_12  and  C_13
REMARK    6  A    between atoms: C_15  and  O_16
REMARK    7  A    between atoms: O_16  and  C_17
REMARK    8  A    between atoms: C_18  and  O_19
REMARK    9  A    between atoms: O_19  and  C_20
REMARK   10  A    between atoms: C_21  and  O_22
REMARK   11  A    between atoms: O_22  and  C_23
REMARK   12  A    between atoms: C_26  and  O_27
REMARK   13  A    between atoms: O_27  and  C_28
REMARK                            x       y       z     vdW  Elec       q    Type
REMARK                         _______ _______ _______ _____ _____    ______ ____
ROOT
ATOM      1  C   UNL     1       1.034  12.153  18.900  0.00  0.00    +0.000 A 
ATOM      2  N   UNL     1       2.061  13.019  18.926  0.00  0.00    +0.000 NA
ATOM      3  O   UNL     1       1.520  14.271  18.754  0.00  0.00    +0.000 OA
ATOM      4  C   UNL     1       0.173  14.183  18.646  0.00  0.00    +0.000 A 
ATOM      5  C   UNL     1      -0.210  12.859  18.754  0.00  0.00    +0.000 A 
ENDROOT
BRANCH   1   9
ATOM      6  C   UNL     1       1.934   7.974  19.200  0.00  0.00    +0.000 A 
ATOM      7  C   UNL     1       2.125   8.659  17.992  0.00  0.00    +0.000 A 
ATOM      8  C   UNL     1       1.859  10.023  17.898  0.00  0.00    +0.000 A 
ATOM      9  C   UNL     1       1.296  10.713  18.972  0.00  0.00    +0.000 A 
ATOM     10  C   UNL     1       1.012   9.999  20.144  0.00  0.00    +0.000 A 
ATOM     11  C   UNL     1       1.327   8.635  20.275  0.00  0.00    +0.000 A 
BRANCH   6  13
ATOM     12  C   UNL     1       2.998   6.149  18.163  0.00  0.00    +0.000 C 
ATOM     13  O   UNL     1       2.336   6.671  19.318  0.00  0.00    +0.000 OA
ENDBRANCH   6  13
BRANCH  11  14
ATOM     14  O   UNL     1       0.997   8.149  21.511  0.00  0.00    +0.000 OA
ATOM     15  C   UNL     1       0.639   9.059  22.538  0.00  0.00    +0.000 C 
ENDBRANCH  11  14
ENDBRANCH   1   9
BRANCH   5  16
ATOM     16  C   UNL     1      -1.585  12.389  18.675  0.00  0.00    +0.000 A 
ATOM     17  C   UNL     1      -2.486  12.657  19.708  0.00  0.00    +0.000 A 
ATOM     18  C   UNL     1      -3.818  12.244  19.626  0.00  0.00    +0.000 A 
ATOM     19  C   UNL     1      -4.283  11.582  18.468  0.00  0.00    +0.000 A 
ATOM     20  C   UNL     1      -3.389  11.324  17.408  0.00  0.00    +0.000 A 
ATOM     21  C   UNL     1      -2.043  11.701  17.545  0.00  0.00    +0.000 A 
BRANCH  18  22
ATOM     22  O   UNL     1      -4.730  12.445  20.639  0.00  0.00    +0.000 OA
ATOM     23  C   UNL     1      -4.200  12.767  21.921  0.00  0.00    +0.000 C 
ENDBRANCH  18  22
BRANCH  19  24
ATOM     24  O   UNL     1      -5.597  11.176  18.516  0.00  0.00    +0.000 OA
ATOM     25  C   UNL     1      -6.551  11.973  17.827  0.00  0.00    +0.000 C 
ENDBRANCH  19  24
BRANCH  20  26
ATOM     26  O   UNL     1      -3.868  10.685  16.295  0.00  0.00    +0.000 OA
ATOM     27  C   UNL     1      -3.004  10.545  15.172  0.00  0.00    +0.000 C 
ENDBRANCH  20  26
ENDBRANCH   5  16
BRANCH   4  28
ATOM     28  N   UNL     1      -0.489  15.341  18.471  0.00  0.00    +0.000 N 
ATOM     29  H   UNL     1      -0.020  16.199  18.750  0.00  0.00    +0.000 HD
ATOM     30  H   UNL     1      -1.497  15.371  18.591  0.00  0.00    +0.000 HD
ENDBRANCH   4  28
TORSDOF 8
ENDMDL
MODEL 5
REMARK VINA RESULT:      -7.1      4.871     10.316
REMARK  Name = 
REMARK  13 active torsions:
REMARK  status: ('A' for Active; 'I' for Inactive)
REMARK    1  A    between atoms: C_1  and  O_2
REMARK    2  A    between atoms: O_2  and  C_3
REMARK    3  A    between atoms: C_6  and  C_7
REMARK    4  A    between atoms: C_10  and  N_11
REMARK    5  A    between atoms: C_12  and  C_13
REMARK    6  A    between atoms: C_15  and  O_16
REMARK    7  A    between atoms: O_16  and  C_17
REMARK    8  A    between atoms: C_18  and  O_19
REMARK    9  A    between atoms: O_19  and  C_20
REMARK   10  A    between atoms: C_21  and  O_22
REMARK   11  A    between atoms: O_22  and  C_23
REMARK   12  A    between atoms: C_26  and  O_27
REMARK   13  A    between atoms: O_27  and  C_28
REMARK                            x       y       z     vdW  Elec       q    Type
REMARK                         _______ _______ _______ _____ _____    ______ ____
ROOT
ATOM      1  C   UNL     1       0.957  12.219  19.039  0.00  0.00    +0.000 A 
ATOM      2  N   UNL     1       1.986  13.081  19.096  0.00  0.00    +0.000 NA
ATOM      3  O   UNL     1       1.457  14.333  18.888  0.00  0.00    +0.000 OA
ATOM      4  C   UNL     1       0.115  14.249  18.728  0.00  0.00    +0.000 A 
ATOM      5  C   UNL     1      -0.277  12.928  18.835  0.00  0.00    +0.000 A 
ENDROOT
BRANCH   1   9
ATOM      6  C   UNL     1       1.832   8.041  19.414  0.00  0.00    +0.000 A 
ATOM      7  C   UNL     1       2.013   8.699  18.191  0.00  0.00    +0.000 A 
ATOM      8  C   UNL     1       1.755  10.062  18.071  0.00  0.00    +0.000 A 
ATOM      9  C   UNL     1       1.210  10.779  19.137  0.00  0.00    +0.000 A 
ATOM     10  C   UNL     1       0.936  10.091  20.328  0.00  0.00    +0.000 A 
ATOM     11  C   UNL     1       1.243   8.728  20.483  0.00  0.00    +0.000 A 
BRANCH   6  13
ATOM     12  C   UNL     1       3.206   6.310  18.604  0.00  0.00    +0.000 C 
ATOM     13  O   UNL     1       2.227   6.737  19.554  0.00  0.00    +0.000 OA
ENDBRANCH   6  13
BRANCH  11  14
ATOM     14  O   UNL     1       0.925   8.270  21.733  0.00  0.00    +0.000 OA
ATOM     15  C   UNL     1       0.456   9.188  22.706  0.00  0.00    +0.000 C 
ENDBRANCH  11  14
ENDBRANCH   1   9
BRANCH   5  16
ATOM     16  C   UNL     1      -1.650  12.461  18.707  0.00  0.00    +0.000 A 
ATOM     17  C   UNL     1      -2.043  11.707  17.600  0.00  0.00    +0.000 A 
ATOM     18  C   UNL     1      -3.348  11.221  17.486  0.00  0.00    +0.000 A 
ATOM     19  C   UNL     1      -4.282  11.454  18.520  0.00  0.00    +0.000 A 
ATOM     20  C   UNL     1      -3.892  12.196  19.654  0.00  0.00    +0.000 A 
ATOM     21  C   UNL     1      -2.590  12.719  19.712  0.00  0.00    +0.000 A 
BRANCH  18  22
ATOM     22  O   UNL     1      -3.792  10.512  16.391  0.00  0.00    +0.000 OA
ATOM     23  C   UNL     1      -3.070  10.693  15.177  0.00  0.00    +0.000 C 
ENDBRANCH  18  22
BRANCH  19  24
ATOM     24  O   UNL     1      -5.549  10.974  18.279  0.00  0.00    +0.000 OA
ATOM     25  C   UNL     1      -6.522  11.903  17.823  0.00  0.00    +0.000 C 
ENDBRANCH  19  24
BRANCH  20  26
ATOM     26  O   UNL     1      -4.817  12.402  20.644  0.00  0.00    +0.000 OA
ATOM     27  C   UNL     1      -4.362  12.892  21.901  0.00  0.00    +0.000 C 
ENDBRANCH  20  26
ENDBRANCH   5  16
BRANCH   4  28
ATOM     28  N   UNL     1      -0.535  15.407  18.513  0.00  0.00    +0.000 N 
ATOM     29  H   UNL     1      -1.478  15.355  18.138  0.00  0.00    +0.000 HD
ATOM     30  H   UNL     1      -0.019  16.227  18.208  0.00  0.00    +0.000 HD
ENDBRANCH   4  28
TORSDOF 8
ENDMDL
MODEL 6
REMARK VINA RESULT:      -7.1      1.272      1.371
REMARK  Name = 
REMARK  13 active torsions:
REMARK  status: ('A' for Active; 'I' for Inactive)
REMARK    1  A    between atoms: C_1  and  O_2
REMARK    2  A    between atoms: O_2  and  C_3
REMARK    3  A    between atoms: C_6  and  C_7
REMARK    4  A    between atoms: C_10  and  N_11
REMARK    5  A    between atoms: C_12  and  C_13
REMARK    6  A    between atoms: C_15  and  O_16
REMARK    7  A    between atoms: O_16  and  C_17
REMARK    8  A    between atoms: C_18  and  O_19
REMARK    9  A    between atoms: O_19  and  C_20
REMARK   10  A    between atoms: C_21  and  O_22
REMARK   11  A    between atoms: O_22  and  C_23
REMARK   12  A    between atoms: C_26  and  O_27
REMARK   13  A    between atoms: O_27  and  C_28
REMARK                            x       y       z     vdW  Elec       q    Type
REMARK                         _______ _______ _______ _____ _____    ______ ____
ROOT
ATOM      1  C   UNL     1       2.643   5.399  19.942  0.00  0.00    +0.000 A 
ATOM      2  N   UNL     1       1.903   4.810  20.897  0.00  0.00    +0.000 NA
ATOM      3  O   UNL     1       2.382   3.528  21.025  0.00  0.00    +0.000 OA
ATOM      4  C   UNL     1       3.421   3.333  20.179  0.00  0.00    +0.000 A 
ATOM      5  C   UNL     1       3.658   4.496  19.470  0.00  0.00    +0.000 A 
ENDROOT
BRANCH   1   9
ATOM      6  C   UNL     1       1.534   9.336  18.664  0.00  0.00    +0.000 A 
ATOM      7  C   UNL     1       2.198   8.464  17.791  0.00  0.00    +0.000 A 
ATOM      8  C   UNL     1       2.536   7.174  18.193  0.00  0.00    +0.000 A 
ATOM      9  C   UNL     1       2.318   6.760  19.508  0.00  0.00    +0.000 A 
ATOM     10  C   UNL     1       1.746   7.673  20.405  0.00  0.00    +0.000 A 
ATOM     11  C   UNL     1       1.347   8.958  20.001  0.00  0.00    +0.000 A 
BRANCH   6  13
ATOM     12  C   UNL     1       1.986  11.632  18.413  0.00  0.00    +0.000 C 
ATOM     13  O   UNL     1       1.080  10.545  18.210  0.00  0.00    +0.000 OA
ENDBRANCH   6  13
BRANCH  11  14
ATOM     14  O   UNL     1       0.782   9.666  21.026  0.00  0.00    +0.000 OA
ATOM     15  C   UNL     1       0.955   9.210  22.358  0.00  0.00    +0.000 C 
ENDBRANCH  11  14
ENDBRANCH   1   9
BRANCH   5  16
ATOM     16  C   UNL     1       4.696   4.651  18.461  0.00  0.00    +0.000 A 
ATOM     17  C   UNL     1       5.791   5.485  18.693  0.00  0.00    +0.000 A 
ATOM     18  C   UNL     1       6.813   5.611  17.748  0.00  0.00    +0.000 A 
ATOM     19  C   UNL     1       6.770   4.857  16.555  0.00  0.00    +0.000 A 
ATOM     20  C   UNL     1       5.679   3.994  16.318  0.00  0.00    +0.000 A 
ATOM     21  C   UNL     1       4.641   3.932  17.261  0.00  0.00    +0.000 A 
BRANCH  18  22
ATOM     22  O   UNL     1       7.888   6.456  17.915  0.00  0.00    +0.000 OA
ATOM     23  C   UNL     1       7.667   7.835  17.636  0.00  0.00    +0.000 C 
ENDBRANCH  18  22
BRANCH  19  24
ATOM     24  O   UNL     1       7.800   5.097  15.676  0.00  0.00    +0.000 OA
ATOM     25  C   UNL     1       7.467   5.685  14.426  0.00  0.00    +0.000 C 
ENDBRANCH  19  24
BRANCH  20  26
ATOM     26  O   UNL     1       5.666   3.270  15.154  0.00  0.00    +0.000 OA
ATOM     27  C   UNL     1       5.080   3.862  13.999  0.00  0.00    +0.000 C 
ENDBRANCH  20  26
ENDBRANCH   5  16
BRANCH   4  28
ATOM     28  N   UNL     1       3.987   2.114  20.199  0.00  0.00    +0.000 N 
ATOM     29  H   UNL     1       4.769   1.947  19.570  0.00  0.00    +0.000 HD
ATOM     30  H   UNL     1       3.414   1.291  20.362  0.00  0.00    +0.000 HD
ENDBRANCH   4  28
TORSDOF 8
ENDMDL
MODEL 7
REMARK VINA RESULT:      -7.1      1.239      2.616
REMARK  Name = 
REMARK  13 active torsions:
REMARK  status: ('A' for Active; 'I' for Inactive)
REMARK    1  A    between atoms: C_1  and  O_2
REMARK    2  A    between atoms: O_2  and  C_3
REMARK    3  A    between atoms: C_6  and  C_7
REMARK    4  A    between atoms: C_10  and  N_11
REMARK    5  A    between atoms: C_12  and  C_13
REMARK    6  A    between atoms: C_15  and  O_16
REMARK    7  A    between atoms: O_16  and  C_17
REMARK    8  A    between atoms: C_18  and  O_19
REMARK    9  A    between atoms: O_19  and  C_20
REMARK   10  A    between atoms: C_21  and  O_22
REMARK   11  A    between atoms: O_22  and  C_23
REMARK   12  A    between atoms: C_26  and  O_27
REMARK   13  A    between atoms: O_27  and  C_28
REMARK                            x       y       z     vdW  Elec       q    Type
REMARK                         _______ _______ _______ _____ _____    ______ ____
ROOT
ATOM      1  C   UNL     1       2.013   4.579  19.363  0.00  0.00    +0.000 A 
ATOM      2  N   UNL     1       1.050   3.867  19.972  0.00  0.00    +0.000 NA
ATOM      3  O   UNL     1       1.328   2.544  19.724  0.00  0.00    +0.000 OA
ATOM      4  C   UNL     1       2.462   2.438  18.991  0.00  0.00    +0.000 A 
ATOM      5  C   UNL     1       2.967   3.700  18.743  0.00  0.00    +0.000 A 
ENDROOT
BRANCH   1   9
ATOM      6  C   UNL     1       1.660   8.850  19.381  0.00  0.00    +0.000 A 
ATOM      7  C   UNL     1       2.093   8.175  18.231  0.00  0.00    +0.000 A 
ATOM      8  C   UNL     1       2.184   6.786  18.213  0.00  0.00    +0.000 A 
ATOM      9  C   UNL     1       1.948   6.043  19.370  0.00  0.00    +0.000 A 
ATOM     10  C   UNL     1       1.614   6.732  20.544  0.00  0.00    +0.000 A 
ATOM     11  C   UNL     1       1.463   8.129  20.566  0.00  0.00    +0.000 A 
BRANCH   6  13
ATOM     12  C   UNL     1       1.997  10.857  18.199  0.00  0.00    +0.000 C 
ATOM     13  O   UNL     1       1.437  10.200  19.339  0.00  0.00    +0.000 OA
ENDBRANCH   6  13
BRANCH  11  14
ATOM     14  O   UNL     1       1.100   8.587  21.803  0.00  0.00    +0.000 OA
ATOM     15  C   UNL     1      -0.267   8.852  22.068  0.00  0.00    +0.000 C 
ENDBRANCH  11  14
ENDBRANCH   1   9
BRANCH   5  16
ATOM     16  C   UNL     1       4.173   3.970  17.975  0.00  0.00    +0.000 A 
ATOM     17  C   UNL     1       4.111   4.131  16.589  0.00  0.00    +0.000 A 
ATOM     18  C   UNL     1       5.256   4.429  15.846  0.00  0.00    +0.000 A 
ATOM     19  C   UNL     1       6.495   4.614  16.500  0.00  0.00    +0.000 A 
ATOM     20  C   UNL     1       6.567   4.475  17.902  0.00  0.00    +0.000 A 
ATOM     21  C   UNL     1       5.410   4.119  18.613  0.00  0.00    +0.000 A 
BRANCH  18  22
ATOM     22  O   UNL     1       5.250   4.551  14.474  0.00  0.00    +0.000 OA
ATOM     23  C   UNL     1       5.867   3.500  13.736  0.00  0.00    +0.000 C 
ENDBRANCH  18  22
BRANCH  19  24
ATOM     24  O   UNL     1       7.563   4.853  15.668  0.00  0.00    +0.000 OA
ATOM     25  C   UNL     1       7.847   6.207  15.344  0.00  0.00    +0.000 C 
ENDBRANCH  19  24
BRANCH  20  26
ATOM     26  O   UNL     1       7.781   4.665  18.511  0.00  0.00    +0.000 OA
ATOM     27  C   UNL     1       7.946   5.808  19.343  0.00  0.00    +0.000 C 
ENDBRANCH  20  26
ENDBRANCH   5  16
BRANCH   4  28
ATOM     28  N   UNL     1       2.852   1.191  18.673  0.00  0.00    +0.000 N 
ATOM     29  H   UNL     1       2.733   0.466  19.375  0.00  0.00    +0.000 HD
ATOM     30  H   UNL     1       3.663   1.050  18.076  0.00  0.00    +0.000 HD
ENDBRANCH   4  28
TORSDOF 8
ENDMDL
MODEL 8
REMARK VINA RESULT:      -7.0      1.209      2.030
REMARK  Name = 
REMARK  13 active torsions:
REMARK  status: ('A' for Active; 'I' for Inactive)
REMARK    1  A    between atoms: C_1  and  O_2
REMARK    2  A    between atoms: O_2  and  C_3
REMARK    3  A    between atoms: C_6  and  C_7
REMARK    4  A    between atoms: C_10  and  N_11
REMARK    5  A    between atoms: C_12  and  C_13
REMARK    6  A    between atoms: C_15  and  O_16
REMARK    7  A    between atoms: O_16  and  C_17
REMARK    8  A    between atoms: C_18  and  O_19
REMARK    9  A    between atoms: O_19  and  C_20
REMARK   10  A    between atoms: C_21  and  O_22
REMARK   11  A    between atoms: O_22  and  C_23
REMARK   12  A    between atoms: C_26  and  O_27
REMARK   13  A    between atoms: O_27  and  C_28
REMARK                            x       y       z     vdW  Elec       q    Type
REMARK                         _______ _______ _______ _____ _____    ______ ____
ROOT
ATOM      1  C   UNL     1       2.623   3.781  19.449  0.00  0.00    +0.000 A 
ATOM      2  N   UNL     1       1.955   2.787  20.058  0.00  0.00    +0.000 NA
ATOM      3  O   UNL     1       2.474   1.612  19.571  0.00  0.00    +0.000 OA
ATOM      4  C   UNL     1       3.468   1.874  18.689  0.00  0.00    +0.000 A 
ATOM      5  C   UNL     1       3.633   3.242  18.580  0.00  0.00    +0.000 A 
ENDROOT
BRANCH   1   9
ATOM      6  C   UNL     1       1.647   7.882  20.218  0.00  0.00    +0.000 A 
ATOM      7  C   UNL     1       1.181   6.868  21.065  0.00  0.00    +0.000 A 
ATOM      8  C   UNL     1       1.518   5.537  20.834  0.00  0.00    +0.000 A 
ATOM      9  C   UNL     1       2.237   5.173  19.695  0.00  0.00    +0.000 A 
ATOM     10  C   UNL     1       2.613   6.182  18.797  0.00  0.00    +0.000 A 
ATOM     11  C   UNL     1       2.330   7.536  19.044  0.00  0.00    +0.000 A 
BRANCH   6  13
ATOM     12  C   UNL     1       0.237   9.431  21.290  0.00  0.00    +0.000 C 
ATOM     13  O   UNL     1       1.430   9.195  20.538  0.00  0.00    +0.000 OA
ENDBRANCH   6  13
BRANCH  11  14
ATOM     14  O   UNL     1       2.817   8.350  18.058  0.00  0.00    +0.000 OA
ATOM     15  C   UNL     1       3.809   7.849  17.176  0.00  0.00    +0.000 C 
ENDBRANCH  11  14
ENDBRANCH   1   9
BRANCH   5  16
ATOM     16  C   UNL     1       4.608   3.889  17.713  0.00  0.00    +0.000 A 
ATOM     17  C   UNL     1       5.828   4.334  18.227  0.00  0.00    +0.000 A 
ATOM     18  C   UNL     1       6.787   4.921  17.398  0.00  0.00    +0.000 A 
ATOM     19  C   UNL     1       6.549   5.034  16.010  0.00  0.00    +0.000 A 
ATOM     20  C   UNL     1       5.329   4.568  15.475  0.00  0.00    +0.000 A 
ATOM     21  C   UNL     1       4.363   4.035  16.343  0.00  0.00    +0.000 A 
BRANCH  18  22
ATOM     22  O   UNL     1       7.984   5.416  17.868  0.00  0.00    +0.000 OA
ATOM     23  C   UNL     1       7.922   6.610  18.643  0.00  0.00    +0.000 C 
ENDBRANCH  18  22
BRANCH  19  24
ATOM     24  O   UNL     1       7.538   5.673  15.299  0.00  0.00    +0.000 OA
ATOM     25  C   UNL     1       7.935   5.088  14.065  0.00  0.00    +0.000 C 
ENDBRANCH  19  24
BRANCH  20  26
ATOM     26  O   UNL     1       5.127   4.685  14.125  0.00  0.00    +0.000 OA
ATOM     27  C   UNL     1       5.327   3.534  13.311  0.00  0.00    +0.000 C 
ENDBRANCH  20  26
ENDBRANCH   5  16
BRANCH   4  28
ATOM     28  N   UNL     1       4.068   0.808  18.130  0.00  0.00    +0.000 N 
ATOM     29  H   UNL     1       4.601   0.960  17.278  0.00  0.00    +0.000 HD
ATOM     30  H   UNL     1       3.623  -0.104  18.175  0.00  0.00    +0.000 HD
ENDBRANCH   4  28
TORSDOF 8
ENDMDL
MODEL 9
REMARK VINA RESULT:      -6.9      1.276      6.628
REMARK  Name = 
REMARK  13 active torsions:
REMARK  status: ('A' for Active; 'I' for Inactive)
REMARK    1  A    between atoms: C_1  and  O_2
REMARK    2  A    between atoms: O_2  and  C_3
REMARK    3  A    between atoms: C_6  and  C_7
REMARK    4  A    between atoms: C_10  and  N_11
REMARK    5  A    between atoms: C_12  and  C_13
REMARK    6  A    between atoms: C_15  and  O_16
REMARK    7  A    between atoms: O_16  and  C_17
REMARK    8  A    between atoms: C_18  and  O_19
REMARK    9  A    between atoms: O_19  and  C_20
REMARK   10  A    between atoms: C_21  and  O_22
REMARK   11  A    between atoms: O_22  and  C_23
REMARK   12  A    between atoms: C_26  and  O_27
REMARK   13  A    between atoms: O_27  and  C_28
REMARK                            x       y       z     vdW  Elec       q    Type
REMARK                         _______ _______ _______ _____ _____    ______ ____
ROOT
ATOM      1  C   UNL     1       3.583   3.350  18.945  0.00  0.00    +0.000 A 
ATOM      2  N   UNL     1       3.447   2.053  19.272  0.00  0.00    +0.000 NA
ATOM      3  O   UNL     1       2.443   1.991  20.208  0.00  0.00    +0.000 OA
ATOM      4  C   UNL     1       1.946   3.229  20.439  0.00  0.00    +0.000 A 
ATOM      5  C   UNL     1       2.614   4.145  19.648  0.00  0.00    +0.000 A 
ENDROOT
BRANCH   1   9
ATOM      6  C   UNL     1       6.641   4.700  16.264  0.00  0.00    +0.000 A 
ATOM      7  C   UNL     1       5.521   4.012  15.779  0.00  0.00    +0.000 A 
ATOM      8  C   UNL     1       4.512   3.595  16.642  0.00  0.00    +0.000 A 
ATOM      9  C   UNL     1       4.645   3.758  18.022  0.00  0.00    +0.000 A 
ATOM     10  C   UNL     1       5.816   4.356  18.509  0.00  0.00    +0.000 A 
ATOM     11  C   UNL     1       6.818   4.833  17.648  0.00  0.00    +0.000 A 
BRANCH   6  13
ATOM     12  C   UNL     1       7.267   4.971  14.012  0.00  0.00    +0.000 C 
ATOM     13  O   UNL     1       7.551   5.230  15.389  0.00  0.00    +0.000 OA
ENDBRANCH   6  13
BRANCH  11  14
ATOM     14  O   UNL     1       7.853   5.409  18.333  0.00  0.00    +0.000 OA
ATOM     15  C   UNL     1       7.906   6.822  18.444  0.00  0.00    +0.000 C 
ENDBRANCH  11  14
ENDBRANCH   1   9
BRANCH   5  16
ATOM     16  C   UNL     1       2.349   5.577  19.640  0.00  0.00    +0.000 A 
ATOM     17  C   UNL     1       2.604   6.339  18.498  0.00  0.00    +0.000 A 
ATOM     18  C   UNL     1       2.318   7.706  18.466  0.00  0.00    +0.000 A 
ATOM     19  C   UNL     1       1.722   8.330  19.585  0.00  0.00    +0.000 A 
ATOM     20  C   UNL     1       1.439   7.567  20.737  0.00  0.00    +0.000 A 
ATOM     21  C   UNL     1       1.791   6.208  20.758  0.00  0.00    +0.000 A 
BRANCH  18  22
ATOM     22  O   UNL     1       2.595   8.505  17.379  0.00  0.00    +0.000 OA
ATOM     23  C   UNL     1       3.730   8.148  16.595  0.00  0.00    +0.000 C 
ENDBRANCH  18  22
BRANCH  19  24
ATOM     24  O   UNL     1       1.531   9.687  19.462  0.00  0.00    +0.000 OA
ATOM     25  C   UNL     1       0.311  10.124  18.879  0.00  0.00    +0.000 C 
ENDBRANCH  19  24
BRANCH  20  26
ATOM     26  O   UNL     1       0.857   8.197  21.805  0.00  0.00    +0.000 OA
ATOM     27  C   UNL     1      -0.558   8.360  21.803  0.00  0.00    +0.000 C 
ENDBRANCH  20  26
ENDBRANCH   5  16
BRANCH   4  28
ATOM     28  N   UNL     1       0.952   3.315  21.341  0.00  0.00    +0.000 N 
ATOM     29  H   UNL     1       0.828   4.202  21.822  0.00  0.00    +0.000 HD
ATOM     30  H   UNL     1       0.711   2.507  21.908  0.00  0.00    +0.000 HD
ENDBRANCH   4  28
TORSDOF 8
ENDMDL
