MODEL 1
REMARK VINA RESULT:      -8.9      0.000      0.000
REMARK  Name = 
REMARK  7 active torsions:
REMARK  status: ('A' for Active; 'I' for Inactive)
REMARK    1  A    between atoms: C_1  and  O_2
REMARK    2  A    between atoms: O_2  and  C_3
REMARK    3  A    between atoms: C_8  and  C_9
REMARK    4  A    between atoms: C_9  and  C_10
REMARK    5  A    between atoms: N_12  and  C_13
REMARK    6  A    between atoms: C_22  and  C_23
REMARK    7  A    between atoms: C_27  and  C_28
REMARK                            x       y       z     vdW  Elec       q    Type
REMARK                         _______ _______ _______ _____ _____    ______ ____
ROOT
ATOM      1  C   UNL     1       2.429   7.531  18.734  0.00  0.00    +0.000 A 
ATOM      2  C   UNL     1       2.118   8.359  17.657  0.00  0.00    +0.000 A 
ATOM      3  C   UNL     1       1.319   9.488  17.850  0.00  0.00    +0.000 A 
ATOM      4  C   UNL     1       0.792   9.814  19.090  0.00  0.00    +0.000 A 
ATOM      5  N   UNL     1       0.216  11.015  19.255  0.00  0.00    +0.000 NA
ATOM      6  C   UNL     1      -0.250  11.314  20.477  0.00  0.00    +0.000 A 
ATOM      7  N   UNL     1       0.118  12.512  21.065  0.00  0.00    +0.000 N 
ATOM      8  C   UNL     1      -0.489  12.937  22.319  0.00  0.00    +0.000 C 
ATOM      9  C   UNL     1      -0.518  14.463  22.299  0.00  0.00    +0.000 C 
ATOM     10  C   UNL     1       0.798  15.132  21.838  0.00  0.00    +0.000 C 
ATOM     11  C   UNL     1       0.481  16.538  21.328  0.00  0.00    +0.000 C 
ATOM     12  C   UNL     1       1.570  14.367  20.742  0.00  0.00    +0.000 C 
ATOM     13  C   UNL     1       1.538  12.866  20.959  0.00  0.00    +0.000 C 
ATOM     14  C   UNL     1      -0.677  10.283  21.267  0.00  0.00    +0.000 A 
ATOM     15  C   UNL     1       0.334   9.334  21.383  0.00  0.00    +0.000 A 
ATOM     16  C   UNL     1       1.020   9.356  22.725  0.00  0.00    +0.000 C 
ATOM     17  C   UNL     1       0.996   8.943  20.181  0.00  0.00    +0.000 A 
ATOM     18  C   UNL     1       1.854   7.820  19.989  0.00  0.00    +0.000 A 
ENDROOT
BRANCH   1  21
ATOM     19  C   UNL     1       2.878   5.080  18.359  0.00  0.00    +0.000 C 
ATOM     20  O   UNL     1       1.736   4.700  18.098  0.00  0.00    +0.000 OA
ATOM     21  N   UNL     1       3.261   6.390  18.620  0.00  0.00    +0.000 N 
ATOM     22  H   UNL     1       4.261   6.555  18.642  0.00  0.00    +0.000 HD
BRANCH  19  23
ATOM     23  C   UNL     1       4.036   4.087  18.441  0.00  0.00    +0.000 C 
BRANCH  23  29
ATOM     24  C   UNL     1       6.449   4.552  17.717  0.00  0.00    +0.000 A 
ATOM     25  C   UNL     1       7.414   4.634  16.697  0.00  0.00    +0.000 A 
ATOM     26  C   UNL     1       7.048   4.514  15.362  0.00  0.00    +0.000 A 
ATOM     27  C   UNL     1       5.716   4.299  15.029  0.00  0.00    +0.000 A 
ATOM     28  C   UNL     1       4.757   4.180  16.028  0.00  0.00    +0.000 A 
ATOM     29  C   UNL     1       5.108   4.295  17.392  0.00  0.00    +0.000 A 
BRANCH  24  31
ATOM     30  C   UNL     1       7.640   5.742  19.370  0.00  0.00    +0.000 C 
ATOM     31  O   UNL     1       6.761   4.663  19.048  0.00  0.00    +0.000 OA
ENDBRANCH  24  31
ENDBRANCH  23  29
ENDBRANCH  19  23
ENDBRANCH   1  21
TORSDOF 4
ENDMDL
MODEL 2
REMARK VINA RESULT:      -8.2      0.836      1.707
REMARK  Name = 
REMARK  7 active torsions:
REMARK  status: ('A' for Active; 'I' for Inactive)
REMARK    1  A    between atoms: C_1  and  O_2
REMARK    2  A    between atoms: O_2  and  C_3
REMARK    3  A    between atoms: C_8  and  C_9
REMARK    4  A    between atoms: C_9  and  C_10
REMARK    5  A    between atoms: N_12  and  C_13
REMARK    6  A    between atoms: C_22  and  C_23
REMARK    7  A    between atoms: C_27  and  C_28
REMARK                            x       y       z     vdW  Elec       q    Type
REMARK                         _______ _______ _______ _____ _____    ______ ____
ROOT
ATOM      1  C   UNL     1       2.370   7.567  18.700  0.00  0.00    +0.000 A 
ATOM      2  C   UNL     1       2.129   8.431  17.634  0.00  0.00    +0.000 A 
ATOM      3  C   UNL     1       1.375   9.590  17.829  0.00  0.00    +0.000 A 
ATOM      4  C   UNL     1       0.822   9.912  19.058  0.00  0.00    +0.000 A 
ATOM      5  N   UNL     1       0.294  11.134  19.233  0.00  0.00    +0.000 NA
ATOM      6  C   UNL     1      -0.198  11.426  20.447  0.00  0.00    +0.000 A 
ATOM      7  N   UNL     1       0.204  12.594  21.074  0.00  0.00    +0.000 N 
ATOM      8  C   UNL     1      -0.425  13.017  22.317  0.00  0.00    +0.000 C 
ATOM      9  C   UNL     1      -0.386  14.543  22.333  0.00  0.00    +0.000 C 
ATOM     10  C   UNL     1       0.972  15.163  21.928  0.00  0.00    +0.000 C 
ATOM     11  C   UNL     1       0.733  16.592  21.442  0.00  0.00    +0.000 C 
ATOM     12  C   UNL     1       1.744  14.389  20.840  0.00  0.00    +0.000 C 
ATOM     13  C   UNL     1       1.640  12.886  21.020  0.00  0.00    +0.000 C 
ATOM     14  C   UNL     1      -0.694  10.398  21.199  0.00  0.00    +0.000 A 
ATOM     15  C   UNL     1       0.270   9.403  21.324  0.00  0.00    +0.000 A 
ATOM     16  C   UNL     1       0.913   9.365  22.687  0.00  0.00    +0.000 C 
ATOM     17  C   UNL     1       0.953   9.009  20.134  0.00  0.00    +0.000 A 
ATOM     18  C   UNL     1       1.768   7.854  19.944  0.00  0.00    +0.000 A 
ENDROOT
BRANCH   1  21
ATOM     19  C   UNL     1       2.740   5.129  18.187  0.00  0.00    +0.000 C 
ATOM     20  O   UNL     1       1.616   4.831  17.781  0.00  0.00    +0.000 OA
ATOM     21  N   UNL     1       3.154   6.393  18.586  0.00  0.00    +0.000 N 
ATOM     22  H   UNL     1       4.152   6.501  18.724  0.00  0.00    +0.000 HD
BRANCH  19  23
ATOM     23  C   UNL     1       3.834   4.070  18.311  0.00  0.00    +0.000 C 
BRANCH  23  29
ATOM     24  C   UNL     1       5.919   4.744  16.984  0.00  0.00    +0.000 A 
ATOM     25  C   UNL     1       7.186   5.354  16.944  0.00  0.00    +0.000 A 
ATOM     26  C   UNL     1       7.801   5.789  18.112  0.00  0.00    +0.000 A 
ATOM     27  C   UNL     1       7.156   5.630  19.331  0.00  0.00    +0.000 A 
ATOM     28  C   UNL     1       5.888   5.061  19.382  0.00  0.00    +0.000 A 
ATOM     29  C   UNL     1       5.242   4.616  18.207  0.00  0.00    +0.000 A 
BRANCH  24  31
ATOM     30  C   UNL     1       6.129   3.908  14.788  0.00  0.00    +0.000 C 
ATOM     31  O   UNL     1       5.271   4.299  15.860  0.00  0.00    +0.000 OA
ENDBRANCH  24  31
ENDBRANCH  23  29
ENDBRANCH  19  23
ENDBRANCH   1  21
TORSDOF 4
ENDMDL
MODEL 3
REMARK VINA RESULT:      -8.0      2.487      4.107
REMARK  Name = 
REMARK  7 active torsions:
REMARK  status: ('A' for Active; 'I' for Inactive)
REMARK    1  A    between atoms: C_1  and  O_2
REMARK    2  A    between atoms: O_2  and  C_3
REMARK    3  A    between atoms: C_8  and  C_9
REMARK    4  A    between atoms: C_9  and  C_10
REMARK    5  A    between atoms: N_12  and  C_13
REMARK    6  A    between atoms: C_22  and  C_23
REMARK    7  A    between atoms: C_27  and  C_28
REMARK                            x       y       z     vdW  Elec       q    Type
REMARK                         _______ _______ _______ _____ _____    ______ ____
ROOT
ATOM      1  C   UNL     1       0.841   9.289  20.470  0.00  0.00    +0.000 A 
ATOM      2  C   UNL     1       0.233   8.717  21.585  0.00  0.00    +0.000 A 
ATOM      3  C   UNL     1      -0.470   9.519  22.487  0.00  0.00    +0.000 A 
ATOM      4  C   UNL     1      -0.571  10.892  22.329  0.00  0.00    +0.000 A 
ATOM      5  N   UNL     1      -1.431  11.573  23.103  0.00  0.00    +0.000 NA
ATOM      6  C   UNL     1      -1.532  12.895  22.898  0.00  0.00    +0.000 A 
ATOM      7  N   UNL     1      -2.785  13.457  22.721  0.00  0.00    +0.000 N 
ATOM      8  C   UNL     1      -2.943  14.903  22.652  0.00  0.00    +0.000 C 
ATOM      9  C   UNL     1      -4.322  15.224  23.224  0.00  0.00    +0.000 C 
ATOM     10  C   UNL     1      -5.465  14.318  22.711  0.00  0.00    +0.000 C 
ATOM     11  C   UNL     1      -6.607  14.346  23.726  0.00  0.00    +0.000 C 
ATOM     12  C   UNL     1      -5.067  12.850  22.449  0.00  0.00    +0.000 C 
ATOM     13  C   UNL     1      -3.690  12.730  21.824  0.00  0.00    +0.000 C 
ATOM     14  C   UNL     1      -0.430  13.554  22.428  0.00  0.00    +0.000 A 
ATOM     15  C   UNL     1       0.017  12.944  21.260  0.00  0.00    +0.000 A 
ATOM     16  C   UNL     1      -0.309  13.730  20.016  0.00  0.00    +0.000 C 
ATOM     17  C   UNL     1       0.120  11.520  21.272  0.00  0.00    +0.000 A 
ATOM     18  C   UNL     1       0.793  10.692  20.326  0.00  0.00    +0.000 A 
ENDROOT
BRANCH   1  21
ATOM     19  C   UNL     1       2.054   7.251  19.621  0.00  0.00    +0.000 C 
ATOM     20  O   UNL     1       1.913   6.509  20.594  0.00  0.00    +0.000 OA
ATOM     21  N   UNL     1       1.540   8.535  19.495  0.00  0.00    +0.000 N 
ATOM     22  H   UNL     1       1.598   8.939  18.567  0.00  0.00    +0.000 HD
BRANCH  19  23
ATOM     23  C   UNL     1       2.866   6.806  18.406  0.00  0.00    +0.000 C 
BRANCH  23  29
ATOM     24  C   UNL     1       4.212   4.675  18.867  0.00  0.00    +0.000 A 
ATOM     25  C   UNL     1       4.306   3.272  18.842  0.00  0.00    +0.000 A 
ATOM     26  C   UNL     1       3.320   2.505  18.236  0.00  0.00    +0.000 A 
ATOM     27  C   UNL     1       2.221   3.127  17.656  0.00  0.00    +0.000 A 
ATOM     28  C   UNL     1       2.097   4.511  17.704  0.00  0.00    +0.000 A 
ATOM     29  C   UNL     1       3.087   5.310  18.319  0.00  0.00    +0.000 A 
BRANCH  24  31
ATOM     30  C   UNL     1       6.485   5.301  18.953  0.00  0.00    +0.000 C 
ATOM     31  O   UNL     1       5.159   5.475  19.454  0.00  0.00    +0.000 OA
ENDBRANCH  24  31
ENDBRANCH  23  29
ENDBRANCH  19  23
ENDBRANCH   1  21
TORSDOF 4
ENDMDL
MODEL 4
REMARK VINA RESULT:      -7.9      2.753      4.745
REMARK  Name = 
REMARK  7 active torsions:
REMARK  status: ('A' for Active; 'I' for Inactive)
REMARK    1  A    between atoms: C_1  and  O_2
REMARK    2  A    between atoms: O_2  and  C_3
REMARK    3  A    between atoms: C_8  and  C_9
REMARK    4  A    between atoms: C_9  and  C_10
REMARK    5  A    between atoms: N_12  and  C_13
REMARK    6  A    between atoms: C_22  and  C_23
REMARK    7  A    between atoms: C_27  and  C_28
REMARK                            x       y       z     vdW  Elec       q    Type
REMARK                         _______ _______ _______ _____ _____    ______ ____
ROOT
ATOM      1  C   UNL     1       0.942   9.117  21.699  0.00  0.00    +0.000 A 
ATOM      2  C   UNL     1       0.024   8.927  22.730  0.00  0.00    +0.000 A 
ATOM      3  C   UNL     1      -0.825   9.968  23.112  0.00  0.00    +0.000 A 
ATOM      4  C   UNL     1      -0.775  11.216  22.513  0.00  0.00    +0.000 A 
ATOM      5  N   UNL     1      -1.751  12.101  22.773  0.00  0.00    +0.000 NA
ATOM      6  C   UNL     1      -1.694  13.286  22.146  0.00  0.00    +0.000 A 
ATOM      7  N   UNL     1      -2.812  13.748  21.472  0.00  0.00    +0.000 N 
ATOM      8  C   UNL     1      -2.835  15.093  20.915  0.00  0.00    +0.000 C 
ATOM      9  C   UNL     1      -4.286  15.565  20.964  0.00  0.00    +0.000 C 
ATOM     10  C   UNL     1      -5.324  14.530  20.471  0.00  0.00    +0.000 C 
ATOM     11  C   UNL     1      -6.684  14.871  21.080  0.00  0.00    +0.000 C 
ATOM     12  C   UNL     1      -4.986  13.061  20.798  0.00  0.00    +0.000 C 
ATOM     13  C   UNL     1      -3.507  12.761  20.638  0.00  0.00    +0.000 C 
ATOM     14  C   UNL     1      -0.461  13.771  21.809  0.00  0.00    +0.000 A 
ATOM     15  C   UNL     1       0.225  12.823  21.056  0.00  0.00    +0.000 A 
ATOM     16  C   UNL     1       0.294  13.164  19.590  0.00  0.00    +0.000 C 
ATOM     17  C   UNL     1       0.212  11.479  21.540  0.00  0.00    +0.000 A 
ATOM     18  C   UNL     1       1.041  10.399  21.118  0.00  0.00    +0.000 A 
ENDROOT
BRANCH   1  21
ATOM     19  C   UNL     1       2.021   7.693  19.924  0.00  0.00    +0.000 C 
ATOM     20  O   UNL     1       1.541   8.218  18.919  0.00  0.00    +0.000 OA
ATOM     21  N   UNL     1       1.810   8.097  21.235  0.00  0.00    +0.000 N 
ATOM     22  H   UNL     1       2.415   7.670  21.927  0.00  0.00    +0.000 HD
BRANCH  19  23
ATOM     23  C   UNL     1       2.931   6.470  19.811  0.00  0.00    +0.000 C 
BRANCH  23  29
ATOM     24  C   UNL     1       2.373   4.477  18.300  0.00  0.00    +0.000 A 
ATOM     25  C   UNL     1       1.744   3.232  18.119  0.00  0.00    +0.000 A 
ATOM     26  C   UNL     1       0.910   2.709  19.099  0.00  0.00    +0.000 A 
ATOM     27  C   UNL     1       0.701   3.416  20.277  0.00  0.00    +0.000 A 
ATOM     28  C   UNL     1       1.345   4.631  20.484  0.00  0.00    +0.000 A 
ATOM     29  C   UNL     1       2.201   5.179  19.503  0.00  0.00    +0.000 A 
BRANCH  24  31
ATOM     30  C   UNL     1       4.278   4.194  16.938  0.00  0.00    +0.000 C 
ATOM     31  O   UNL     1       3.205   5.034  17.363  0.00  0.00    +0.000 OA
ENDBRANCH  24  31
ENDBRANCH  23  29
ENDBRANCH  19  23
ENDBRANCH   1  21
TORSDOF 4
ENDMDL
MODEL 5
REMARK VINA RESULT:      -7.8      1.075      1.795
REMARK  Name = 
REMARK  7 active torsions:
REMARK  status: ('A' for Active; 'I' for Inactive)
REMARK    1  A    between atoms: C_1  and  O_2
REMARK    2  A    between atoms: O_2  and  C_3
REMARK    3  A    between atoms: C_8  and  C_9
REMARK    4  A    between atoms: C_9  and  C_10
REMARK    5  A    between atoms: N_12  and  C_13
REMARK    6  A    between atoms: C_22  and  C_23
REMARK    7  A    between atoms: C_27  and  C_28
REMARK                            x       y       z     vdW  Elec       q    Type
REMARK                         _______ _______ _______ _____ _____    ______ ____
ROOT
ATOM      1  C   UNL     1       2.581   7.418  18.937  0.00  0.00    +0.000 A 
ATOM      2  C   UNL     1       2.418   8.217  17.807  0.00  0.00    +0.000 A 
ATOM      3  C   UNL     1       1.652   9.383  17.879  0.00  0.00    +0.000 A 
ATOM      4  C   UNL     1       1.014   9.775  19.045  0.00  0.00    +0.000 A 
ATOM      5  N   UNL     1       0.476  11.003  19.110  0.00  0.00    +0.000 NA
ATOM      6  C   UNL     1      -0.101  11.365  20.266  0.00  0.00    +0.000 A 
ATOM      7  N   UNL     1       0.256  12.569  20.850  0.00  0.00    +0.000 N 
ATOM      8  C   UNL     1      -0.459  13.063  22.019  0.00  0.00    +0.000 C 
ATOM      9  C   UNL     1      -0.421  14.587  21.947  0.00  0.00    +0.000 C 
ATOM     10  C   UNL     1       0.963  15.187  21.604  0.00  0.00    +0.000 C 
ATOM     11  C   UNL     1       0.760  16.584  21.018  0.00  0.00    +0.000 C 
ATOM     12  C   UNL     1       1.810  14.352  20.621  0.00  0.00    +0.000 C 
ATOM     13  C   UNL     1       1.693  12.862  20.881  0.00  0.00    +0.000 C 
ATOM     14  C   UNL     1      -0.650  10.381  21.041  0.00  0.00    +0.000 A 
ATOM     15  C   UNL     1       0.302   9.398  21.293  0.00  0.00    +0.000 A 
ATOM     16  C   UNL     1       0.847   9.443  22.698  0.00  0.00    +0.000 C 
ATOM     17  C   UNL     1       1.068   8.937  20.179  0.00  0.00    +0.000 A 
ATOM     18  C   UNL     1       1.893   7.776  20.116  0.00  0.00    +0.000 A 
ENDROOT
BRANCH   1  21
ATOM     19  C   UNL     1       3.258   5.150  19.798  0.00  0.00    +0.000 C 
ATOM     20  O   UNL     1       2.382   4.983  20.648  0.00  0.00    +0.000 OA
ATOM     21  N   UNL     1       3.371   6.242  18.948  0.00  0.00    +0.000 N 
ATOM     22  H   UNL     1       4.041   6.141  18.194  0.00  0.00    +0.000 HD
BRANCH  19  23
ATOM     23  C   UNL     1       4.369   4.119  19.605  0.00  0.00    +0.000 C 
BRANCH  23  29
ATOM     24  C   UNL     1       4.370   3.921  17.050  0.00  0.00    +0.000 A 
ATOM     25  C   UNL     1       5.031   4.097  15.821  0.00  0.00    +0.000 A 
ATOM     26  C   UNL     1       6.366   4.479  15.782  0.00  0.00    +0.000 A 
ATOM     27  C   UNL     1       7.055   4.701  16.967  0.00  0.00    +0.000 A 
ATOM     28  C   UNL     1       6.405   4.566  18.189  0.00  0.00    +0.000 A 
ATOM     29  C   UNL     1       5.046   4.182  18.252  0.00  0.00    +0.000 A 
BRANCH  24  31
ATOM     30  C   UNL     1       2.843   2.175  17.480  0.00  0.00    +0.000 C 
ATOM     31  O   UNL     1       3.054   3.546  17.141  0.00  0.00    +0.000 OA
ENDBRANCH  24  31
ENDBRANCH  23  29
ENDBRANCH  19  23
ENDBRANCH   1  21
TORSDOF 4
ENDMDL
MODEL 6
REMARK VINA RESULT:      -7.7      2.586      3.484
REMARK  Name = 
REMARK  7 active torsions:
REMARK  status: ('A' for Active; 'I' for Inactive)
REMARK    1  A    between atoms: C_1  and  O_2
REMARK    2  A    between atoms: O_2  and  C_3
REMARK    3  A    between atoms: C_8  and  C_9
REMARK    4  A    between atoms: C_9  and  C_10
REMARK    5  A    between atoms: N_12  and  C_13
REMARK    6  A    between atoms: C_22  and  C_23
REMARK    7  A    between atoms: C_27  and  C_28
REMARK                            x       y       z     vdW  Elec       q    Type
REMARK                         _______ _______ _______ _____ _____    ______ ____
ROOT
ATOM      1  C   UNL     1       1.619   9.455  17.904  0.00  0.00    +0.000 A 
ATOM      2  C   UNL     1       2.226  10.592  18.435  0.00  0.00    +0.000 A 
ATOM      3  C   UNL     1       1.444  11.670  18.856  0.00  0.00    +0.000 A 
ATOM      4  C   UNL     1       0.063  11.667  18.744  0.00  0.00    +0.000 A 
ATOM      5  N   UNL     1      -0.640  12.633  19.356  0.00  0.00    +0.000 NA
ATOM      6  C   UNL     1      -1.977  12.579  19.259  0.00  0.00    +0.000 A 
ATOM      7  N   UNL     1      -2.741  12.663  20.411  0.00  0.00    +0.000 N 
ATOM      8  C   UNL     1      -4.192  12.764  20.330  0.00  0.00    +0.000 C 
ATOM      9  C   UNL     1      -4.646  13.579  21.538  0.00  0.00    +0.000 C 
ATOM     10  C   UNL     1      -3.995  13.170  22.880  0.00  0.00    +0.000 C 
ATOM     11  C   UNL     1      -4.072  14.353  23.844  0.00  0.00    +0.000 C 
ATOM     12  C   UNL     1      -2.528  12.703  22.779  0.00  0.00    +0.000 C 
ATOM     13  C   UNL     1      -2.278  11.856  21.545  0.00  0.00    +0.000 C 
ATOM     14  C   UNL     1      -2.514  12.005  18.140  0.00  0.00    +0.000 A 
ATOM     15  C   UNL     1      -1.992  10.727  17.975  0.00  0.00    +0.000 A 
ATOM     16  C   UNL     1      -2.967   9.635  18.336  0.00  0.00    +0.000 C 
ATOM     17  C   UNL     1      -0.579  10.581  18.114  0.00  0.00    +0.000 A 
ATOM     18  C   UNL     1       0.219   9.461  17.733  0.00  0.00    +0.000 A 
ENDROOT
BRANCH   1  21
ATOM     19  C   UNL     1       2.735   7.225  18.263  0.00  0.00    +0.000 C 
ATOM     20  O   UNL     1       2.439   7.036  19.443  0.00  0.00    +0.000 OA
ATOM     21  N   UNL     1       2.344   8.311  17.490  0.00  0.00    +0.000 N 
ATOM     22  H   UNL     1       2.525   8.226  16.496  0.00  0.00    +0.000 HD
BRANCH  19  23
ATOM     23  C   UNL     1       3.621   6.236  17.507  0.00  0.00    +0.000 C 
BRANCH  23  29
ATOM     24  C   UNL     1       5.566   5.448  18.977  0.00  0.00    +0.000 A 
ATOM     25  C   UNL     1       6.944   5.433  19.256  0.00  0.00    +0.000 A 
ATOM     26  C   UNL     1       7.822   6.242  18.546  0.00  0.00    +0.000 A 
ATOM     27  C   UNL     1       7.338   7.068  17.540  0.00  0.00    +0.000 A 
ATOM     28  C   UNL     1       5.983   7.068  17.229  0.00  0.00    +0.000 A 
ATOM     29  C   UNL     1       5.073   6.250  17.935  0.00  0.00    +0.000 A 
BRANCH  24  31
ATOM     30  C   UNL     1       4.642   3.296  19.255  0.00  0.00    +0.000 C 
ATOM     31  O   UNL     1       4.661   4.668  19.649  0.00  0.00    +0.000 OA
ENDBRANCH  24  31
ENDBRANCH  23  29
ENDBRANCH  19  23
ENDBRANCH   1  21
TORSDOF 4
ENDMDL
MODEL 7
REMARK VINA RESULT:      -7.6      2.569      3.774
REMARK  Name = 
REMARK  7 active torsions:
REMARK  status: ('A' for Active; 'I' for Inactive)
REMARK    1  A    between atoms: C_1  and  O_2
REMARK    2  A    between atoms: O_2  and  C_3
REMARK    3  A    between atoms: C_8  and  C_9
REMARK    4  A    between atoms: C_9  and  C_10
REMARK    5  A    between atoms: N_12  and  C_13
REMARK    6  A    between atoms: C_22  and  C_23
REMARK    7  A    between atoms: C_27  and  C_28
REMARK                            x       y       z     vdW  Elec       q    Type
REMARK                         _______ _______ _______ _____ _____    ______ ____
ROOT
ATOM      1  C   UNL     1       1.450   9.618  18.014  0.00  0.00    +0.000 A 
ATOM      2  C   UNL     1       1.991  10.800  18.516  0.00  0.00    +0.000 A 
ATOM      3  C   UNL     1       1.150  11.847  18.898  0.00  0.00    +0.000 A 
ATOM      4  C   UNL     1      -0.228  11.769  18.776  0.00  0.00    +0.000 A 
ATOM      5  N   UNL     1      -0.986  12.714  19.354  0.00  0.00    +0.000 NA
ATOM      6  C   UNL     1      -2.318  12.587  19.249  0.00  0.00    +0.000 A 
ATOM      7  N   UNL     1      -3.096  12.664  20.392  0.00  0.00    +0.000 N 
ATOM      8  C   UNL     1      -4.548  12.686  20.296  0.00  0.00    +0.000 C 
ATOM      9  C   UNL     1      -5.055  13.511  21.476  0.00  0.00    +0.000 C 
ATOM     10  C   UNL     1      -4.397  13.176  22.835  0.00  0.00    +0.000 C 
ATOM     11  C   UNL     1      -4.544  14.382  23.762  0.00  0.00    +0.000 C 
ATOM     12  C   UNL     1      -2.906  12.784  22.758  0.00  0.00    +0.000 C 
ATOM     13  C   UNL     1      -2.601  11.916  21.552  0.00  0.00    +0.000 C 
ATOM     14  C   UNL     1      -2.813  11.953  18.143  0.00  0.00    +0.000 A 
ATOM     15  C   UNL     1      -2.224  10.699  18.019  0.00  0.00    +0.000 A 
ATOM     16  C   UNL     1      -3.143   9.569  18.406  0.00  0.00    +0.000 C 
ATOM     17  C   UNL     1      -0.806  10.632  18.173  0.00  0.00    +0.000 A 
ATOM     18  C   UNL     1       0.052   9.545  17.833  0.00  0.00    +0.000 A 
ENDROOT
BRANCH   1  21
ATOM     19  C   UNL     1       2.651   7.445  18.440  0.00  0.00    +0.000 C 
ATOM     20  O   UNL     1       2.327   7.258  19.613  0.00  0.00    +0.000 OA
ATOM     21  N   UNL     1       2.238   8.502  17.639  0.00  0.00    +0.000 N 
ATOM     22  H   UNL     1       2.453   8.412  16.653  0.00  0.00    +0.000 HD
BRANCH  19  23
ATOM     23  C   UNL     1       3.604   6.486  17.727  0.00  0.00    +0.000 C 
BRANCH  23  29
ATOM     24  C   UNL     1       4.350   4.295  18.825  0.00  0.00    +0.000 A 
ATOM     25  C   UNL     1       4.060   2.976  19.217  0.00  0.00    +0.000 A 
ATOM     26  C   UNL     1       2.867   2.370  18.843  0.00  0.00    +0.000 A 
ATOM     27  C   UNL     1       1.944   3.076  18.082  0.00  0.00    +0.000 A 
ATOM     28  C   UNL     1       2.202   4.393  17.717  0.00  0.00    +0.000 A 
ATOM     29  C   UNL     1       3.406   5.030  18.090  0.00  0.00    +0.000 A 
BRANCH  24  31
ATOM     30  C   UNL     1       6.608   4.709  18.283  0.00  0.00    +0.000 C 
ATOM     31  O   UNL     1       5.512   4.936  19.170  0.00  0.00    +0.000 OA
ENDBRANCH  24  31
ENDBRANCH  23  29
ENDBRANCH  19  23
ENDBRANCH   1  21
TORSDOF 4
ENDMDL
MODEL 8
REMARK VINA RESULT:      -7.6      2.223      3.905
REMARK  Name = 
REMARK  7 active torsions:
REMARK  status: ('A' for Active; 'I' for Inactive)
REMARK    1  A    between atoms: C_1  and  O_2
REMARK    2  A    between atoms: O_2  and  C_3
REMARK    3  A    between atoms: C_8  and  C_9
REMARK    4  A    between atoms: C_9  and  C_10
REMARK    5  A    between atoms: N_12  and  C_13
REMARK    6  A    between atoms: C_22  and  C_23
REMARK    7  A    between atoms: C_27  and  C_28
REMARK                            x       y       z     vdW  Elec       q    Type
REMARK                         _______ _______ _______ _____ _____    ______ ____
ROOT
ATOM      1  C   UNL     1       1.152   9.065  20.040  0.00  0.00    +0.000 A 
ATOM      2  C   UNL     1       0.719   8.622  21.289  0.00  0.00    +0.000 A 
ATOM      3  C   UNL     1       0.169   9.526  22.200  0.00  0.00    +0.000 A 
ATOM      4  C   UNL     1       0.055  10.878  21.919  0.00  0.00    +0.000 A 
ATOM      5  N   UNL     1      -0.670  11.653  22.741  0.00  0.00    +0.000 NA
ATOM      6  C   UNL     1      -0.792  12.950  22.419  0.00  0.00    +0.000 A 
ATOM      7  N   UNL     1      -2.054  13.520  22.379  0.00  0.00    +0.000 N 
ATOM      8  C   UNL     1      -2.210  14.955  22.186  0.00  0.00    +0.000 C 
ATOM      9  C   UNL     1      -3.482  15.363  22.926  0.00  0.00    +0.000 C 
ATOM     10  C   UNL     1      -4.697  14.436  22.689  0.00  0.00    +0.000 C 
ATOM     11  C   UNL     1      -5.668  14.592  23.858  0.00  0.00    +0.000 C 
ATOM     12  C   UNL     1      -4.355  12.941  22.522  0.00  0.00    +0.000 C 
ATOM     13  C   UNL     1      -3.091  12.727  21.710  0.00  0.00    +0.000 C 
ATOM     14  C   UNL     1       0.228  13.533  21.720  0.00  0.00    +0.000 A 
ATOM     15  C   UNL     1       0.486  12.799  20.567  0.00  0.00    +0.000 A 
ATOM     16  C   UNL     1      -0.022  13.463  19.313  0.00  0.00    +0.000 C 
ATOM     17  C   UNL     1       0.580  11.381  20.710  0.00  0.00    +0.000 A 
ATOM     18  C   UNL     1       1.093  10.447  19.762  0.00  0.00    +0.000 A 
ENDROOT
BRANCH   1  21
ATOM     19  C   UNL     1       2.432   7.045  19.248  0.00  0.00    +0.000 C 
ATOM     20  O   UNL     1       2.686   6.524  20.335  0.00  0.00    +0.000 OA
ATOM     21  N   UNL     1       1.688   8.201  19.053  0.00  0.00    +0.000 N 
ATOM     22  H   UNL     1       1.425   8.394  18.093  0.00  0.00    +0.000 HD
BRANCH  19  23
ATOM     23  C   UNL     1       2.956   6.440  17.946  0.00  0.00    +0.000 C 
BRANCH  23  29
ATOM     24  C   UNL     1       3.985   4.113  17.642  0.00  0.00    +0.000 A 
ATOM     25  C   UNL     1       3.854   2.714  17.697  0.00  0.00    +0.000 A 
ATOM     26  C   UNL     1       2.619   2.125  17.940  0.00  0.00    +0.000 A 
ATOM     27  C   UNL     1       1.501   2.925  18.141  0.00  0.00    +0.000 A 
ATOM     28  C   UNL     1       1.622   4.311  18.124  0.00  0.00    +0.000 A 
ATOM     29  C   UNL     1       2.869   4.930  17.883  0.00  0.00    +0.000 A 
BRANCH  24  31
ATOM     30  C   UNL     1       5.802   4.404  16.165  0.00  0.00    +0.000 C 
ATOM     31  O   UNL     1       5.181   4.741  17.406  0.00  0.00    +0.000 OA
ENDBRANCH  24  31
ENDBRANCH  23  29
ENDBRANCH  19  23
ENDBRANCH   1  21
TORSDOF 4
ENDMDL
MODEL 9
REMARK VINA RESULT:      -7.5      2.434      4.072
REMARK  Name = 
REMARK  7 active torsions:
REMARK  status: ('A' for Active; 'I' for Inactive)
REMARK    1  A    between atoms: C_1  and  O_2
REMARK    2  A    between atoms: O_2  and  C_3
REMARK    3  A    between atoms: C_8  and  C_9
REMARK    4  A    between atoms: C_9  and  C_10
REMARK    5  A    between atoms: N_12  and  C_13
REMARK    6  A    between atoms: C_22  and  C_23
REMARK    7  A    between atoms: C_27  and  C_28
REMARK                            x       y       z     vdW  Elec       q    Type
REMARK                         _______ _______ _______ _____ _____    ______ ____
ROOT
ATOM      1  C   UNL     1       1.254   8.846  20.407  0.00  0.00    +0.000 A 
ATOM      2  C   UNL     1       0.408   8.342  21.393  0.00  0.00    +0.000 A 
ATOM      3  C   UNL     1      -0.413   9.206  22.120  0.00  0.00    +0.000 A 
ATOM      4  C   UNL     1      -0.405  10.577  21.915  0.00  0.00    +0.000 A 
ATOM      5  N   UNL     1      -1.362  11.325  22.488  0.00  0.00    +0.000 NA
ATOM      6  C   UNL     1      -1.348  12.643  22.238  0.00  0.00    +0.000 A 
ATOM      7  N   UNL     1      -2.509  13.260  21.805  0.00  0.00    +0.000 N 
ATOM      8  C   UNL     1      -2.571  14.709  21.673  0.00  0.00    +0.000 C 
ATOM      9  C   UNL     1      -4.015  15.116  21.955  0.00  0.00    +0.000 C 
ATOM     10  C   UNL     1      -5.084  14.251  21.246  0.00  0.00    +0.000 C 
ATOM     11  C   UNL     1      -6.399  14.369  22.016  0.00  0.00    +0.000 C 
ATOM     12  C   UNL     1      -4.724  12.758  21.101  0.00  0.00    +0.000 C 
ATOM     13  C   UNL     1      -3.259  12.549  20.763  0.00  0.00    +0.000 C 
ATOM     14  C   UNL     1      -0.141  13.231  21.979  0.00  0.00    +0.000 A 
ATOM     15  C   UNL     1       0.492  12.562  20.937  0.00  0.00    +0.000 A 
ATOM     16  C   UNL     1       0.461  13.321  19.636  0.00  0.00    +0.000 C 
ATOM     17  C   UNL     1       0.513  11.135  21.001  0.00  0.00    +0.000 A 
ATOM     18  C   UNL     1       1.312  10.244  20.225  0.00  0.00    +0.000 A 
ENDROOT
BRANCH   1  21
ATOM     19  C   UNL     1       2.239   8.059  18.226  0.00  0.00    +0.000 C 
ATOM     20  O   UNL     1       1.724   8.876  17.462  0.00  0.00    +0.000 OA
ATOM     21  N   UNL     1       2.088   8.027  19.606  0.00  0.00    +0.000 N 
ATOM     22  H   UNL     1       2.716   7.403  20.100  0.00  0.00    +0.000 HD
BRANCH  19  23
ATOM     23  C   UNL     1       3.127   6.936  17.692  0.00  0.00    +0.000 C 
BRANCH  23  29
ATOM     24  C   UNL     1       3.625   4.968  19.255  0.00  0.00    +0.000 A 
ATOM     25  C   UNL     1       3.231   3.747  19.829  0.00  0.00    +0.000 A 
ATOM     26  C   UNL     1       2.077   3.101  19.402  0.00  0.00    +0.000 A 
ATOM     27  C   UNL     1       1.297   3.672  18.405  0.00  0.00    +0.000 A 
ATOM     28  C   UNL     1       1.656   4.897  17.853  0.00  0.00    +0.000 A 
ATOM     29  C   UNL     1       2.822   5.573  18.276  0.00  0.00    +0.000 A 
BRANCH  24  31
ATOM     30  C   UNL     1       5.976   5.122  19.118  0.00  0.00    +0.000 C 
ATOM     31  O   UNL     1       4.754   5.643  19.643  0.00  0.00    +0.000 OA
ENDBRANCH  24  31
ENDBRANCH  23  29
ENDBRANCH  19  23
ENDBRANCH   1  21
TORSDOF 4
ENDMDL
