MODEL 1
REMARK VINA RESULT:      -9.6      0.000      0.000
REMARK  Name = 
REMARK  9 active torsions:
REMARK  status: ('A' for Active; 'I' for Inactive)
REMARK    1  A    between atoms: C_1  and  C_2
REMARK    2  A    between atoms: C_5  and  C_6
REMARK    3  A    between atoms: C_7  and  C_8
REMARK    4  A    between atoms: C_8  and  O_9
REMARK    5  A    between atoms: C_8  and  C_10
REMARK    6  A    between atoms: C_8  and  C_28
REMARK    7  A    between atoms: C_13  and  C_14
REMARK    8  A    between atoms: C_16  and  C_17
REMARK    9  A    between atoms: N_32  and  C_33
REMARK                            x       y       z     vdW  Elec       q    Type
REMARK                         _______ _______ _______ _____ _____    ______ ____
ROOT
ATOM      1  C   UNL     1       2.951   5.569  19.289  0.00  0.00    +0.000 C 
ENDROOT
BRANCH   1   2
ATOM      2  C   UNL     1       2.368   7.011  19.143  0.00  0.00    +0.000 A 
ATOM      3  C   UNL     1       2.565   7.658  17.917  0.00  0.00    +0.000 A 
ATOM      4  C   UNL     1       2.181   8.973  17.769  0.00  0.00    +0.000 A 
ATOM      5  C   UNL     1       1.605   9.710  18.842  0.00  0.00    +0.000 A 
ATOM      6  C   UNL     1       1.337   9.146  20.175  0.00  0.00    +0.000 A 
ATOM      7  C   UNL     1       1.737   7.770  20.255  0.00  0.00    +0.000 A 
BRANCH   6   8
ATOM      8  C   UNL     1       0.573  10.025  21.292  0.00  0.00    +0.000 A 
ATOM      9  C   UNL     1      -0.108   9.167  22.160  0.00  0.00    +0.000 A 
ATOM     10  C   UNL     1      -0.387   9.568  23.435  0.00  0.00    +0.000 A 
ATOM     11  C   UNL     1      -1.303  10.551  23.322  0.00  0.00    +0.000 A 
ATOM     12  C   UNL     1      -0.917  11.613  22.532  0.00  0.00    +0.000 A 
ATOM     13  C   UNL     1      -1.666  12.769  22.806  0.00  0.00    +0.000 A 
ATOM     14  C   UNL     1      -1.176  14.007  22.480  0.00  0.00    +0.000 A 
ATOM     15  C   UNL     1       0.050  14.051  21.834  0.00  0.00    +0.000 A 
ATOM     16  C   UNL     1       0.712  12.859  21.380  0.00  0.00    +0.000 A 
ATOM     17  C   UNL     1       0.229  11.490  21.631  0.00  0.00    +0.000 A 
ENDBRANCH   6   8
BRANCH   5  18
ATOM     18  C   UNL     1       1.332  11.048  18.375  0.00  0.00    +0.000 C 
ATOM     19  N   UNL     1       1.164  12.155  18.042  0.00  0.00    +0.000 NA
ENDBRANCH   5  18
ENDBRANCH   1   2
BRANCH   1  20
ATOM     20  C   UNL     1       2.003   4.338  19.200  0.00  0.00    +0.000 A 
ATOM     21  C   UNL     1       1.417   3.754  18.071  0.00  0.00    +0.000 A 
ATOM     22  N   UNL     1       0.751   2.591  18.351  0.00  0.00    +0.000 NA
ATOM     23  C   UNL     1       0.912   2.414  19.630  0.00  0.00    +0.000 A 
ATOM     24  N   UNL     1       1.653   3.431  20.197  0.00  0.00    +0.000 N 
ATOM     25  C   UNL     1       2.009   3.420  21.595  0.00  0.00    +0.000 C 
ENDBRANCH   1  20
BRANCH   1  27
ATOM     26  C   UNL     1       4.716   5.196  17.277  0.00  0.00    +0.000 C 
ATOM     27  C   UNL     1       3.978   5.366  18.228  0.00  0.00    +0.000 C 
BRANCH  26  32
ATOM     28  C   UNL     1       7.988   4.861  12.651  0.00  0.00    +0.000 C 
ATOM     29  C   UNL     1       7.101   4.864  13.861  0.00  0.00    +0.000 A 
ATOM     30  C   UNL     1       5.880   4.193  13.870  0.00  0.00    +0.000 A 
ATOM     31  C   UNL     1       5.068   4.280  15.009  0.00  0.00    +0.000 A 
ATOM     32  C   UNL     1       5.503   5.026  16.104  0.00  0.00    +0.000 A 
ATOM     33  C   UNL     1       6.732   5.656  16.006  0.00  0.00    +0.000 A 
ATOM     34  N   UNL     1       7.537   5.590  14.918  0.00  0.00    +0.000 NA
ENDBRANCH  26  32
ENDBRANCH   1  27
BRANCH   1  35
ATOM     35  O   UNL     1       3.575   5.491  20.561  0.00  0.00    +0.000 OA
ATOM     36  H   UNL     1       2.969   4.983  21.120  0.00  0.00    +0.000 HD
ENDBRANCH   1  35
TORSDOF 7
ENDMDL
MODEL 2
REMARK VINA RESULT:      -9.5      3.210      5.985
REMARK  Name = 
REMARK  9 active torsions:
REMARK  status: ('A' for Active; 'I' for Inactive)
REMARK    1  A    between atoms: C_1  and  C_2
REMARK    2  A    between atoms: C_5  and  C_6
REMARK    3  A    between atoms: C_7  and  C_8
REMARK    4  A    between atoms: C_8  and  O_9
REMARK    5  A    between atoms: C_8  and  C_10
REMARK    6  A    between atoms: C_8  and  C_28
REMARK    7  A    between atoms: C_13  and  C_14
REMARK    8  A    between atoms: C_16  and  C_17
REMARK    9  A    between atoms: N_32  and  C_33
REMARK                            x       y       z     vdW  Elec       q    Type
REMARK                         _______ _______ _______ _____ _____    ______ ____
ROOT
ATOM      1  C   UNL     1       6.846   5.417  17.413  0.00  0.00    +0.000 C 
ENDROOT
BRANCH   1   2
ATOM      2  C   UNL     1       5.507   5.402  18.217  0.00  0.00    +0.000 A 
ATOM      3  C   UNL     1       5.131   4.191  18.808  0.00  0.00    +0.000 A 
ATOM      4  C   UNL     1       3.904   4.083  19.426  0.00  0.00    +0.000 A 
ATOM      5  C   UNL     1       2.987   5.171  19.463  0.00  0.00    +0.000 A 
ATOM      6  C   UNL     1       3.263   6.498  18.889  0.00  0.00    +0.000 A 
ATOM      7  C   UNL     1       4.563   6.549  18.284  0.00  0.00    +0.000 A 
BRANCH   6   8
ATOM      8  C   UNL     1       2.209   7.704  19.083  0.00  0.00    +0.000 A 
ATOM      9  C   UNL     1       2.143   8.447  17.901  0.00  0.00    +0.000 A 
ATOM     10  C   UNL     1       1.017   9.159  17.605  0.00  0.00    +0.000 A 
ATOM     11  C   UNL     1       0.966  10.162  18.506  0.00  0.00    +0.000 A 
ATOM     12  C   UNL     1       0.975   9.755  19.824  0.00  0.00    +0.000 A 
ATOM     13  C   UNL     1       0.470  10.747  20.681  0.00  0.00    +0.000 A 
ATOM     14  C   UNL     1      -0.016  10.413  21.918  0.00  0.00    +0.000 A 
ATOM     15  C   UNL     1       0.062   9.080  22.289  0.00  0.00    +0.000 A 
ATOM     16  C   UNL     1       0.760   8.109  21.491  0.00  0.00    +0.000 A 
ATOM     17  C   UNL     1       1.367   8.391  20.177  0.00  0.00    +0.000 A 
ENDBRANCH   6   8
BRANCH   5  18
ATOM     18  C   UNL     1       1.801   4.737  20.161  0.00  0.00    +0.000 C 
ATOM     19  N   UNL     1       0.801   4.407  20.667  0.00  0.00    +0.000 NA
ENDBRANCH   5  18
ENDBRANCH   1   2
BRANCH   1  20
ATOM     20  C   UNL     1       6.831   5.152  15.880  0.00  0.00    +0.000 A 
ATOM     21  C   UNL     1       7.646   5.699  14.881  0.00  0.00    +0.000 A 
ATOM     22  N   UNL     1       7.447   5.129  13.652  0.00  0.00    +0.000 NA
ATOM     23  C   UNL     1       6.536   4.220  13.849  0.00  0.00    +0.000 A 
ATOM     24  N   UNL     1       6.124   4.187  15.165  0.00  0.00    +0.000 N 
ATOM     25  C   UNL     1       5.160   3.221  15.634  0.00  0.00    +0.000 C 
ENDBRANCH   1  20
BRANCH   1  27
ATOM     26  C   UNL     1       7.908   7.870  17.812  0.00  0.00    +0.000 C 
ATOM     27  C   UNL     1       7.486   6.752  17.587  0.00  0.00    +0.000 C 
BRANCH  26  32
ATOM     28  C   UNL     1       9.628  13.182  18.830  0.00  0.00    +0.000 C 
ATOM     29  C   UNL     1       9.173  11.764  18.649  0.00  0.00    +0.000 A 
ATOM     30  C   UNL     1       9.666  10.734  19.447  0.00  0.00    +0.000 A 
ATOM     31  C   UNL     1       9.247   9.420  19.192  0.00  0.00    +0.000 A 
ATOM     32  C   UNL     1       8.345   9.179  18.157  0.00  0.00    +0.000 A 
ATOM     33  C   UNL     1       7.905  10.265  17.420  0.00  0.00    +0.000 A 
ATOM     34  N   UNL     1       8.294  11.544  17.642  0.00  0.00    +0.000 NA
ENDBRANCH  26  32
ENDBRANCH   1  27
BRANCH   1  35
ATOM     35  O   UNL     1       7.688   4.422  17.973  0.00  0.00    +0.000 OA
ATOM     36  H   UNL     1       7.824   3.767  17.273  0.00  0.00    +0.000 HD
ENDBRANCH   1  35
TORSDOF 7
ENDMDL
MODEL 3
REMARK VINA RESULT:      -8.7      0.560      1.072
REMARK  Name = 
REMARK  9 active torsions:
REMARK  status: ('A' for Active; 'I' for Inactive)
REMARK    1  A    between atoms: C_1  and  C_2
REMARK    2  A    between atoms: C_5  and  C_6
REMARK    3  A    between atoms: C_7  and  C_8
REMARK    4  A    between atoms: C_8  and  O_9
REMARK    5  A    between atoms: C_8  and  C_10
REMARK    6  A    between atoms: C_8  and  C_28
REMARK    7  A    between atoms: C_13  and  C_14
REMARK    8  A    between atoms: C_16  and  C_17
REMARK    9  A    between atoms: N_32  and  C_33
REMARK                            x       y       z     vdW  Elec       q    Type
REMARK                         _______ _______ _______ _____ _____    ______ ____
ROOT
ATOM      1  C   UNL     1       3.304   5.629  19.209  0.00  0.00    +0.000 C 
ENDROOT
BRANCH   1   2
ATOM      2  C   UNL     1       2.540   6.985  19.070  0.00  0.00    +0.000 A 
ATOM      3  C   UNL     1       2.540   7.592  17.809  0.00  0.00    +0.000 A 
ATOM      4  C   UNL     1       1.989   8.844  17.652  0.00  0.00    +0.000 A 
ATOM      5  C   UNL     1       1.432   9.559  18.751  0.00  0.00    +0.000 A 
ATOM      6  C   UNL     1       1.361   9.031  20.123  0.00  0.00    +0.000 A 
ATOM      7  C   UNL     1       1.930   7.717  20.211  0.00  0.00    +0.000 A 
BRANCH   6   8
ATOM      8  C   UNL     1       0.605   9.867  21.278  0.00  0.00    +0.000 A 
ATOM      9  C   UNL     1       0.023   8.973  22.181  0.00  0.00    +0.000 A 
ATOM     10  C   UNL     1      -0.213   9.361  23.468  0.00  0.00    +0.000 A 
ATOM     11  C   UNL     1      -1.191  10.287  23.403  0.00  0.00    +0.000 A 
ATOM     12  C   UNL     1      -0.910  11.368  22.593  0.00  0.00    +0.000 A 
ATOM     13  C   UNL     1      -1.712  12.478  22.906  0.00  0.00    +0.000 A 
ATOM     14  C   UNL     1      -1.315  13.742  22.554  0.00  0.00    +0.000 A 
ATOM     15  C   UNL     1      -0.128  13.857  21.845  0.00  0.00    +0.000 A 
ATOM     16  C   UNL     1       0.579  12.705  21.357  0.00  0.00    +0.000 A 
ATOM     17  C   UNL     1       0.192  11.310  21.634  0.00  0.00    +0.000 A 
ENDBRANCH   6   8
BRANCH   5  18
ATOM     18  C   UNL     1       0.957  10.832  18.265  0.00  0.00    +0.000 C 
ATOM     19  N   UNL     1       0.608  11.850  17.809  0.00  0.00    +0.000 NA
ENDBRANCH   5  18
ENDBRANCH   1   2
BRANCH   1  20
ATOM     20  C   UNL     1       2.505   4.300  19.340  0.00  0.00    +0.000 A 
ATOM     21  C   UNL     1       2.411   3.430  20.433  0.00  0.00    +0.000 A 
ATOM     22  N   UNL     1       1.500   2.425  20.244  0.00  0.00    +0.000 NA
ATOM     23  C   UNL     1       1.002   2.645  19.061  0.00  0.00    +0.000 A 
ATOM     24  N   UNL     1       1.566   3.754  18.467  0.00  0.00    +0.000 N 
ATOM     25  C   UNL     1       1.130   4.227  17.175  0.00  0.00    +0.000 C 
ENDBRANCH   1  20
BRANCH   1  27
ATOM     26  C   UNL     1       4.810   5.228  17.002  0.00  0.00    +0.000 C 
ATOM     27  C   UNL     1       4.182   5.458  18.017  0.00  0.00    +0.000 C 
BRANCH  26  32
ATOM     28  C   UNL     1       7.567   4.331  12.122  0.00  0.00    +0.000 C 
ATOM     29  C   UNL     1       6.810   4.484  13.408  0.00  0.00    +0.000 A 
ATOM     30  C   UNL     1       5.559   3.898  13.590  0.00  0.00    +0.000 A 
ATOM     31  C   UNL     1       4.874   4.124  14.793  0.00  0.00    +0.000 A 
ATOM     32  C   UNL     1       5.462   4.919  15.776  0.00  0.00    +0.000 A 
ATOM     33  C   UNL     1       6.710   5.456  15.508  0.00  0.00    +0.000 A 
ATOM     34  N   UNL     1       7.394   5.256  14.356  0.00  0.00    +0.000 NA
ENDBRANCH  26  32
ENDBRANCH   1  27
BRANCH   1  35
ATOM     35  O   UNL     1       4.111   5.715  20.372  0.00  0.00    +0.000 OA
ATOM     36  H   UNL     1       5.008   5.483  20.088  0.00  0.00    +0.000 HD
ENDBRANCH   1  35
TORSDOF 7
ENDMDL
MODEL 4
REMARK VINA RESULT:      -8.5      3.013      9.210
REMARK  Name = 
REMARK  9 active torsions:
REMARK  status: ('A' for Active; 'I' for Inactive)
REMARK    1  A    between atoms: C_1  and  C_2
REMARK    2  A    between atoms: C_5  and  C_6
REMARK    3  A    between atoms: C_7  and  C_8
REMARK    4  A    between atoms: C_8  and  O_9
REMARK    5  A    between atoms: C_8  and  C_10
REMARK    6  A    between atoms: C_8  and  C_28
REMARK    7  A    between atoms: C_13  and  C_14
REMARK    8  A    between atoms: C_16  and  C_17
REMARK    9  A    between atoms: N_32  and  C_33
REMARK                            x       y       z     vdW  Elec       q    Type
REMARK                         _______ _______ _______ _____ _____    ______ ____
ROOT
ATOM      1  C   UNL     1       0.010  10.492  19.628  0.00  0.00    +0.000 C 
ENDROOT
BRANCH   1   2
ATOM      2  C   UNL     1       1.095   9.485  19.128  0.00  0.00    +0.000 A 
ATOM      3  C   UNL     1       2.009   9.951  18.177  0.00  0.00    +0.000 A 
ATOM      4  C   UNL     1       2.911   9.078  17.610  0.00  0.00    +0.000 A 
ATOM      5  C   UNL     1       2.928   7.696  17.949  0.00  0.00    +0.000 A 
ATOM      6  C   UNL     1       2.029   7.081  18.938  0.00  0.00    +0.000 A 
ATOM      7  C   UNL     1       1.133   8.047  19.507  0.00  0.00    +0.000 A 
BRANCH   6   8
ATOM      8  C   UNL     1       2.201   5.528  19.341  0.00  0.00    +0.000 A 
ATOM      9  C   UNL     1       2.130   5.408  20.732  0.00  0.00    +0.000 A 
ATOM     10  C   UNL     1       1.733   4.229  21.295  0.00  0.00    +0.000 A 
ATOM     11  C   UNL     1       2.722   3.346  21.041  0.00  0.00    +0.000 A 
ATOM     12  C   UNL     1       3.029   3.191  19.705  0.00  0.00    +0.000 A 
ATOM     13  C   UNL     1       3.699   1.982  19.460  0.00  0.00    +0.000 A 
ATOM     14  C   UNL     1       3.700   1.431  18.205  0.00  0.00    +0.000 A 
ATOM     15  C   UNL     1       3.058   2.142  17.203  0.00  0.00    +0.000 A 
ATOM     16  C   UNL     1       2.550   3.469  17.419  0.00  0.00    +0.000 A 
ATOM     17  C   UNL     1       2.562   4.164  18.719  0.00  0.00    +0.000 A 
ENDBRANCH   6   8
BRANCH   5  18
ATOM     18  C   UNL     1       3.968   7.056  17.179  0.00  0.00    +0.000 C 
ATOM     19  N   UNL     1       4.829   6.501  16.617  0.00  0.00    +0.000 NA
ENDBRANCH   5  18
ENDBRANCH   1   2
BRANCH   1  20
ATOM     20  C   UNL     1      -0.373  10.533  21.136  0.00  0.00    +0.000 A 
ATOM     21  C   UNL     1       0.227   9.876  22.217  0.00  0.00    +0.000 A 
ATOM     22  N   UNL     1      -0.286  10.257  23.429  0.00  0.00    +0.000 NA
ATOM     23  C   UNL     1      -1.187  11.152  23.144  0.00  0.00    +0.000 A 
ATOM     24  N   UNL     1      -1.289  11.359  21.784  0.00  0.00    +0.000 N 
ATOM     25  C   UNL     1      -2.183  12.348  21.232  0.00  0.00    +0.000 C 
ENDBRANCH   1  20
BRANCH   1  27
ATOM     26  C   UNL     1       0.692  13.037  19.032  0.00  0.00    +0.000 C 
ATOM     27  C   UNL     1       0.454  11.872  19.285  0.00  0.00    +0.000 C 
BRANCH  26  32
ATOM     28  C   UNL     1       1.144  18.580  17.893  0.00  0.00    +0.000 C 
ATOM     29  C   UNL     1       1.101  17.121  18.239  0.00  0.00    +0.000 A 
ATOM     30  C   UNL     1       2.255  16.340  18.246  0.00  0.00    +0.000 A 
ATOM     31  C   UNL     1       2.145  14.970  18.521  0.00  0.00    +0.000 A 
ATOM     32  C   UNL     1       0.889  14.425  18.788  0.00  0.00    +0.000 A 
ATOM     33  C   UNL     1      -0.201  15.278  18.763  0.00  0.00    +0.000 A 
ATOM     34  N   UNL     1      -0.124  16.605  18.500  0.00  0.00    +0.000 NA
ENDBRANCH  26  32
ENDBRANCH   1  27
BRANCH   1  35
ATOM     35  O   UNL     1      -1.190  10.203  18.928  0.00  0.00    +0.000 OA
ATOM     36  H   UNL     1      -1.692   9.606  19.502  0.00  0.00    +0.000 HD
ENDBRANCH   1  35
TORSDOF 7
ENDMDL
MODEL 5
REMARK VINA RESULT:      -8.1      3.008      8.783
REMARK  Name = 
REMARK  9 active torsions:
REMARK  status: ('A' for Active; 'I' for Inactive)
REMARK    1  A    between atoms: C_1  and  C_2
REMARK    2  A    between atoms: C_5  and  C_6
REMARK    3  A    between atoms: C_7  and  C_8
REMARK    4  A    between atoms: C_8  and  O_9
REMARK    5  A    between atoms: C_8  and  C_10
REMARK    6  A    between atoms: C_8  and  C_28
REMARK    7  A    between atoms: C_13  and  C_14
REMARK    8  A    between atoms: C_16  and  C_17
REMARK    9  A    between atoms: N_32  and  C_33
REMARK                            x       y       z     vdW  Elec       q    Type
REMARK                         _______ _______ _______ _____ _____    ______ ____
ROOT
ATOM      1  C   UNL     1       0.544  10.469  19.703  0.00  0.00    +0.000 C 
ENDROOT
BRANCH   1   2
ATOM      2  C   UNL     1       1.508   9.370  19.154  0.00  0.00    +0.000 A 
ATOM      3  C   UNL     1       2.377   9.740  18.121  0.00  0.00    +0.000 A 
ATOM      4  C   UNL     1       3.164   8.787  17.514  0.00  0.00    +0.000 A 
ATOM      5  C   UNL     1       3.105   7.416  17.894  0.00  0.00    +0.000 A 
ATOM      6  C   UNL     1       2.243   6.897  18.968  0.00  0.00    +0.000 A 
ATOM      7  C   UNL     1       1.469   7.943  19.573  0.00  0.00    +0.000 A 
BRANCH   6   8
ATOM      8  C   UNL     1       2.331   5.346  19.405  0.00  0.00    +0.000 A 
ATOM      9  C   UNL     1       2.104   5.247  20.781  0.00  0.00    +0.000 A 
ATOM     10  C   UNL     1       1.619   4.086  21.310  0.00  0.00    +0.000 A 
ATOM     11  C   UNL     1       2.606   3.177  21.176  0.00  0.00    +0.000 A 
ATOM     12  C   UNL     1       3.054   2.995  19.884  0.00  0.00    +0.000 A 
ATOM     13  C   UNL     1       3.717   1.767  19.728  0.00  0.00    +0.000 A 
ATOM     14  C   UNL     1       3.841   1.199  18.487  0.00  0.00    +0.000 A 
ATOM     15  C   UNL     1       3.331   1.911  17.412  0.00  0.00    +0.000 A 
ATOM     16  C   UNL     1       2.836   3.253  17.556  0.00  0.00    +0.000 A 
ATOM     17  C   UNL     1       2.723   3.966  18.841  0.00  0.00    +0.000 A 
ENDBRANCH   6   8
BRANCH   5  18
ATOM     18  C   UNL     1       4.030   6.679  17.067  0.00  0.00    +0.000 C 
ATOM     19  N   UNL     1       4.788   6.144  16.357  0.00  0.00    +0.000 NA
ENDBRANCH   5  18
ENDBRANCH   1   2
BRANCH   1  20
ATOM     20  C   UNL     1       0.018  10.377  21.165  0.00  0.00    +0.000 A 
ATOM     21  C   UNL     1       0.531   9.647  22.244  0.00  0.00    +0.000 A 
ATOM     22  N   UNL     1      -0.106   9.916  23.427  0.00  0.00    +0.000 NA
ATOM     23  C   UNL     1      -1.003  10.811  23.127  0.00  0.00    +0.000 A 
ATOM     24  N   UNL     1      -0.980  11.127  21.785  0.00  0.00    +0.000 N 
ATOM     25  C   UNL     1      -1.847  12.138  21.229  0.00  0.00    +0.000 C 
ENDBRANCH   1  20
BRANCH   1  27
ATOM     26  C   UNL     1       1.896  12.803  19.549  0.00  0.00    +0.000 C 
ATOM     27  C   UNL     1       1.226  11.789  19.600  0.00  0.00    +0.000 C 
BRANCH  26  32
ATOM     28  C   UNL     1       5.528  17.131  19.009  0.00  0.00    +0.000 C 
ATOM     29  C   UNL     1       4.522  16.036  19.210  0.00  0.00    +0.000 A 
ATOM     30  C   UNL     1       3.995  15.756  20.469  0.00  0.00    +0.000 A 
ATOM     31  C   UNL     1       3.102  14.683  20.605  0.00  0.00    +0.000 A 
ATOM     32  C   UNL     1       2.759  13.931  19.481  0.00  0.00    +0.000 A 
ATOM     33  C   UNL     1       3.330  14.287  18.271  0.00  0.00    +0.000 A 
ATOM     34  N   UNL     1       4.196  15.317  18.110  0.00  0.00    +0.000 NA
ENDBRANCH  26  32
ENDBRANCH   1  27
BRANCH   1  35
ATOM     35  O   UNL     1      -0.607  10.475  18.874  0.00  0.00    +0.000 OA
ATOM     36  H   UNL     1      -0.577  11.312  18.387  0.00  0.00    +0.000 HD
ENDBRANCH   1  35
TORSDOF 7
ENDMDL
MODEL 6
REMARK VINA RESULT:      -7.9      4.216      8.088
REMARK  Name = 
REMARK  9 active torsions:
REMARK  status: ('A' for Active; 'I' for Inactive)
REMARK    1  A    between atoms: C_1  and  C_2
REMARK    2  A    between atoms: C_5  and  C_6
REMARK    3  A    between atoms: C_7  and  C_8
REMARK    4  A    between atoms: C_8  and  O_9
REMARK    5  A    between atoms: C_8  and  C_10
REMARK    6  A    between atoms: C_8  and  C_28
REMARK    7  A    between atoms: C_13  and  C_14
REMARK    8  A    between atoms: C_16  and  C_17
REMARK    9  A    between atoms: N_32  and  C_33
REMARK                            x       y       z     vdW  Elec       q    Type
REMARK                         _______ _______ _______ _____ _____    ______ ____
ROOT
ATOM      1  C   UNL     1      -0.213  12.619  18.787  0.00  0.00    +0.000 C 
ENDROOT
BRANCH   1   2
ATOM      2  C   UNL     1      -1.190  12.700  20.003  0.00  0.00    +0.000 A 
ATOM      3  C   UNL     1      -0.748  12.155  21.214  0.00  0.00    +0.000 A 
ATOM      4  C   UNL     1      -1.608  12.088  22.288  0.00  0.00    +0.000 A 
ATOM      5  C   UNL     1      -2.955  12.539  22.197  0.00  0.00    +0.000 A 
ATOM      6  C   UNL     1      -3.541  13.140  20.988  0.00  0.00    +0.000 A 
ATOM      7  C   UNL     1      -2.587  13.202  19.917  0.00  0.00    +0.000 A 
BRANCH   6   8
ATOM      8  C   UNL     1      -5.042  13.730  21.017  0.00  0.00    +0.000 A 
ATOM      9  C   UNL     1      -5.771  13.172  19.962  0.00  0.00    +0.000 A 
ATOM     10  C   UNL     1      -7.131  13.080  20.048  0.00  0.00    +0.000 A 
ATOM     11  C   UNL     1      -7.592  14.347  19.998  0.00  0.00    +0.000 A 
ATOM     12  C   UNL     1      -7.080  15.186  20.965  0.00  0.00    +0.000 A 
ATOM     13  C   UNL     1      -7.896  16.312  21.164  0.00  0.00    +0.000 A 
ATOM     14  C   UNL     1      -7.829  17.019  22.337  0.00  0.00    +0.000 A 
ATOM     15  C   UNL     1      -6.898  16.599  23.275  0.00  0.00    +0.000 A 
ATOM     16  C   UNL     1      -5.933  15.575  22.981  0.00  0.00    +0.000 A 
ATOM     17  C   UNL     1      -5.891  14.805  21.725  0.00  0.00    +0.000 A 
ENDBRANCH   6   8
BRANCH   5  18
ATOM     18  C   UNL     1      -3.592  12.319  23.474  0.00  0.00    +0.000 C 
ATOM     19  N   UNL     1      -4.063  12.195  24.535  0.00  0.00    +0.000 NA
ENDBRANCH   5  18
ENDBRANCH   1   2
BRANCH   1  20
ATOM     20  C   UNL     1       1.020  13.566  18.720  0.00  0.00    +0.000 A 
ATOM     21  C   UNL     1       2.358  13.256  18.447  0.00  0.00    +0.000 A 
ATOM     22  N   UNL     1       3.154  14.365  18.329  0.00  0.00    +0.000 NA
ATOM     23  C   UNL     1       2.350  15.373  18.506  0.00  0.00    +0.000 A 
ATOM     24  N   UNL     1       1.056  14.959  18.747  0.00  0.00    +0.000 N 
ATOM     25  C   UNL     1      -0.022  15.902  18.918  0.00  0.00    +0.000 C 
ENDBRANCH   1  20
BRANCH   1  27
ATOM     26  C   UNL     1       0.883  10.151  18.726  0.00  0.00    +0.000 C 
ATOM     27  C   UNL     1       0.335  11.236  18.713  0.00  0.00    +0.000 C 
BRANCH  26  32
ATOM     28  C   UNL     1       3.701   5.279  19.464  0.00  0.00    +0.000 C 
ATOM     29  C   UNL     1       2.941   6.542  19.184  0.00  0.00    +0.000 A 
ATOM     30  C   UNL     1       3.066   7.212  17.970  0.00  0.00    +0.000 A 
ATOM     31  C   UNL     1       2.375   8.419  17.788  0.00  0.00    +0.000 A 
ATOM     32  C   UNL     1       1.578   8.913  18.820  0.00  0.00    +0.000 A 
ATOM     33  C   UNL     1       1.512   8.176  19.991  0.00  0.00    +0.000 A 
ATOM     34  N   UNL     1       2.168   7.008  20.194  0.00  0.00    +0.000 NA
ENDBRANCH  26  32
ENDBRANCH   1  27
BRANCH   1  35
ATOM     35  O   UNL     1      -0.971  12.882  17.617  0.00  0.00    +0.000 OA
ATOM     36  H   UNL     1      -1.797  13.284  17.923  0.00  0.00    +0.000 HD
ENDBRANCH   1  35
TORSDOF 7
ENDMDL
MODEL 7
REMARK VINA RESULT:      -7.9      3.127      9.640
REMARK  Name = 
REMARK  9 active torsions:
REMARK  status: ('A' for Active; 'I' for Inactive)
REMARK    1  A    between atoms: C_1  and  C_2
REMARK    2  A    between atoms: C_5  and  C_6
REMARK    3  A    between atoms: C_7  and  C_8
REMARK    4  A    between atoms: C_8  and  O_9
REMARK    5  A    between atoms: C_8  and  C_10
REMARK    6  A    between atoms: C_8  and  C_28
REMARK    7  A    between atoms: C_13  and  C_14
REMARK    8  A    between atoms: C_16  and  C_17
REMARK    9  A    between atoms: N_32  and  C_33
REMARK                            x       y       z     vdW  Elec       q    Type
REMARK                         _______ _______ _______ _____ _____    ______ ____
ROOT
ATOM      1  C   UNL     1       0.762  10.659  20.172  0.00  0.00    +0.000 C 
ENDROOT
BRANCH   1   2
ATOM      2  C   UNL     1       1.051   9.125  20.228  0.00  0.00    +0.000 A 
ATOM      3  C   UNL     1       0.541   8.419  21.323  0.00  0.00    +0.000 A 
ATOM      4  C   UNL     1       0.863   7.091  21.491  0.00  0.00    +0.000 A 
ATOM      5  C   UNL     1       1.728   6.411  20.587  0.00  0.00    +0.000 A 
ATOM      6  C   UNL     1       2.323   7.034  19.394  0.00  0.00    +0.000 A 
ATOM      7  C   UNL     1       1.928   8.408  19.265  0.00  0.00    +0.000 A 
BRANCH   6   8
ATOM      8  C   UNL     1       3.197   6.151  18.364  0.00  0.00    +0.000 A 
ATOM      9  C   UNL     1       2.508   4.968  18.080  0.00  0.00    +0.000 A 
ATOM     10  C   UNL     1       2.737   4.312  16.905  0.00  0.00    +0.000 A 
ATOM     11  C   UNL     1       3.993   3.828  16.990  0.00  0.00    +0.000 A 
ATOM     12  C   UNL     1       4.963   4.778  17.235  0.00  0.00    +0.000 A 
ATOM     13  C   UNL     1       6.241   4.328  16.865  0.00  0.00    +0.000 A 
ATOM     14  C   UNL     1       7.245   5.225  16.608  0.00  0.00    +0.000 A 
ATOM     15  C   UNL     1       6.949   6.570  16.776  0.00  0.00    +0.000 A 
ATOM     16  C   UNL     1       5.704   7.008  17.346  0.00  0.00    +0.000 A 
ATOM     17  C   UNL     1       4.592   6.111  17.710  0.00  0.00    +0.000 A 
ENDBRANCH   6   8
BRANCH   5  18
ATOM     18  C   UNL     1       1.879   5.051  21.044  0.00  0.00    +0.000 C 
ATOM     19  N   UNL     1       2.038   3.975  21.473  0.00  0.00    +0.000 NA
ENDBRANCH   5  18
ENDBRANCH   1   2
BRANCH   1  20
ATOM     20  C   UNL     1       1.651  11.583  19.289  0.00  0.00    +0.000 A 
ATOM     21  C   UNL     1       2.309  11.290  18.088  0.00  0.00    +0.000 A 
ATOM     22  N   UNL     1       2.887  12.389  17.510  0.00  0.00    +0.000 NA
ATOM     23  C   UNL     1       2.601  13.376  18.309  0.00  0.00    +0.000 A 
ATOM     24  N   UNL     1       1.863  12.956  19.396  0.00  0.00    +0.000 N 
ATOM     25  C   UNL     1       1.380  13.884  20.389  0.00  0.00    +0.000 C 
ENDBRANCH   1  20
BRANCH   1  27
ATOM     26  C   UNL     1      -1.726  11.129  19.228  0.00  0.00    +0.000 C 
ATOM     27  C   UNL     1      -0.633  10.859  19.689  0.00  0.00    +0.000 C 
BRANCH  26  32
ATOM     28  C   UNL     1      -6.806  12.545  17.130  0.00  0.00    +0.000 C 
ATOM     29  C   UNL     1      -5.428  12.194  17.606  0.00  0.00    +0.000 A 
ATOM     30  C   UNL     1      -4.504  11.573  16.768  0.00  0.00    +0.000 A 
ATOM     31  C   UNL     1      -3.251  11.217  17.286  0.00  0.00    +0.000 A 
ATOM     32  C   UNL     1      -2.958  11.499  18.621  0.00  0.00    +0.000 A 
ATOM     33  C   UNL     1      -3.936  12.121  19.376  0.00  0.00    +0.000 A 
ATOM     34  N   UNL     1      -5.155  12.476  18.903  0.00  0.00    +0.000 NA
ENDBRANCH  26  32
ENDBRANCH   1  27
BRANCH   1  35
ATOM     35  O   UNL     1       0.872  11.160  21.494  0.00  0.00    +0.000 OA
ATOM     36  H   UNL     1       1.433  10.529  21.969  0.00  0.00    +0.000 HD
ENDBRANCH   1  35
TORSDOF 7
ENDMDL
MODEL 8
REMARK VINA RESULT:      -7.9      4.225      7.766
REMARK  Name = 
REMARK  9 active torsions:
REMARK  status: ('A' for Active; 'I' for Inactive)
REMARK    1  A    between atoms: C_1  and  C_2
REMARK    2  A    between atoms: C_5  and  C_6
REMARK    3  A    between atoms: C_7  and  C_8
REMARK    4  A    between atoms: C_8  and  O_9
REMARK    5  A    between atoms: C_8  and  C_10
REMARK    6  A    between atoms: C_8  and  C_28
REMARK    7  A    between atoms: C_13  and  C_14
REMARK    8  A    between atoms: C_16  and  C_17
REMARK    9  A    between atoms: N_32  and  C_33
REMARK                            x       y       z     vdW  Elec       q    Type
REMARK                         _______ _______ _______ _____ _____    ______ ____
ROOT
ATOM      1  C   UNL     1      -0.243  12.141  18.859  0.00  0.00    +0.000 C 
ENDROOT
BRANCH   1   2
ATOM      2  C   UNL     1      -1.792  11.979  18.966  0.00  0.00    +0.000 A 
ATOM      3  C   UNL     1      -2.397  11.044  18.118  0.00  0.00    +0.000 A 
ATOM      4  C   UNL     1      -3.770  10.942  18.079  0.00  0.00    +0.000 A 
ATOM      5  C   UNL     1      -4.604  11.784  18.869  0.00  0.00    +0.000 A 
ATOM      6  C   UNL     1      -4.097  12.798  19.806  0.00  0.00    +0.000 A 
ATOM      7  C   UNL     1      -2.662  12.836  19.815  0.00  0.00    +0.000 A 
BRANCH   6   8
ATOM      8  C   UNL     1      -5.118  13.623  20.745  0.00  0.00    +0.000 A 
ATOM      9  C   UNL     1      -4.883  14.991  20.581  0.00  0.00    +0.000 A 
ATOM     10  C   UNL     1      -5.884  15.888  20.824  0.00  0.00    +0.000 A 
ATOM     11  C   UNL     1      -6.098  15.852  22.156  0.00  0.00    +0.000 A 
ATOM     12  C   UNL     1      -6.405  14.604  22.658  0.00  0.00    +0.000 A 
ATOM     13  C   UNL     1      -7.051  14.686  23.902  0.00  0.00    +0.000 A 
ATOM     14  C   UNL     1      -7.819  13.645  24.355  0.00  0.00    +0.000 A 
ATOM     15  C   UNL     1      -7.881  12.512  23.557  0.00  0.00    +0.000 A 
ATOM     16  C   UNL     1      -7.059  12.361  22.388  0.00  0.00    +0.000 A 
ATOM     17  C   UNL     1      -6.159  13.403  21.861  0.00  0.00    +0.000 A 
ENDBRANCH   6   8
BRANCH   5  18
ATOM     18  C   UNL     1      -5.979  11.442  18.592  0.00  0.00    +0.000 C 
ATOM     19  N   UNL     1      -7.112  11.210  18.424  0.00  0.00    +0.000 NA
ENDBRANCH   5  18
ENDBRANCH   1   2
BRANCH   1  20
ATOM     20  C   UNL     1       0.527  12.957  19.938  0.00  0.00    +0.000 A 
ATOM     21  C   UNL     1       1.488  12.519  20.858  0.00  0.00    +0.000 A 
ATOM     22  N   UNL     1       2.061  13.542  21.565  0.00  0.00    +0.000 NA
ATOM     23  C   UNL     1       1.498  14.622  21.106  0.00  0.00    +0.000 A 
ATOM     24  N   UNL     1       0.566  14.337  20.129  0.00  0.00    +0.000 N 
ATOM     25  C   UNL     1      -0.147  15.380  19.433  0.00  0.00    +0.000 C 
ENDBRANCH   1  20
BRANCH   1  27
ATOM     26  C   UNL     1       0.993   9.739  18.830  0.00  0.00    +0.000 C 
ATOM     27  C   UNL     1       0.375  10.785  18.860  0.00  0.00    +0.000 C 
BRANCH  26  32
ATOM     28  C   UNL     1       4.254   5.100  19.087  0.00  0.00    +0.000 C 
ATOM     29  C   UNL     1       3.379   6.309  18.933  0.00  0.00    +0.000 A 
ATOM     30  C   UNL     1       3.440   7.109  17.794  0.00  0.00    +0.000 A 
ATOM     31  C   UNL     1       2.639   8.259  17.731  0.00  0.00    +0.000 A 
ATOM     32  C   UNL     1       1.800   8.568  18.802  0.00  0.00    +0.000 A 
ATOM     33  C   UNL     1       1.804   7.712  19.890  0.00  0.00    +0.000 A 
ATOM     34  N   UNL     1       2.567   6.595  19.978  0.00  0.00    +0.000 NA
ENDBRANCH  26  32
ENDBRANCH   1  27
BRANCH   1  35
ATOM     35  O   UNL     1       0.032  12.776  17.621  0.00  0.00    +0.000 OA
ATOM     36  H   UNL     1       0.910  13.173  17.718  0.00  0.00    +0.000 HD
ENDBRANCH   1  35
TORSDOF 7
ENDMDL
MODEL 9
REMARK VINA RESULT:      -7.8      2.514     10.076
REMARK  Name = 
REMARK  9 active torsions:
REMARK  status: ('A' for Active; 'I' for Inactive)
REMARK    1  A    between atoms: C_1  and  C_2
REMARK    2  A    between atoms: C_5  and  C_6
REMARK    3  A    between atoms: C_7  and  C_8
REMARK    4  A    between atoms: C_8  and  O_9
REMARK    5  A    between atoms: C_8  and  C_10
REMARK    6  A    between atoms: C_8  and  C_28
REMARK    7  A    between atoms: C_13  and  C_14
REMARK    8  A    between atoms: C_16  and  C_17
REMARK    9  A    between atoms: N_32  and  C_33
REMARK                            x       y       z     vdW  Elec       q    Type
REMARK                         _______ _______ _______ _____ _____    ______ ____
ROOT
ATOM      1  C   UNL     1       0.454  10.466  19.198  0.00  0.00    +0.000 C 
ENDROOT
BRANCH   1   2
ATOM      2  C   UNL     1       0.902   9.010  19.543  0.00  0.00    +0.000 A 
ATOM      3  C   UNL     1       0.627   8.546  20.835  0.00  0.00    +0.000 A 
ATOM      4  C   UNL     1       1.104   7.318  21.236  0.00  0.00    +0.000 A 
ATOM      5  C   UNL     1       1.896   6.506  20.377  0.00  0.00    +0.000 A 
ATOM      6  C   UNL     1       2.248   6.871  18.995  0.00  0.00    +0.000 A 
ATOM      7  C   UNL     1       1.702   8.148  18.633  0.00  0.00    +0.000 A 
BRANCH   6   8
ATOM      8  C   UNL     1       3.052   5.832  18.058  0.00  0.00    +0.000 A 
ATOM      9  C   UNL     1       2.393   4.600  18.074  0.00  0.00    +0.000 A 
ATOM     10  C   UNL     1       2.530   3.740  17.023  0.00  0.00    +0.000 A 
ATOM     11  C   UNL     1       3.809   3.314  17.058  0.00  0.00    +0.000 A 
ATOM     12  C   UNL     1       4.754   4.317  17.016  0.00  0.00    +0.000 A 
ATOM     13  C   UNL     1       6.007   3.839  16.599  0.00  0.00    +0.000 A 
ATOM     14  C   UNL     1       6.937   4.697  16.072  0.00  0.00    +0.000 A 
ATOM     15  C   UNL     1       6.598   6.041  16.020  0.00  0.00    +0.000 A 
ATOM     16  C   UNL     1       5.400   6.546  16.631  0.00  0.00    +0.000 A 
ATOM     17  C   UNL     1       4.374   5.706  17.274  0.00  0.00    +0.000 A 
ENDBRANCH   6   8
BRANCH   5  18
ATOM     18  C   UNL     1       2.247   5.302  21.091  0.00  0.00    +0.000 C 
ATOM     19  N   UNL     1       2.460   4.317  21.682  0.00  0.00    +0.000 NA
ENDBRANCH   5  18
ENDBRANCH   1   2
BRANCH   1  20
ATOM     20  C   UNL     1      -0.616  10.706  18.093  0.00  0.00    +0.000 A 
ATOM     21  C   UNL     1      -1.383   9.770  17.388  0.00  0.00    +0.000 A 
ATOM     22  N   UNL     1      -2.332  10.346  16.587  0.00  0.00    +0.000 NA
ATOM     23  C   UNL     1      -2.197  11.627  16.778  0.00  0.00    +0.000 A 
ATOM     24  N   UNL     1      -1.182  11.906  17.669  0.00  0.00    +0.000 N 
ATOM     25  C   UNL     1      -0.883  13.257  18.079  0.00  0.00    +0.000 C 
ENDBRANCH   1  20
BRANCH   1  27
ATOM     26  C   UNL     1      -0.562  11.719  21.366  0.00  0.00    +0.000 C 
ATOM     27  C   UNL     1      -0.092  11.097  20.433  0.00  0.00    +0.000 C 
BRANCH  26  32
ATOM     28  C   UNL     1      -2.592  14.958  25.562  0.00  0.00    +0.000 C 
ATOM     29  C   UNL     1      -2.139  14.088  24.427  0.00  0.00    +0.000 A 
ATOM     30  C   UNL     1      -2.840  12.939  24.067  0.00  0.00    +0.000 A 
ATOM     31  C   UNL     1      -2.336  12.134  23.035  0.00  0.00    +0.000 A 
ATOM     32  C   UNL     1      -1.156  12.506  22.391  0.00  0.00    +0.000 A 
ATOM     33  C   UNL     1      -0.532  13.667  22.813  0.00  0.00    +0.000 A 
ATOM     34  N   UNL     1      -0.994  14.463  23.808  0.00  0.00    +0.000 NA
ENDBRANCH  26  32
ENDBRANCH   1  27
BRANCH   1  35
ATOM     35  O   UNL     1       1.609  11.178  18.784  0.00  0.00    +0.000 OA
ATOM     36  H   UNL     1       2.106  11.366  19.593  0.00  0.00    +0.000 HD
ENDBRANCH   1  35
TORSDOF 7
ENDMDL
