MODEL 1
REMARK VINA RESULT:      -6.8      0.000      0.000
REMARK  Name = 
REMARK  5 active torsions:
REMARK  status: ('A' for Active; 'I' for Inactive)
REMARK    1  A    between atoms: C_1  and  O_2
REMARK    2  A    between atoms: O_2  and  C_3
REMARK    3  A    between atoms: C_11  and  O_12
REMARK    4  A    between atoms: C_17  and  O_18
REMARK    5  A    between atoms: O_18  and  C_19
REMARK                            x       y       z     vdW  Elec       q    Type
REMARK                         _______ _______ _______ _____ _____    ______ ____
ROOT
ATOM      1  C   UNL     1       0.544  10.314  20.792  0.00  0.00    +0.000 A 
ATOM      2  C   UNL     1      -0.565  11.141  20.966  0.00  0.00    +0.000 A 
ATOM      3  C   UNL     1      -1.560  11.323  19.981  0.00  0.00    +0.000 A 
ATOM      4  C   UNL     1      -2.738  12.058  20.266  0.00  0.00    +0.000 A 
ATOM      5  C   UNL     1      -3.751  12.207  19.303  0.00  0.00    +0.000 A 
ATOM      6  C   UNL     1      -3.586  11.613  18.021  0.00  0.00    +0.000 A 
ATOM      7  C   UNL     1      -4.611  11.683  17.040  0.00  0.00    +0.000 A 
ATOM      8  C   UNL     1      -4.469  11.161  15.759  0.00  0.00    +0.000 A 
ATOM      9  C   UNL     1      -3.277  10.562  15.423  0.00  0.00    +0.000 A 
ATOM     10  C   UNL     1      -2.259  10.429  16.366  0.00  0.00    +0.000 A 
ATOM     11  C   UNL     1      -2.384  10.918  17.695  0.00  0.00    +0.000 A 
ATOM     12  C   UNL     1      -1.372  10.730  18.708  0.00  0.00    +0.000 A 
ATOM     13  C   UNL     1      -0.184   9.951  18.525  0.00  0.00    +0.000 A 
ATOM     14  C   UNL     1       0.753   9.723  19.548  0.00  0.00    +0.000 A 
ATOM     15  C   UNL     1      -5.053  12.918  19.649  0.00  0.00    +0.000 C 
ATOM     16  N   UNL     1      -5.168  13.630  20.929  0.00  0.00    +0.000 NA
ATOM     17  C   UNL     1      -4.892  15.055  20.809  0.00  0.00    +0.000 C 
ATOM     18  C   UNL     1      -5.233  15.807  22.090  0.00  0.00    +0.000 C 
ATOM     19  C   UNL     1      -4.756  15.159  23.381  0.00  0.00    +0.000 C 
ATOM     20  C   UNL     1      -4.531  13.650  23.358  0.00  0.00    +0.000 C 
ATOM     21  C   UNL     1      -4.419  12.963  21.986  0.00  0.00    +0.000 C 
ATOM     22  C   UNL     1      -2.948  12.698  21.632  0.00  0.00    +0.000 C 
ENDROOT
BRANCH   1  24
ATOM     23  C   UNL     1       0.986   9.288  22.880  0.00  0.00    +0.000 C 
ATOM     24  O   UNL     1       1.458  10.076  21.791  0.00  0.00    +0.000 OA
ENDBRANCH   1  24
BRANCH   9  25
ATOM     25  O   UNL     1      -3.062  10.078  14.166  0.00  0.00    +0.000 OA
ATOM     26  H   UNL     1      -2.358   9.407  14.210  0.00  0.00    +0.000 HD
ENDBRANCH   9  25
BRANCH  14  27
ATOM     27  O   UNL     1       1.872   8.941  19.439  0.00  0.00    +0.000 OA
ATOM     28  C   UNL     1       2.236   8.456  18.154  0.00  0.00    +0.000 C 
ENDBRANCH  14  27
TORSDOF 3
ENDMDL
MODEL 2
REMARK VINA RESULT:      -6.7      0.989      1.229
REMARK  Name = 
REMARK  5 active torsions:
REMARK  status: ('A' for Active; 'I' for Inactive)
REMARK    1  A    between atoms: C_1  and  O_2
REMARK    2  A    between atoms: O_2  and  C_3
REMARK    3  A    between atoms: C_11  and  O_12
REMARK    4  A    between atoms: C_17  and  O_18
REMARK    5  A    between atoms: O_18  and  C_19
REMARK                            x       y       z     vdW  Elec       q    Type
REMARK                         _______ _______ _______ _____ _____    ______ ____
ROOT
ATOM      1  C   UNL     1       0.524  10.573  20.922  0.00  0.00    +0.000 A 
ATOM      2  C   UNL     1      -0.467  11.461  21.340  0.00  0.00    +0.000 A 
ATOM      3  C   UNL     1      -1.633  11.731  20.592  0.00  0.00    +0.000 A 
ATOM      4  C   UNL     1      -2.673  12.529  21.130  0.00  0.00    +0.000 A 
ATOM      5  C   UNL     1      -3.855  12.766  20.408  0.00  0.00    +0.000 A 
ATOM      6  C   UNL     1      -4.004  12.198  19.112  0.00  0.00    +0.000 A 
ATOM      7  C   UNL     1      -5.207  12.358  18.373  0.00  0.00    +0.000 A 
ATOM      8  C   UNL     1      -5.374  11.863  17.084  0.00  0.00    +0.000 A 
ATOM      9  C   UNL     1      -4.322  11.201  16.493  0.00  0.00    +0.000 A 
ATOM     10  C   UNL     1      -3.138  10.980  17.196  0.00  0.00    +0.000 A 
ATOM     11  C   UNL     1      -2.947  11.440  18.529  0.00  0.00    +0.000 A 
ATOM     12  C   UNL     1      -1.758  11.162  19.300  0.00  0.00    +0.000 A 
ATOM     13  C   UNL     1      -0.690  10.317  18.858  0.00  0.00    +0.000 A 
ATOM     14  C   UNL     1       0.425  10.004  19.655  0.00  0.00    +0.000 A 
ATOM     15  C   UNL     1      -5.004  13.547  21.032  0.00  0.00    +0.000 C 
ATOM     16  N   UNL     1      -4.798  14.229  22.317  0.00  0.00    +0.000 NA
ATOM     17  C   UNL     1      -4.461  15.637  22.160  0.00  0.00    +0.000 C 
ATOM     18  C   UNL     1      -4.473  16.374  23.494  0.00  0.00    +0.000 C 
ATOM     19  C   UNL     1      -3.777  15.663  24.645  0.00  0.00    +0.000 C 
ATOM     20  C   UNL     1      -3.662  14.144  24.554  0.00  0.00    +0.000 C 
ATOM     21  C   UNL     1      -3.888  13.489  23.181  0.00  0.00    +0.000 C 
ATOM     22  C   UNL     1      -2.546  13.144  22.518  0.00  0.00    +0.000 C 
ENDROOT
BRANCH   1  24
ATOM     23  C   UNL     1       1.397   9.219  22.658  0.00  0.00    +0.000 C 
ATOM     24  O   UNL     1       1.610  10.252  21.701  0.00  0.00    +0.000 OA
ENDBRANCH   1  24
BRANCH   9  25
ATOM     25  O   UNL     1      -4.411  10.739  15.213  0.00  0.00    +0.000 OA
ATOM     26  H   UNL     1      -3.858   9.942  15.135  0.00  0.00    +0.000 HD
ENDBRANCH   9  25
BRANCH  14  27
ATOM     27  O   UNL     1       1.442   9.158  19.300  0.00  0.00    +0.000 OA
ATOM     28  C   UNL     1       1.926   9.206  17.965  0.00  0.00    +0.000 C 
ENDBRANCH  14  27
TORSDOF 3
ENDMDL
MODEL 3
REMARK VINA RESULT:      -6.6      3.660      5.249
REMARK  Name = 
REMARK  5 active torsions:
REMARK  status: ('A' for Active; 'I' for Inactive)
REMARK    1  A    between atoms: C_1  and  O_2
REMARK    2  A    between atoms: O_2  and  C_3
REMARK    3  A    between atoms: C_11  and  O_12
REMARK    4  A    between atoms: C_17  and  O_18
REMARK    5  A    between atoms: O_18  and  C_19
REMARK                            x       y       z     vdW  Elec       q    Type
REMARK                         _______ _______ _______ _____ _____    ______ ____
ROOT
ATOM      1  C   UNL     1       0.375  15.332  19.183  0.00  0.00    +0.000 A 
ATOM      2  C   UNL     1      -0.699  15.063  20.031  0.00  0.00    +0.000 A 
ATOM      3  C   UNL     1      -0.811  13.879  20.790  0.00  0.00    +0.000 A 
ATOM      4  C   UNL     1      -1.847  13.723  21.744  0.00  0.00    +0.000 A 
ATOM      5  C   UNL     1      -1.939  12.564  22.534  0.00  0.00    +0.000 A 
ATOM      6  C   UNL     1      -0.977  11.529  22.366  0.00  0.00    +0.000 A 
ATOM      7  C   UNL     1      -0.994  10.370  23.187  0.00  0.00    +0.000 A 
ATOM      8  C   UNL     1      -0.104   9.314  23.021  0.00  0.00    +0.000 A 
ATOM      9  C   UNL     1       0.825   9.391  22.008  0.00  0.00    +0.000 A 
ATOM     10  C   UNL     1       0.909  10.528  21.207  0.00  0.00    +0.000 A 
ATOM     11  C   UNL     1       0.039  11.642  21.373  0.00  0.00    +0.000 A 
ATOM     12  C   UNL     1       0.153  12.858  20.602  0.00  0.00    +0.000 A 
ATOM     13  C   UNL     1       1.203  13.122  19.665  0.00  0.00    +0.000 A 
ATOM     14  C   UNL     1       1.334  14.343  18.979  0.00  0.00    +0.000 A 
ATOM     15  C   UNL     1      -3.000  12.446  23.620  0.00  0.00    +0.000 C 
ATOM     16  N   UNL     1      -4.060  13.460  23.707  0.00  0.00    +0.000 NA
ATOM     17  C   UNL     1      -5.285  13.056  23.032  0.00  0.00    +0.000 C 
ATOM     18  C   UNL     1      -6.434  14.014  23.322  0.00  0.00    +0.000 C 
ATOM     19  C   UNL     1      -6.098  15.494  23.226  0.00  0.00    +0.000 C 
ATOM     20  C   UNL     1      -4.637  15.888  23.430  0.00  0.00    +0.000 C 
ATOM     21  C   UNL     1      -3.575  14.781  23.326  0.00  0.00    +0.000 C 
ATOM     22  C   UNL     1      -2.887  14.817  21.953  0.00  0.00    +0.000 C 
ENDROOT
BRANCH   1  24
ATOM     23  C   UNL     1      -0.699  17.170  18.145  0.00  0.00    +0.000 C 
ATOM     24  O   UNL     1       0.516  16.527  18.518  0.00  0.00    +0.000 OA
ENDBRANCH   1  24
BRANCH   9  25
ATOM     25  O   UNL     1       1.689   8.363  21.767  0.00  0.00    +0.000 OA
ATOM     26  H   UNL     1       2.407   8.405  22.424  0.00  0.00    +0.000 HD
ENDBRANCH   9  25
BRANCH  14  27
ATOM     27  O   UNL     1       2.349  14.664  18.117  0.00  0.00    +0.000 OA
ATOM     28  C   UNL     1       3.687  14.421  18.529  0.00  0.00    +0.000 C 
ENDBRANCH  14  27
TORSDOF 3
ENDMDL
MODEL 4
REMARK VINA RESULT:      -6.5      2.155      2.341
REMARK  Name = 
REMARK  5 active torsions:
REMARK  status: ('A' for Active; 'I' for Inactive)
REMARK    1  A    between atoms: C_1  and  O_2
REMARK    2  A    between atoms: O_2  and  C_3
REMARK    3  A    between atoms: C_11  and  O_12
REMARK    4  A    between atoms: C_17  and  O_18
REMARK    5  A    between atoms: O_18  and  C_19
REMARK                            x       y       z     vdW  Elec       q    Type
REMARK                         _______ _______ _______ _____ _____    ______ ____
ROOT
ATOM      1  C   UNL     1       0.457  13.315  20.857  0.00  0.00    +0.000 A 
ATOM      2  C   UNL     1      -0.917  13.393  21.084  0.00  0.00    +0.000 A 
ATOM      3  C   UNL     1      -1.881  12.876  20.193  0.00  0.00    +0.000 A 
ATOM      4  C   UNL     1      -3.255  12.853  20.543  0.00  0.00    +0.000 A 
ATOM      5  C   UNL     1      -4.215  12.301  19.678  0.00  0.00    +0.000 A 
ATOM      6  C   UNL     1      -3.799  11.763  18.428  0.00  0.00    +0.000 A 
ATOM      7  C   UNL     1      -4.726  11.138  17.552  0.00  0.00    +0.000 A 
ATOM      8  C   UNL     1      -4.370  10.646  16.301  0.00  0.00    +0.000 A 
ATOM      9  C   UNL     1      -3.063  10.783  15.888  0.00  0.00    +0.000 A 
ATOM     10  C   UNL     1      -2.109  11.349  16.733  0.00  0.00    +0.000 A 
ATOM     11  C   UNL     1      -2.431  11.828  18.032  0.00  0.00    +0.000 A 
ATOM     12  C   UNL     1      -1.447  12.353  18.950  0.00  0.00    +0.000 A 
ATOM     13  C   UNL     1      -0.036  12.357  18.703  0.00  0.00    +0.000 A 
ATOM     14  C   UNL     1       0.909  12.808  19.641  0.00  0.00    +0.000 A 
ATOM     15  C   UNL     1      -5.674  12.196  20.103  0.00  0.00    +0.000 C 
ATOM     16  N   UNL     1      -6.116  12.858  21.337  0.00  0.00    +0.000 NA
ATOM     17  C   UNL     1      -6.701  14.170  21.096  0.00  0.00    +0.000 C 
ATOM     18  C   UNL     1      -7.352  14.739  22.350  0.00  0.00    +0.000 C 
ATOM     19  C   UNL     1      -6.535  14.618  23.629  0.00  0.00    +0.000 C 
ATOM     20  C   UNL     1      -5.496  13.501  23.684  0.00  0.00    +0.000 C 
ATOM     21  C   UNL     1      -5.075  12.847  22.357  0.00  0.00    +0.000 C 
ATOM     22  C   UNL     1      -3.730  13.413  21.877  0.00  0.00    +0.000 C 
ENDROOT
BRANCH   1  24
ATOM     23  C   UNL     1       1.446  15.150  21.981  0.00  0.00    +0.000 C 
ATOM     24  O   UNL     1       1.387  13.742  21.774  0.00  0.00    +0.000 OA
ENDBRANCH   1  24
BRANCH   9  25
ATOM     25  O   UNL     1      -2.668  10.366  14.652  0.00  0.00    +0.000 OA
ATOM     26  H   UNL     1      -3.463  10.149  14.132  0.00  0.00    +0.000 HD
ENDBRANCH   9  25
BRANCH  14  27
ATOM     27  O   UNL     1       2.268  12.780  19.475  0.00  0.00    +0.000 OA
ATOM     28  C   UNL     1       2.822  13.416  18.331  0.00  0.00    +0.000 C 
ENDBRANCH  14  27
TORSDOF 3
ENDMDL
MODEL 5
REMARK VINA RESULT:      -6.5     10.541     12.904
REMARK  Name = 
REMARK  5 active torsions:
REMARK  status: ('A' for Active; 'I' for Inactive)
REMARK    1  A    between atoms: C_1  and  O_2
REMARK    2  A    between atoms: O_2  and  C_3
REMARK    3  A    between atoms: C_11  and  O_12
REMARK    4  A    between atoms: C_17  and  O_18
REMARK    5  A    between atoms: O_18  and  C_19
REMARK                            x       y       z     vdW  Elec       q    Type
REMARK                         _______ _______ _______ _____ _____    ______ ____
ROOT
ATOM      1  C   UNL     1       9.885  11.207  19.864  0.00  0.00    +0.000 A 
ATOM      2  C   UNL     1       9.298  11.481  21.099  0.00  0.00    +0.000 A 
ATOM      3  C   UNL     1       9.381  12.737  21.736  0.00  0.00    +0.000 A 
ATOM      4  C   UNL     1       8.645  13.002  22.918  0.00  0.00    +0.000 A 
ATOM      5  C   UNL     1       8.690  14.265  23.534  0.00  0.00    +0.000 A 
ATOM      6  C   UNL     1       9.492  15.291  22.961  0.00  0.00    +0.000 A 
ATOM      7  C   UNL     1       9.516  16.600  23.512  0.00  0.00    +0.000 A 
ATOM      8  C   UNL     1      10.326  17.615  23.014  0.00  0.00    +0.000 A 
ATOM      9  C   UNL     1      11.149  17.335  21.947  0.00  0.00    +0.000 A 
ATOM     10  C   UNL     1      11.126  16.078  21.345  0.00  0.00    +0.000 A 
ATOM     11  C   UNL     1      10.284  15.028  21.805  0.00  0.00    +0.000 A 
ATOM     12  C   UNL     1      10.192  13.743  21.153  0.00  0.00    +0.000 A 
ATOM     13  C   UNL     1      10.851  13.413  19.925  0.00  0.00    +0.000 A 
ATOM     14  C   UNL     1      10.690  12.178  19.272  0.00  0.00    +0.000 A 
ATOM     15  C   UNL     1       7.824  14.568  24.749  0.00  0.00    +0.000 C 
ATOM     16  N   UNL     1       7.093  13.475  25.404  0.00  0.00    +0.000 NA
ATOM     17  C   UNL     1       7.804  12.928  26.552  0.00  0.00    +0.000 C 
ATOM     18  C   UNL     1       6.937  11.958  27.345  0.00  0.00    +0.000 C 
ATOM     19  C   UNL     1       6.159  10.944  26.521  0.00  0.00    +0.000 C 
ATOM     20  C   UNL     1       5.847  11.320  25.074  0.00  0.00    +0.000 C 
ATOM     21  C   UNL     1       6.647  12.473  24.445  0.00  0.00    +0.000 C 
ATOM     22  C   UNL     1       7.771  11.928  23.551  0.00  0.00    +0.000 C 
ENDROOT
BRANCH   1  24
ATOM     23  C   UNL     1       8.576   9.916  18.370  0.00  0.00    +0.000 C 
ATOM     24  O   UNL     1       9.721  10.008  19.213  0.00  0.00    +0.000 OA
ENDBRANCH   1  24
BRANCH   9  25
ATOM     25  O   UNL     1      12.001  18.277  21.450  0.00  0.00    +0.000 OA
ATOM     26  H   UNL     1      12.646  17.833  20.871  0.00  0.00    +0.000 HD
ENDBRANCH   9  25
BRANCH  14  27
ATOM     27  O   UNL     1      11.252  11.836  18.071  0.00  0.00    +0.000 OA
ATOM     28  C   UNL     1      11.325  12.825  17.053  0.00  0.00    +0.000 C 
ENDBRANCH  14  27
TORSDOF 3
ENDMDL
MODEL 6
REMARK VINA RESULT:      -6.4      5.847     10.616
REMARK  Name = 
REMARK  5 active torsions:
REMARK  status: ('A' for Active; 'I' for Inactive)
REMARK    1  A    between atoms: C_1  and  O_2
REMARK    2  A    between atoms: O_2  and  C_3
REMARK    3  A    between atoms: C_11  and  O_12
REMARK    4  A    between atoms: C_17  and  O_18
REMARK    5  A    between atoms: O_18  and  C_19
REMARK                            x       y       z     vdW  Elec       q    Type
REMARK                         _______ _______ _______ _____ _____    ______ ____
ROOT
ATOM      1  C   UNL     1       1.708   8.836  19.370  0.00  0.00    +0.000 A 
ATOM      2  C   UNL     1       2.590   8.000  18.687  0.00  0.00    +0.000 A 
ATOM      3  C   UNL     1       2.709   6.619  18.947  0.00  0.00    +0.000 A 
ATOM      4  C   UNL     1       3.515   5.791  18.126  0.00  0.00    +0.000 A 
ATOM      5  C   UNL     1       3.604   4.407  18.354  0.00  0.00    +0.000 A 
ATOM      6  C   UNL     1       2.877   3.831  19.433  0.00  0.00    +0.000 A 
ATOM      7  C   UNL     1       2.886   2.429  19.661  0.00  0.00    +0.000 A 
ATOM      8  C   UNL     1       2.232   1.833  20.734  0.00  0.00    +0.000 A 
ATOM      9  C   UNL     1       1.556   2.640  21.621  0.00  0.00    +0.000 A 
ATOM     10  C   UNL     1       1.480   4.016  21.413  0.00  0.00    +0.000 A 
ATOM     11  C   UNL     1       2.107   4.654  20.306  0.00  0.00    +0.000 A 
ATOM     12  C   UNL     1       1.983   6.067  20.032  0.00  0.00    +0.000 A 
ATOM     13  C   UNL     1       1.144   6.961  20.772  0.00  0.00    +0.000 A 
ATOM     14  C   UNL     1       0.985   8.319  20.442  0.00  0.00    +0.000 A 
ATOM     15  C   UNL     1       4.397   3.513  17.410  0.00  0.00    +0.000 C 
ATOM     16  N   UNL     1       5.239   4.125  16.374  0.00  0.00    +0.000 NA
ATOM     17  C   UNL     1       6.633   4.248  16.778  0.00  0.00    +0.000 C 
ATOM     18  C   UNL     1       7.523   4.674  15.618  0.00  0.00    +0.000 C 
ATOM     19  C   UNL     1       6.993   5.816  14.764  0.00  0.00    +0.000 C 
ATOM     20  C   UNL     1       5.481   6.027  14.751  0.00  0.00    +0.000 C 
ATOM     21  C   UNL     1       4.654   5.359  15.863  0.00  0.00    +0.000 C 
ATOM     22  C   UNL     1       4.298   6.376  16.958  0.00  0.00    +0.000 C 
ENDROOT
BRANCH   1  24
ATOM     23  C   UNL     1       2.194  10.593  17.856  0.00  0.00    +0.000 C 
ATOM     24  O   UNL     1       1.537  10.161  19.045  0.00  0.00    +0.000 OA
ENDBRANCH   1  24
BRANCH   9  25
ATOM     25  O   UNL     1       0.939   2.116  22.719  0.00  0.00    +0.000 OA
ATOM     26  H   UNL     1      -0.021   2.248  22.624  0.00  0.00    +0.000 HD
ENDBRANCH   9  25
BRANCH  14  27
ATOM     27  O   UNL     1       0.154   9.199  21.082  0.00  0.00    +0.000 OA
ATOM     28  C   UNL     1       0.389   9.473  22.456  0.00  0.00    +0.000 C 
ENDBRANCH  14  27
TORSDOF 3
ENDMDL
MODEL 7
REMARK VINA RESULT:      -6.4      3.291      6.929
REMARK  Name = 
REMARK  5 active torsions:
REMARK  status: ('A' for Active; 'I' for Inactive)
REMARK    1  A    between atoms: C_1  and  O_2
REMARK    2  A    between atoms: O_2  and  C_3
REMARK    3  A    between atoms: C_11  and  O_12
REMARK    4  A    between atoms: C_17  and  O_18
REMARK    5  A    between atoms: O_18  and  C_19
REMARK                            x       y       z     vdW  Elec       q    Type
REMARK                         _______ _______ _______ _____ _____    ______ ____
ROOT
ATOM      1  C   UNL     1      -3.944  11.356  17.621  0.00  0.00    +0.000 A 
ATOM      2  C   UNL     1      -2.718  11.884  18.023  0.00  0.00    +0.000 A 
ATOM      3  C   UNL     1      -2.489  12.425  19.306  0.00  0.00    +0.000 A 
ATOM      4  C   UNL     1      -1.187  12.813  19.709  0.00  0.00    +0.000 A 
ATOM      5  C   UNL     1      -0.945  13.313  21.001  0.00  0.00    +0.000 A 
ATOM      6  C   UNL     1      -2.028  13.435  21.915  0.00  0.00    +0.000 A 
ATOM      7  C   UNL     1      -1.819  13.873  23.249  0.00  0.00    +0.000 A 
ATOM      8  C   UNL     1      -2.857  14.056  24.157  0.00  0.00    +0.000 A 
ATOM      9  C   UNL     1      -4.146  13.812  23.738  0.00  0.00    +0.000 A 
ATOM     10  C   UNL     1      -4.395  13.336  22.452  0.00  0.00    +0.000 A 
ATOM     11  C   UNL     1      -3.355  13.104  21.510  0.00  0.00    +0.000 A 
ATOM     12  C   UNL     1      -3.583  12.546  20.198  0.00  0.00    +0.000 A 
ATOM     13  C   UNL     1      -4.853  12.071  19.734  0.00  0.00    +0.000 A 
ATOM     14  C   UNL     1      -5.037  11.466  18.478  0.00  0.00    +0.000 A 
ATOM     15  C   UNL     1       0.472  13.639  21.455  0.00  0.00    +0.000 C 
ATOM     16  N   UNL     1       1.565  13.624  20.474  0.00  0.00    +0.000 NA
ATOM     17  C   UNL     1       1.865  14.947  19.943  0.00  0.00    +0.000 C 
ATOM     18  C   UNL     1       3.137  14.947  19.104  0.00  0.00    +0.000 C 
ATOM     19  C   UNL     1       3.270  13.803  18.110  0.00  0.00    +0.000 C 
ATOM     20  C   UNL     1       2.495  12.524  18.417  0.00  0.00    +0.000 C 
ATOM     21  C   UNL     1       1.362  12.603  19.454  0.00  0.00    +0.000 C 
ATOM     22  C   UNL     1      -0.004  12.686  18.757  0.00  0.00    +0.000 C 
ENDROOT
BRANCH   1  24
ATOM     23  C   UNL     1      -3.027  10.832  15.501  0.00  0.00    +0.000 C 
ATOM     24  O   UNL     1      -4.129  10.752  16.401  0.00  0.00    +0.000 OA
ENDBRANCH   1  24
BRANCH   9  25
ATOM     25  O   UNL     1      -5.207  14.022  24.569  0.00  0.00    +0.000 OA
ATOM     26  H   UNL     1      -4.928  13.821  25.480  0.00  0.00    +0.000 HD
ENDBRANCH   9  25
BRANCH  14  27
ATOM     27  O   UNL     1      -6.215  10.947  18.013  0.00  0.00    +0.000 OA
ATOM     28  C   UNL     1      -6.967  10.099  18.871  0.00  0.00    +0.000 C 
ENDBRANCH  14  27
TORSDOF 3
ENDMDL
MODEL 8
REMARK VINA RESULT:      -6.3      4.444      7.610
REMARK  Name = 
REMARK  5 active torsions:
REMARK  status: ('A' for Active; 'I' for Inactive)
REMARK    1  A    between atoms: C_1  and  O_2
REMARK    2  A    between atoms: O_2  and  C_3
REMARK    3  A    between atoms: C_11  and  O_12
REMARK    4  A    between atoms: C_17  and  O_18
REMARK    5  A    between atoms: O_18  and  C_19
REMARK                            x       y       z     vdW  Elec       q    Type
REMARK                         _______ _______ _______ _____ _____    ______ ____
ROOT
ATOM      1  C   UNL     1       2.581  15.065  18.588  0.00  0.00    +0.000 A 
ATOM      2  C   UNL     1       2.352  13.704  18.783  0.00  0.00    +0.000 A 
ATOM      3  C   UNL     1       1.466  13.198  19.759  0.00  0.00    +0.000 A 
ATOM      4  C   UNL     1       1.162  11.815  19.816  0.00  0.00    +0.000 A 
ATOM      5  C   UNL     1       0.248  11.311  20.758  0.00  0.00    +0.000 A 
ATOM      6  C   UNL     1      -0.375  12.206  21.671  0.00  0.00    +0.000 A 
ATOM      7  C   UNL     1      -1.352  11.750  22.596  0.00  0.00    +0.000 A 
ATOM      8  C   UNL     1      -1.946  12.582  23.539  0.00  0.00    +0.000 A 
ATOM      9  C   UNL     1      -1.561  13.902  23.586  0.00  0.00    +0.000 A 
ATOM     10  C   UNL     1      -0.639  14.405  22.669  0.00  0.00    +0.000 A 
ATOM     11  C   UNL     1      -0.040  13.591  21.668  0.00  0.00    +0.000 A 
ATOM     12  C   UNL     1       0.862  14.105  20.664  0.00  0.00    +0.000 A 
ATOM     13  C   UNL     1       1.175  15.493  20.497  0.00  0.00    +0.000 A 
ATOM     14  C   UNL     1       2.002  15.977  19.467  0.00  0.00    +0.000 A 
ATOM     15  C   UNL     1      -0.143   9.839  20.750  0.00  0.00    +0.000 C 
ATOM     16  N   UNL     1       0.590   8.902  19.887  0.00  0.00    +0.000 NA
ATOM     17  C   UNL     1       1.652   8.199  20.593  0.00  0.00    +0.000 C 
ATOM     18  C   UNL     1       2.248   7.079  19.748  0.00  0.00    +0.000 C 
ATOM     19  C   UNL     1       2.555   7.437  18.302  0.00  0.00    +0.000 C 
ATOM     20  C   UNL     1       1.759   8.586  17.688  0.00  0.00    +0.000 C 
ATOM     21  C   UNL     1       1.013   9.532  18.643  0.00  0.00    +0.000 C 
ATOM     22  C   UNL     1       1.806  10.833  18.846  0.00  0.00    +0.000 C 
ENDROOT
BRANCH   1  24
ATOM     23  C   UNL     1       4.770  15.280  17.709  0.00  0.00    +0.000 C 
ATOM     24  O   UNL     1       3.377  15.547  17.576  0.00  0.00    +0.000 OA
ENDBRANCH   1  24
BRANCH   9  25
ATOM     25  O   UNL     1      -2.072  14.752  24.523  0.00  0.00    +0.000 OA
ATOM     26  H   UNL     1      -2.550  14.224  25.187  0.00  0.00    +0.000 HD
ENDBRANCH   9  25
BRANCH  14  27
ATOM     27  O   UNL     1       2.285  17.296  19.232  0.00  0.00    +0.000 OA
ATOM     28  C   UNL     1       1.210  18.177  18.940  0.00  0.00    +0.000 C 
ENDBRANCH  14  27
TORSDOF 3
ENDMDL
MODEL 9
REMARK VINA RESULT:      -6.2      1.782      2.265
REMARK  Name = 
REMARK  5 active torsions:
REMARK  status: ('A' for Active; 'I' for Inactive)
REMARK    1  A    between atoms: C_1  and  O_2
REMARK    2  A    between atoms: O_2  and  C_3
REMARK    3  A    between atoms: C_11  and  O_12
REMARK    4  A    between atoms: C_17  and  O_18
REMARK    5  A    between atoms: O_18  and  C_19
REMARK                            x       y       z     vdW  Elec       q    Type
REMARK                         _______ _______ _______ _____ _____    ______ ____
ROOT
ATOM      1  C   UNL     1       0.985  12.437  20.402  0.00  0.00    +0.000 A 
ATOM      2  C   UNL     1      -0.134  12.972  21.039  0.00  0.00    +0.000 A 
ATOM      3  C   UNL     1      -1.452  12.804  20.564  0.00  0.00    +0.000 A 
ATOM      4  C   UNL     1      -2.561  13.244  21.329  0.00  0.00    +0.000 A 
ATOM      5  C   UNL     1      -3.878  13.041  20.882  0.00  0.00    +0.000 A 
ATOM      6  C   UNL     1      -4.098  12.387  19.637  0.00  0.00    +0.000 A 
ATOM      7  C   UNL     1      -5.412  12.104  19.178  0.00  0.00    +0.000 A 
ATOM      8  C   UNL     1      -5.670  11.514  17.945  0.00  0.00    +0.000 A 
ATOM      9  C   UNL     1      -4.606  11.203  17.129  0.00  0.00    +0.000 A 
ATOM     10  C   UNL     1      -3.297  11.421  17.558  0.00  0.00    +0.000 A 
ATOM     11  C   UNL     1      -2.996  11.988  18.826  0.00  0.00    +0.000 A 
ATOM     12  C   UNL     1      -1.648  12.157  19.319  0.00  0.00    +0.000 A 
ATOM     13  C   UNL     1      -0.478  11.686  18.641  0.00  0.00    +0.000 A 
ATOM     14  C   UNL     1       0.819  11.800  19.174  0.00  0.00    +0.000 A 
ATOM     15  C   UNL     1      -5.064  13.434  21.754  0.00  0.00    +0.000 C 
ATOM     16  N   UNL     1      -4.833  14.213  22.977  0.00  0.00    +0.000 NA
ATOM     17  C   UNL     1      -5.022  15.644  22.779  0.00  0.00    +0.000 C 
ATOM     18  C   UNL     1      -4.999  16.406  24.098  0.00  0.00    +0.000 C 
ATOM     19  C   UNL     1      -3.882  16.026  25.060  0.00  0.00    +0.000 C 
ATOM     20  C   UNL     1      -3.292  14.625  24.916  0.00  0.00    +0.000 C 
ATOM     21  C   UNL     1      -3.569  13.860  23.612  0.00  0.00    +0.000 C 
ATOM     22  C   UNL     1      -2.359  13.939  22.669  0.00  0.00    +0.000 C 
ENDROOT
BRANCH   1  24
ATOM     23  C   UNL     1       2.837  13.831  20.887  0.00  0.00    +0.000 C 
ATOM     24  O   UNL     1       2.254  12.532  20.922  0.00  0.00    +0.000 OA
ENDBRANCH   1  24
BRANCH   9  25
ATOM     25  O   UNL     1      -4.802  10.670  15.890  0.00  0.00    +0.000 OA
ATOM     26  H   UNL     1      -4.455  11.295  15.228  0.00  0.00    +0.000 HD
ENDBRANCH   9  25
BRANCH  14  27
ATOM     27  O   UNL     1       1.961  11.317  18.593  0.00  0.00    +0.000 OA
ATOM     28  C   UNL     1       1.934  10.011  18.032  0.00  0.00    +0.000 C 
ENDBRANCH  14  27
TORSDOF 3
ENDMDL
