MODEL 1
REMARK VINA RESULT:      -8.1      0.000      0.000
REMARK  Name = 
REMARK  12 active torsions:
REMARK  status: ('A' for Active; 'I' for Inactive)
REMARK    1  A    between atoms: C_1  and  C_2
REMARK    2  A    between atoms: C_2  and  O_3
REMARK    3  A    between atoms: O_3  and  C_4
REMARK    4  A    between atoms: C_4  and  C_6
REMARK    5  A    between atoms: N_7  and  C_8
REMARK    6  A    between atoms: N_12  and  C_13
REMARK    7  A    between atoms: C_16  and  N_17
REMARK    8  A    between atoms: N_20  and  C_21
REMARK    9  A    between atoms: C_27  and  N_28
REMARK   10  A    between atoms: N_28  and  C_29
REMARK   11  A    between atoms: C_29  and  C_30
REMARK   12  A    between atoms: C_29  and  C_31
REMARK                            x       y       z     vdW  Elec       q    Type
REMARK                         _______ _______ _______ _____ _____    ______ ____
ROOT
ATOM      1  C   UNL     1       4.411   4.931  17.190  0.00  0.00    +0.000 A 
ATOM      2  C   UNL     1       4.641   6.215  17.628  0.00  0.00    +0.000 A 
ATOM      3  N   UNL     1       3.943   6.812  18.609  0.00  0.00    +0.000 NA
ATOM      4  C   UNL     1       2.966   6.094  19.189  0.00  0.00    +0.000 A 
ATOM      5  N   UNL     1       2.130   6.714  20.120  0.00  0.00    +0.000 N 
ATOM      6  N   UNL     1       2.727   4.799  18.914  0.00  0.00    +0.000 NA
ATOM      7  C   UNL     1       3.414   4.238  17.902  0.00  0.00    +0.000 A 
ATOM      8  H   UNL     1       1.415   6.049  20.390  0.00  0.00    +0.000 HD
ENDROOT
BRANCH   5   9
ATOM      9  C   UNL     1       1.666   8.043  20.081  0.00  0.00    +0.000 A 
ATOM     10  C   UNL     1       1.234   8.742  21.213  0.00  0.00    +0.000 A 
ATOM     11  C   UNL     1       0.820  10.080  21.126  0.00  0.00    +0.000 A 
ATOM     12  C   UNL     1       0.824  10.777  19.911  0.00  0.00    +0.000 A 
ATOM     13  C   UNL     1       1.232  10.056  18.780  0.00  0.00    +0.000 A 
ATOM     14  C   UNL     1       1.657   8.721  18.865  0.00  0.00    +0.000 A 
BRANCH  12  15
ATOM     15  N   UNL     1       0.534  12.131  19.871  0.00  0.00    +0.000 N 
ATOM     16  C   UNL     1      -0.661  12.627  19.173  0.00  0.00    +0.000 C 
ATOM     17  C   UNL     1      -0.376  14.036  18.609  0.00  0.00    +0.000 C 
ATOM     18  N   UNL     1       0.049  14.996  19.652  0.00  0.00    +0.000 NA
ATOM     19  C   UNL     1       0.356  16.291  19.045  0.00  0.00    +0.000 C 
ATOM     20  C   UNL     1       1.234  14.454  20.358  0.00  0.00    +0.000 C 
ATOM     21  C   UNL     1       1.001  13.034  20.939  0.00  0.00    +0.000 C 
ENDBRANCH  12  15
ENDBRANCH   5   9
BRANCH   1  23
ATOM     22  C   UNL     1       6.036   5.198  15.562  0.00  0.00    +0.000 C 
ATOM     23  N   UNL     1       5.119   4.439  16.067  0.00  0.00    +0.000 NA
BRANCH  22  24
ATOM     24  C   UNL     1       6.863   4.739  14.395  0.00  0.00    +0.000 C 
ATOM     25  O   UNL     1       7.758   5.430  13.946  0.00  0.00    +0.000 OA
BRANCH  24  26
ATOM     26  O   UNL     1       6.309   3.629  13.875  0.00  0.00    +0.000 OA
BRANCH  26  28
ATOM     27  C   UNL     1       4.939   3.328  11.954  0.00  0.00    +0.000 C 
ATOM     28  C   UNL     1       6.358   3.549  12.447  0.00  0.00    +0.000 C 
ENDBRANCH  26  28
ENDBRANCH  24  26
ENDBRANCH  22  24
ENDBRANCH   1  23
BRANCH   7  29
ATOM     29  N   UNL     1       3.165   2.902  17.533  0.00  0.00    +0.000 N 
ATOM     30  H   UNL     1       2.420   2.865  16.844  0.00  0.00    +0.000 HD
BRANCH  29  31
ATOM     31  C   UNL     1       3.132   1.861  18.549  0.00  0.00    +0.000 C 
ATOM     32  C   UNL     1       4.178   2.102  19.629  0.00  0.00    +0.000 C 
ATOM     33  C   UNL     1       1.727   1.883  19.164  0.00  0.00    +0.000 C 
ENDBRANCH  29  31
ENDBRANCH   7  29
TORSDOF 8
ENDMDL
MODEL 2
REMARK VINA RESULT:      -7.8      5.386      6.425
REMARK  Name = 
REMARK  12 active torsions:
REMARK  status: ('A' for Active; 'I' for Inactive)
REMARK    1  A    between atoms: C_1  and  C_2
REMARK    2  A    between atoms: C_2  and  O_3
REMARK    3  A    between atoms: O_3  and  C_4
REMARK    4  A    between atoms: C_4  and  C_6
REMARK    5  A    between atoms: N_7  and  C_8
REMARK    6  A    between atoms: N_12  and  C_13
REMARK    7  A    between atoms: C_16  and  N_17
REMARK    8  A    between atoms: N_20  and  C_21
REMARK    9  A    between atoms: C_27  and  N_28
REMARK   10  A    between atoms: N_28  and  C_29
REMARK   11  A    between atoms: C_29  and  C_30
REMARK   12  A    between atoms: C_29  and  C_31
REMARK                            x       y       z     vdW  Elec       q    Type
REMARK                         _______ _______ _______ _____ _____    ______ ____
ROOT
ATOM      1  C   UNL     1       5.787   4.610  15.132  0.00  0.00    +0.000 A 
ATOM      2  C   UNL     1       6.927   5.376  15.044  0.00  0.00    +0.000 A 
ATOM      3  N   UNL     1       7.514   5.977  16.094  0.00  0.00    +0.000 NA
ATOM      4  C   UNL     1       6.939   5.805  17.296  0.00  0.00    +0.000 A 
ATOM      5  N   UNL     1       7.434   6.515  18.392  0.00  0.00    +0.000 N 
ATOM      6  N   UNL     1       5.888   4.994  17.513  0.00  0.00    +0.000 NA
ATOM      7  C   UNL     1       5.298   4.436  16.440  0.00  0.00    +0.000 A 
ATOM      8  H   UNL     1       6.837   6.320  19.187  0.00  0.00    +0.000 HD
ENDROOT
BRANCH   5   9
ATOM      9  C   UNL     1       7.940   7.829  18.386  0.00  0.00    +0.000 A 
ATOM     10  C   UNL     1       8.896   8.292  19.296  0.00  0.00    +0.000 A 
ATOM     11  C   UNL     1       9.398   9.601  19.219  0.00  0.00    +0.000 A 
ATOM     12  C   UNL     1       8.972  10.499  18.232  0.00  0.00    +0.000 A 
ATOM     13  C   UNL     1       7.993  10.031  17.344  0.00  0.00    +0.000 A 
ATOM     14  C   UNL     1       7.497   8.719  17.410  0.00  0.00    +0.000 A 
BRANCH  12  15
ATOM     15  N   UNL     1       9.573  11.739  18.097  0.00  0.00    +0.000 N 
ATOM     16  C   UNL     1       9.074  12.904  18.841  0.00  0.00    +0.000 C 
ATOM     17  C   UNL     1       9.322  14.184  18.012  0.00  0.00    +0.000 C 
ATOM     18  N   UNL     1      10.746  14.370  17.656  0.00  0.00    +0.000 NA
ATOM     19  C   UNL     1      10.904  15.565  16.828  0.00  0.00    +0.000 C 
ATOM     20  C   UNL     1      11.229  13.167  16.939  0.00  0.00    +0.000 C 
ATOM     21  C   UNL     1      10.997  11.851  17.727  0.00  0.00    +0.000 C 
ENDBRANCH  12  15
ENDBRANCH   5   9
BRANCH   1  23
ATOM     22  C   UNL     1       5.937   3.511  13.099  0.00  0.00    +0.000 C 
ATOM     23  N   UNL     1       5.180   4.124  13.950  0.00  0.00    +0.000 NA
BRANCH  22  24
ATOM     24  C   UNL     1       5.368   2.928  11.838  0.00  0.00    +0.000 C 
ATOM     25  O   UNL     1       5.842   1.926  11.336  0.00  0.00    +0.000 OA
BRANCH  24  26
ATOM     26  O   UNL     1       4.470   3.788  11.323  0.00  0.00    +0.000 OA
BRANCH  26  28
ATOM     27  C   UNL     1       2.904   4.182   9.577  0.00  0.00    +0.000 C 
ATOM     28  C   UNL     1       3.402   3.173  10.596  0.00  0.00    +0.000 C 
ENDBRANCH  26  28
ENDBRANCH  24  26
ENDBRANCH  22  24
ENDBRANCH   1  23
BRANCH   7  29
ATOM     29  N   UNL     1       4.160   3.622  16.602  0.00  0.00    +0.000 N 
ATOM     30  H   UNL     1       3.544   3.721  15.801  0.00  0.00    +0.000 HD
BRANCH  29  31
ATOM     31  C   UNL     1       3.498   3.547  17.896  0.00  0.00    +0.000 C 
ATOM     32  C   UNL     1       2.036   3.962  17.800  0.00  0.00    +0.000 C 
ATOM     33  C   UNL     1       3.603   2.092  18.368  0.00  0.00    +0.000 C 
ENDBRANCH  29  31
ENDBRANCH   7  29
TORSDOF 8
ENDMDL
MODEL 3
REMARK VINA RESULT:      -7.8      0.912      1.439
REMARK  Name = 
REMARK  12 active torsions:
REMARK  status: ('A' for Active; 'I' for Inactive)
REMARK    1  A    between atoms: C_1  and  C_2
REMARK    2  A    between atoms: C_2  and  O_3
REMARK    3  A    between atoms: O_3  and  C_4
REMARK    4  A    between atoms: C_4  and  C_6
REMARK    5  A    between atoms: N_7  and  C_8
REMARK    6  A    between atoms: N_12  and  C_13
REMARK    7  A    between atoms: C_16  and  N_17
REMARK    8  A    between atoms: N_20  and  C_21
REMARK    9  A    between atoms: C_27  and  N_28
REMARK   10  A    between atoms: N_28  and  C_29
REMARK   11  A    between atoms: C_29  and  C_30
REMARK   12  A    between atoms: C_29  and  C_31
REMARK                            x       y       z     vdW  Elec       q    Type
REMARK                         _______ _______ _______ _____ _____    ______ ____
ROOT
ATOM      1  C   UNL     1       4.080   5.383  17.297  0.00  0.00    +0.000 A 
ATOM      2  C   UNL     1       4.348   6.683  17.661  0.00  0.00    +0.000 A 
ATOM      3  N   UNL     1       3.677   7.351  18.613  0.00  0.00    +0.000 NA
ATOM      4  C   UNL     1       2.688   6.693  19.242  0.00  0.00    +0.000 A 
ATOM      5  N   UNL     1       1.879   7.386  20.144  0.00  0.00    +0.000 N 
ATOM      6  N   UNL     1       2.413   5.392  19.042  0.00  0.00    +0.000 NA
ATOM      7  C   UNL     1       3.074   4.758  18.056  0.00  0.00    +0.000 A 
ATOM      8  H   UNL     1       1.150   6.756  20.458  0.00  0.00    +0.000 HD
ENDROOT
BRANCH   5   9
ATOM      9  C   UNL     1       1.449   8.722  20.036  0.00  0.00    +0.000 A 
ATOM     10  C   UNL     1       1.298   9.388  18.816  0.00  0.00    +0.000 A 
ATOM     11  C   UNL     1       0.825  10.708  18.762  0.00  0.00    +0.000 A 
ATOM     12  C   UNL     1       0.478  11.417  19.920  0.00  0.00    +0.000 A 
ATOM     13  C   UNL     1       0.660  10.747  21.138  0.00  0.00    +0.000 A 
ATOM     14  C   UNL     1       1.123   9.422  21.196  0.00  0.00    +0.000 A 
BRANCH  12  15
ATOM     15  N   UNL     1      -0.107  12.669  19.834  0.00  0.00    +0.000 N 
ATOM     16  C   UNL     1      -0.065  13.438  18.582  0.00  0.00    +0.000 C 
ATOM     17  C   UNL     1      -0.040  14.947  18.908  0.00  0.00    +0.000 C 
ATOM     18  N   UNL     1      -1.188  15.373  19.738  0.00  0.00    +0.000 NA
ATOM     19  C   UNL     1      -1.076  16.796  20.058  0.00  0.00    +0.000 C 
ATOM     20  C   UNL     1      -1.224  14.559  20.976  0.00  0.00    +0.000 C 
ATOM     21  C   UNL     1      -1.243  13.032  20.702  0.00  0.00    +0.000 C 
ENDBRANCH  12  15
ENDBRANCH   5   9
BRANCH   1  23
ATOM     22  C   UNL     1       5.738   5.487  15.683  0.00  0.00    +0.000 C 
ATOM     23  N   UNL     1       4.763   4.811  16.197  0.00  0.00    +0.000 NA
BRANCH  22  24
ATOM     24  C   UNL     1       6.542   4.938  14.540  0.00  0.00    +0.000 C 
ATOM     25  O   UNL     1       7.628   5.404  14.251  0.00  0.00    +0.000 OA
BRANCH  24  26
ATOM     26  O   UNL     1       5.783   4.070  13.847  0.00  0.00    +0.000 OA
BRANCH  26  28
ATOM     27  C   UNL     1       5.253   3.000  11.790  0.00  0.00    +0.000 C 
ATOM     28  C   UNL     1       6.365   3.612  12.622  0.00  0.00    +0.000 C 
ENDBRANCH  26  28
ENDBRANCH  24  26
ENDBRANCH  22  24
ENDBRANCH   1  23
BRANCH   7  29
ATOM     29  N   UNL     1       2.786   3.410  17.765  0.00  0.00    +0.000 N 
ATOM     30  H   UNL     1       2.080   3.355  17.036  0.00  0.00    +0.000 HD
BRANCH  29  31
ATOM     31  C   UNL     1       2.648   2.446  18.846  0.00  0.00    +0.000 C 
ATOM     32  C   UNL     1       1.206   1.982  19.000  0.00  0.00    +0.000 C 
ATOM     33  C   UNL     1       3.550   1.255  18.500  0.00  0.00    +0.000 C 
ENDBRANCH  29  31
ENDBRANCH   7  29
TORSDOF 8
ENDMDL
MODEL 4
REMARK VINA RESULT:      -7.8      0.697      1.109
REMARK  Name = 
REMARK  12 active torsions:
REMARK  status: ('A' for Active; 'I' for Inactive)
REMARK    1  A    between atoms: C_1  and  C_2
REMARK    2  A    between atoms: C_2  and  O_3
REMARK    3  A    between atoms: O_3  and  C_4
REMARK    4  A    between atoms: C_4  and  C_6
REMARK    5  A    between atoms: N_7  and  C_8
REMARK    6  A    between atoms: N_12  and  C_13
REMARK    7  A    between atoms: C_16  and  N_17
REMARK    8  A    between atoms: N_20  and  C_21
REMARK    9  A    between atoms: C_27  and  N_28
REMARK   10  A    between atoms: N_28  and  C_29
REMARK   11  A    between atoms: C_29  and  C_30
REMARK   12  A    between atoms: C_29  and  C_31
REMARK                            x       y       z     vdW  Elec       q    Type
REMARK                         _______ _______ _______ _____ _____    ______ ____
ROOT
ATOM      1  C   UNL     1       4.355   4.922  17.429  0.00  0.00    +0.000 A 
ATOM      2  C   UNL     1       4.669   6.080  18.102  0.00  0.00    +0.000 A 
ATOM      3  N   UNL     1       3.825   6.726  18.924  0.00  0.00    +0.000 NA
ATOM      4  C   UNL     1       2.604   6.190  19.091  0.00  0.00    +0.000 A 
ATOM      5  N   UNL     1       1.650   6.894  19.829  0.00  0.00    +0.000 N 
ATOM      6  N   UNL     1       2.229   5.010  18.568  0.00  0.00    +0.000 NA
ATOM      7  C   UNL     1       3.079   4.404  17.718  0.00  0.00    +0.000 A 
ATOM      8  H   UNL     1       0.778   6.380  19.784  0.00  0.00    +0.000 HD
ENDROOT
BRANCH   5   9
ATOM      9  C   UNL     1       1.470   8.290  19.861  0.00  0.00    +0.000 A 
ATOM     10  C   UNL     1       1.496   9.097  18.720  0.00  0.00    +0.000 A 
ATOM     11  C   UNL     1       1.268  10.480  18.803  0.00  0.00    +0.000 A 
ATOM     12  C   UNL     1       1.002  11.113  20.024  0.00  0.00    +0.000 A 
ATOM     13  C   UNL     1       1.007  10.296  21.164  0.00  0.00    +0.000 A 
ATOM     14  C   UNL     1       1.223   8.911  21.083  0.00  0.00    +0.000 A 
BRANCH  12  15
ATOM     15  N   UNL     1       0.655  12.453  20.065  0.00  0.00    +0.000 N 
ATOM     16  C   UNL     1      -0.564  12.895  20.758  0.00  0.00    +0.000 C 
ATOM     17  C   UNL     1      -1.125  14.151  20.055  0.00  0.00    +0.000 C 
ATOM     18  N   UNL     1      -0.143  15.255  19.982  0.00  0.00    +0.000 NA
ATOM     19  C   UNL     1      -0.715  16.389  19.257  0.00  0.00    +0.000 C 
ATOM     20  C   UNL     1       1.086  14.770  19.310  0.00  0.00    +0.000 C 
ATOM     21  C   UNL     1       1.686  13.503  19.975  0.00  0.00    +0.000 C 
ENDBRANCH  12  15
ENDBRANCH   5   9
BRANCH   1  23
ATOM     22  C   UNL     1       5.637   5.153  15.515  0.00  0.00    +0.000 C 
ATOM     23  N   UNL     1       5.271   4.389  16.491  0.00  0.00    +0.000 NA
BRANCH  22  24
ATOM     24  C   UNL     1       6.636   4.683  14.497  0.00  0.00    +0.000 C 
ATOM     25  O   UNL     1       7.613   5.351  14.216  0.00  0.00    +0.000 OA
BRANCH  24  26
ATOM     26  O   UNL     1       6.149   3.594  13.874  0.00  0.00    +0.000 OA
BRANCH  26  28
ATOM     27  C   UNL     1       4.991   3.187  11.837  0.00  0.00    +0.000 C 
ATOM     28  C   UNL     1       6.318   3.593  12.453  0.00  0.00    +0.000 C 
ENDBRANCH  26  28
ENDBRANCH  24  26
ENDBRANCH  22  24
ENDBRANCH   1  23
BRANCH   7  29
ATOM     29  N   UNL     1       2.716   3.192  17.098  0.00  0.00    +0.000 N 
ATOM     30  H   UNL     1       2.029   3.367  16.370  0.00  0.00    +0.000 HD
BRANCH  29  31
ATOM     31  C   UNL     1       2.487   2.003  17.904  0.00  0.00    +0.000 C 
ATOM     32  C   UNL     1       3.643   1.745  18.860  0.00  0.00    +0.000 C 
ATOM     33  C   UNL     1       1.194   2.241  18.694  0.00  0.00    +0.000 C 
ENDBRANCH  29  31
ENDBRANCH   7  29
TORSDOF 8
ENDMDL
MODEL 5
REMARK VINA RESULT:      -7.7      1.003      1.080
REMARK  Name = 
REMARK  12 active torsions:
REMARK  status: ('A' for Active; 'I' for Inactive)
REMARK    1  A    between atoms: C_1  and  C_2
REMARK    2  A    between atoms: C_2  and  O_3
REMARK    3  A    between atoms: O_3  and  C_4
REMARK    4  A    between atoms: C_4  and  C_6
REMARK    5  A    between atoms: N_7  and  C_8
REMARK    6  A    between atoms: N_12  and  C_13
REMARK    7  A    between atoms: C_16  and  N_17
REMARK    8  A    between atoms: N_20  and  C_21
REMARK    9  A    between atoms: C_27  and  N_28
REMARK   10  A    between atoms: N_28  and  C_29
REMARK   11  A    between atoms: C_29  and  C_30
REMARK   12  A    between atoms: C_29  and  C_31
REMARK                            x       y       z     vdW  Elec       q    Type
REMARK                         _______ _______ _______ _____ _____    ______ ____
ROOT
ATOM      1  C   UNL     1       4.692   5.067  16.762  0.00  0.00    +0.000 A 
ATOM      2  C   UNL     1       4.646   6.414  17.041  0.00  0.00    +0.000 A 
ATOM      3  N   UNL     1       4.058   6.938  18.130  0.00  0.00    +0.000 NA
ATOM      4  C   UNL     1       3.488   6.078  18.991  0.00  0.00    +0.000 A 
ATOM      5  N   UNL     1       2.753   6.582  20.066  0.00  0.00    +0.000 N 
ATOM      6  N   UNL     1       3.566   4.740  18.872  0.00  0.00    +0.000 NA
ATOM      7  C   UNL     1       4.127   4.244  17.754  0.00  0.00    +0.000 A 
ATOM      8  H   UNL     1       2.339   5.798  20.557  0.00  0.00    +0.000 HD
ENDROOT
BRANCH   5   9
ATOM      9  C   UNL     1       1.937   7.729  20.065  0.00  0.00    +0.000 A 
ATOM     10  C   UNL     1       1.240   8.181  21.190  0.00  0.00    +0.000 A 
ATOM     11  C   UNL     1       0.473   9.356  21.145  0.00  0.00    +0.000 A 
ATOM     12  C   UNL     1       0.374  10.131  19.983  0.00  0.00    +0.000 A 
ATOM     13  C   UNL     1       1.055   9.651  18.854  0.00  0.00    +0.000 A 
ATOM     14  C   UNL     1       1.832   8.482  18.898  0.00  0.00    +0.000 A 
BRANCH  12  15
ATOM     15  N   UNL     1      -0.282  11.350  19.999  0.00  0.00    +0.000 N 
ATOM     16  C   UNL     1      -0.514  12.098  18.754  0.00  0.00    +0.000 C 
ATOM     17  C   UNL     1      -0.508  13.612  19.059  0.00  0.00    +0.000 C 
ATOM     18  N   UNL     1      -1.503  13.995  20.086  0.00  0.00    +0.000 NA
ATOM     19  C   UNL     1      -1.408  15.426  20.367  0.00  0.00    +0.000 C 
ATOM     20  C   UNL     1      -1.264  13.201  21.314  0.00  0.00    +0.000 C 
ATOM     21  C   UNL     1      -1.253  11.670  21.061  0.00  0.00    +0.000 C 
ENDBRANCH  12  15
ENDBRANCH   5   9
BRANCH   1  23
ATOM     22  C   UNL     1       6.358   5.131  15.154  0.00  0.00    +0.000 C 
ATOM     23  N   UNL     1       5.226   4.628  15.528  0.00  0.00    +0.000 NA
BRANCH  22  24
ATOM     24  C   UNL     1       7.016   4.692  13.878  0.00  0.00    +0.000 C 
ATOM     25  O   UNL     1       7.773   5.427  13.273  0.00  0.00    +0.000 OA
BRANCH  24  26
ATOM     26  O   UNL     1       6.470   3.528  13.481  0.00  0.00    +0.000 OA
BRANCH  26  28
ATOM     27  C   UNL     1       4.857   3.237  11.758  0.00  0.00    +0.000 C 
ATOM     28  C   UNL     1       6.337   3.383  12.064  0.00  0.00    +0.000 C 
ENDBRANCH  26  28
ENDBRANCH  24  26
ENDBRANCH  22  24
ENDBRANCH   1  23
BRANCH   7  29
ATOM     29  N   UNL     1       4.186   2.851  17.551  0.00  0.00    +0.000 N 
ATOM     30  H   UNL     1       4.125   2.642  16.559  0.00  0.00    +0.000 HD
BRANCH  29  31
ATOM     31  C   UNL     1       3.445   1.957  18.427  0.00  0.00    +0.000 C 
ATOM     32  C   UNL     1       3.864   2.127  19.881  0.00  0.00    +0.000 C 
ATOM     33  C   UNL     1       1.960   2.300  18.263  0.00  0.00    +0.000 C 
ENDBRANCH  29  31
ENDBRANCH   7  29
TORSDOF 8
ENDMDL
MODEL 6
REMARK VINA RESULT:      -7.7      5.675     11.477
REMARK  Name = 
REMARK  12 active torsions:
REMARK  status: ('A' for Active; 'I' for Inactive)
REMARK    1  A    between atoms: C_1  and  C_2
REMARK    2  A    between atoms: C_2  and  O_3
REMARK    3  A    between atoms: O_3  and  C_4
REMARK    4  A    between atoms: C_4  and  C_6
REMARK    5  A    between atoms: N_7  and  C_8
REMARK    6  A    between atoms: N_12  and  C_13
REMARK    7  A    between atoms: C_16  and  N_17
REMARK    8  A    between atoms: N_20  and  C_21
REMARK    9  A    between atoms: C_27  and  N_28
REMARK   10  A    between atoms: N_28  and  C_29
REMARK   11  A    between atoms: C_29  and  C_30
REMARK   12  A    between atoms: C_29  and  C_31
REMARK                            x       y       z     vdW  Elec       q    Type
REMARK                         _______ _______ _______ _____ _____    ______ ____
ROOT
ATOM      1  C   UNL     1      -2.358  12.484  21.122  0.00  0.00    +0.000 A 
ATOM      2  C   UNL     1      -1.124  12.014  21.511  0.00  0.00    +0.000 A 
ATOM      3  N   UNL     1      -0.244  11.432  20.679  0.00  0.00    +0.000 NA
ATOM      4  C   UNL     1      -0.607  11.313  19.390  0.00  0.00    +0.000 A 
ATOM      5  N   UNL     1       0.216  10.599  18.517  0.00  0.00    +0.000 N 
ATOM      6  N   UNL     1      -1.740  11.830  18.883  0.00  0.00    +0.000 NA
ATOM      7  C   UNL     1      -2.619  12.374  19.744  0.00  0.00    +0.000 A 
ATOM      8  H   UNL     1      -0.249  10.549  17.619  0.00  0.00    +0.000 HD
ENDROOT
BRANCH   5   9
ATOM      9  C   UNL     1       0.965   9.445  18.819  0.00  0.00    +0.000 A 
ATOM     10  C   UNL     1       1.024   8.875  20.094  0.00  0.00    +0.000 A 
ATOM     11  C   UNL     1       1.752   7.699  20.331  0.00  0.00    +0.000 A 
ATOM     12  C   UNL     1       2.447   7.041  19.308  0.00  0.00    +0.000 A 
ATOM     13  C   UNL     1       2.403   7.639  18.040  0.00  0.00    +0.000 A 
ATOM     14  C   UNL     1       1.666   8.809  17.797  0.00  0.00    +0.000 A 
BRANCH  12  15
ATOM     15  N   UNL     1       3.051   5.816  19.537  0.00  0.00    +0.000 N 
ATOM     16  C   UNL     1       4.452   5.583  19.158  0.00  0.00    +0.000 C 
ATOM     17  C   UNL     1       4.639   4.097  18.782  0.00  0.00    +0.000 C 
ATOM     18  N   UNL     1       4.238   3.175  19.869  0.00  0.00    +0.000 NA
ATOM     19  C   UNL     1       4.387   1.788  19.430  0.00  0.00    +0.000 C 
ATOM     20  C   UNL     1       2.835   3.457  20.252  0.00  0.00    +0.000 C 
ATOM     21  C   UNL     1       2.591   4.941  20.632  0.00  0.00    +0.000 C 
ENDBRANCH  12  15
ENDBRANCH   5   9
BRANCH   1  23
ATOM     22  C   UNL     1      -3.302  12.345  23.233  0.00  0.00    +0.000 C 
ATOM     23  N   UNL     1      -3.260  12.968  22.100  0.00  0.00    +0.000 NA
BRANCH  22  24
ATOM     24  C   UNL     1      -4.200  12.815  24.340  0.00  0.00    +0.000 C 
ATOM     25  O   UNL     1      -3.775  13.501  25.250  0.00  0.00    +0.000 OA
BRANCH  24  26
ATOM     26  O   UNL     1      -5.389  12.191  24.235  0.00  0.00    +0.000 OA
BRANCH  26  28
ATOM     27  C   UNL     1      -7.607  12.134  23.380  0.00  0.00    +0.000 C 
ATOM     28  C   UNL     1      -6.472  13.035  23.834  0.00  0.00    +0.000 C 
ENDBRANCH  26  28
ENDBRANCH  24  26
ENDBRANCH  22  24
ENDBRANCH   1  23
BRANCH   7  29
ATOM     29  N   UNL     1      -3.847  12.881  19.275  0.00  0.00    +0.000 N 
ATOM     30  H   UNL     1      -4.081  13.737  19.770  0.00  0.00    +0.000 HD
BRANCH  29  31
ATOM     31  C   UNL     1      -4.960  11.977  19.026  0.00  0.00    +0.000 C 
ATOM     32  C   UNL     1      -6.232  12.456  19.710  0.00  0.00    +0.000 C 
ATOM     33  C   UNL     1      -5.164  11.931  17.506  0.00  0.00    +0.000 C 
ENDBRANCH  29  31
ENDBRANCH   7  29
TORSDOF 8
ENDMDL
MODEL 7
REMARK VINA RESULT:      -7.7      1.402      2.083
REMARK  Name = 
REMARK  12 active torsions:
REMARK  status: ('A' for Active; 'I' for Inactive)
REMARK    1  A    between atoms: C_1  and  C_2
REMARK    2  A    between atoms: C_2  and  O_3
REMARK    3  A    between atoms: O_3  and  C_4
REMARK    4  A    between atoms: C_4  and  C_6
REMARK    5  A    between atoms: N_7  and  C_8
REMARK    6  A    between atoms: N_12  and  C_13
REMARK    7  A    between atoms: C_16  and  N_17
REMARK    8  A    between atoms: N_20  and  C_21
REMARK    9  A    between atoms: C_27  and  N_28
REMARK   10  A    between atoms: N_28  and  C_29
REMARK   11  A    between atoms: C_29  and  C_30
REMARK   12  A    between atoms: C_29  and  C_31
REMARK                            x       y       z     vdW  Elec       q    Type
REMARK                         _______ _______ _______ _____ _____    ______ ____
ROOT
ATOM      1  C   UNL     1       4.281   5.500  17.170  0.00  0.00    +0.000 A 
ATOM      2  C   UNL     1       4.328   6.828  17.528  0.00  0.00    +0.000 A 
ATOM      3  N   UNL     1       3.693   7.343  18.595  0.00  0.00    +0.000 NA
ATOM      4  C   UNL     1       2.976   6.492  19.349  0.00  0.00    +0.000 A 
ATOM      5  N   UNL     1       2.195   7.001  20.388  0.00  0.00    +0.000 N 
ATOM      6  N   UNL     1       2.948   5.162  19.153  0.00  0.00    +0.000 NA
ATOM      7  C   UNL     1       3.561   4.679  18.057  0.00  0.00    +0.000 A 
ATOM      8  H   UNL     1       1.673   6.233  20.793  0.00  0.00    +0.000 HD
ENDROOT
BRANCH   5   9
ATOM      9  C   UNL     1       1.485   8.217  20.392  0.00  0.00    +0.000 A 
ATOM     10  C   UNL     1       1.166   8.927  19.230  0.00  0.00    +0.000 A 
ATOM     11  C   UNL     1       0.419  10.114  19.286  0.00  0.00    +0.000 A 
ATOM     12  C   UNL     1      -0.045  10.639  20.499  0.00  0.00    +0.000 A 
ATOM     13  C   UNL     1       0.306   9.932  21.659  0.00  0.00    +0.000 A 
ATOM     14  C   UNL     1       1.044   8.738  21.606  0.00  0.00    +0.000 A 
BRANCH  12  15
ATOM     15  N   UNL     1      -0.887  11.738  20.519  0.00  0.00    +0.000 N 
ATOM     16  C   UNL     1      -0.461  13.004  21.132  0.00  0.00    +0.000 C 
ATOM     17  C   UNL     1      -1.693  13.730  21.714  0.00  0.00    +0.000 C 
ATOM     18  N   UNL     1      -2.746  13.975  20.704  0.00  0.00    +0.000 NA
ATOM     19  C   UNL     1      -3.904  14.613  21.329  0.00  0.00    +0.000 C 
ATOM     20  C   UNL     1      -3.130  12.686  20.081  0.00  0.00    +0.000 C 
ATOM     21  C   UNL     1      -1.925  11.912  19.485  0.00  0.00    +0.000 C 
ENDBRANCH  12  15
ENDBRANCH   5   9
BRANCH   1  23
ATOM     22  C   UNL     1       6.162   5.234  15.845  0.00  0.00    +0.000 C 
ATOM     23  N   UNL     1       4.883   5.082  15.959  0.00  0.00    +0.000 NA
BRANCH  22  24
ATOM     24  C   UNL     1       6.888   4.781  14.611  0.00  0.00    +0.000 C 
ATOM     25  O   UNL     1       7.726   5.485  14.078  0.00  0.00    +0.000 OA
BRANCH  24  26
ATOM     26  O   UNL     1       6.310   3.657  14.149  0.00  0.00    +0.000 OA
BRANCH  26  28
ATOM     27  C   UNL     1       6.567   2.927  11.901  0.00  0.00    +0.000 C 
ATOM     28  C   UNL     1       5.732   3.773  12.846  0.00  0.00    +0.000 C 
ENDBRANCH  26  28
ENDBRANCH  24  26
ENDBRANCH  22  24
ENDBRANCH   1  23
BRANCH   7  29
ATOM     29  N   UNL     1       3.517   3.300  17.772  0.00  0.00    +0.000 N 
ATOM     30  H   UNL     1       3.202   3.152  16.817  0.00  0.00    +0.000 HD
BRANCH  29  31
ATOM     31  C   UNL     1       2.987   2.370  18.758  0.00  0.00    +0.000 C 
ATOM     32  C   UNL     1       1.498   2.126  18.551  0.00  0.00    +0.000 C 
ATOM     33  C   UNL     1       3.764   1.058  18.596  0.00  0.00    +0.000 C 
ENDBRANCH  29  31
ENDBRANCH   7  29
TORSDOF 8
ENDMDL
MODEL 8
REMARK VINA RESULT:      -7.6      0.872      1.082
REMARK  Name = 
REMARK  12 active torsions:
REMARK  status: ('A' for Active; 'I' for Inactive)
REMARK    1  A    between atoms: C_1  and  C_2
REMARK    2  A    between atoms: C_2  and  O_3
REMARK    3  A    between atoms: O_3  and  C_4
REMARK    4  A    between atoms: C_4  and  C_6
REMARK    5  A    between atoms: N_7  and  C_8
REMARK    6  A    between atoms: N_12  and  C_13
REMARK    7  A    between atoms: C_16  and  N_17
REMARK    8  A    between atoms: N_20  and  C_21
REMARK    9  A    between atoms: C_27  and  N_28
REMARK   10  A    between atoms: N_28  and  C_29
REMARK   11  A    between atoms: C_29  and  C_30
REMARK   12  A    between atoms: C_29  and  C_31
REMARK                            x       y       z     vdW  Elec       q    Type
REMARK                         _______ _______ _______ _____ _____    ______ ____
ROOT
ATOM      1  C   UNL     1       3.971   5.342  17.393  0.00  0.00    +0.000 A 
ATOM      2  C   UNL     1       4.267   6.620  17.809  0.00  0.00    +0.000 A 
ATOM      3  N   UNL     1       3.611   7.265  18.788  0.00  0.00    +0.000 NA
ATOM      4  C   UNL     1       2.608   6.603  19.391  0.00  0.00    +0.000 A 
ATOM      5  N   UNL     1       1.814   7.277  20.321  0.00  0.00    +0.000 N 
ATOM      6  N   UNL     1       2.303   5.318  19.138  0.00  0.00    +0.000 NA
ATOM      7  C   UNL     1       2.950   4.710  18.127  0.00  0.00    +0.000 A 
ATOM      8  H   UNL     1       1.071   6.652  20.610  0.00  0.00    +0.000 HD
ENDROOT
BRANCH   5   9
ATOM      9  C   UNL     1       1.414   8.627  20.267  0.00  0.00    +0.000 A 
ATOM     10  C   UNL     1       1.164   9.403  21.403  0.00  0.00    +0.000 A 
ATOM     11  C   UNL     1       0.808  10.756  21.294  0.00  0.00    +0.000 A 
ATOM     12  C   UNL     1       0.691  11.392  20.051  0.00  0.00    +0.000 A 
ATOM     13  C   UNL     1       0.917  10.595  18.920  0.00  0.00    +0.000 A 
ATOM     14  C   UNL     1       1.284   9.244  19.025  0.00  0.00    +0.000 A 
BRANCH  12  15
ATOM     15  N   UNL     1       0.466  12.756  19.973  0.00  0.00    +0.000 N 
ATOM     16  C   UNL     1      -0.588  13.394  20.776  0.00  0.00    +0.000 C 
ATOM     17  C   UNL     1      -1.148  14.612  20.009  0.00  0.00    +0.000 C 
ATOM     18  N   UNL     1      -0.102  15.596  19.652  0.00  0.00    +0.000 NA
ATOM     19  C   UNL     1      -0.687  16.693  18.882  0.00  0.00    +0.000 C 
ATOM     20  C   UNL     1       0.960  14.917  18.874  0.00  0.00    +0.000 C 
ATOM     21  C   UNL     1       1.553  13.680  19.599  0.00  0.00    +0.000 C 
ENDBRANCH  12  15
ENDBRANCH   5   9
BRANCH   1  23
ATOM     22  C   UNL     1       5.660   5.450  15.813  0.00  0.00    +0.000 C 
ATOM     23  N   UNL     1       4.640   4.800  16.271  0.00  0.00    +0.000 NA
BRANCH  22  24
ATOM     24  C   UNL     1       6.453   4.927  14.650  0.00  0.00    +0.000 C 
ATOM     25  O   UNL     1       7.587   5.311  14.437  0.00  0.00    +0.000 OA
BRANCH  24  26
ATOM     26  O   UNL     1       5.644   4.198  13.860  0.00  0.00    +0.000 OA
BRANCH  26  28
ATOM     27  C   UNL     1       5.199   3.090  11.803  0.00  0.00    +0.000 C 
ATOM     28  C   UNL     1       6.287   3.612  12.724  0.00  0.00    +0.000 C 
ENDBRANCH  26  28
ENDBRANCH  24  26
ENDBRANCH  22  24
ENDBRANCH   1  23
BRANCH   7  29
ATOM     29  N   UNL     1       2.632   3.381  17.782  0.00  0.00    +0.000 N 
ATOM     30  H   UNL     1       1.887   3.371  17.091  0.00  0.00    +0.000 HD
BRANCH  29  31
ATOM     31  C   UNL     1       2.542   2.363  18.817  0.00  0.00    +0.000 C 
ATOM     32  C   UNL     1       1.137   1.784  18.910  0.00  0.00    +0.000 C 
ATOM     33  C   UNL     1       3.542   1.261  18.447  0.00  0.00    +0.000 C 
ENDBRANCH  29  31
ENDBRANCH   7  29
TORSDOF 8
ENDMDL
MODEL 9
REMARK VINA RESULT:      -7.6      5.184      6.111
REMARK  Name = 
REMARK  12 active torsions:
REMARK  status: ('A' for Active; 'I' for Inactive)
REMARK    1  A    between atoms: C_1  and  C_2
REMARK    2  A    between atoms: C_2  and  O_3
REMARK    3  A    between atoms: O_3  and  C_4
REMARK    4  A    between atoms: C_4  and  C_6
REMARK    5  A    between atoms: N_7  and  C_8
REMARK    6  A    between atoms: N_12  and  C_13
REMARK    7  A    between atoms: C_16  and  N_17
REMARK    8  A    between atoms: N_20  and  C_21
REMARK    9  A    between atoms: C_27  and  N_28
REMARK   10  A    between atoms: N_28  and  C_29
REMARK   11  A    between atoms: C_29  and  C_30
REMARK   12  A    between atoms: C_29  and  C_31
REMARK                            x       y       z     vdW  Elec       q    Type
REMARK                         _______ _______ _______ _____ _____    ______ ____
ROOT
ATOM      1  C   UNL     1       6.039   4.454  15.514  0.00  0.00    +0.000 A 
ATOM      2  C   UNL     1       7.057   5.342  15.252  0.00  0.00    +0.000 A 
ATOM      3  N   UNL     1       7.672   6.081  16.191  0.00  0.00    +0.000 NA
ATOM      4  C   UNL     1       7.255   5.927  17.459  0.00  0.00    +0.000 A 
ATOM      5  N   UNL     1       7.772   6.767  18.448  0.00  0.00    +0.000 N 
ATOM      6  N   UNL     1       6.345   5.014  17.841  0.00  0.00    +0.000 NA
ATOM      7  C   UNL     1       5.719   4.315  16.877  0.00  0.00    +0.000 A 
ATOM      8  H   UNL     1       7.293   6.559  19.317  0.00  0.00    +0.000 HD
ENDROOT
BRANCH   5   9
ATOM      9  C   UNL     1       8.103   8.129  18.310  0.00  0.00    +0.000 A 
ATOM     10  C   UNL     1       7.525   8.970  17.354  0.00  0.00    +0.000 A 
ATOM     11  C   UNL     1       7.861  10.331  17.286  0.00  0.00    +0.000 A 
ATOM     12  C   UNL     1       8.781  10.910  18.169  0.00  0.00    +0.000 A 
ATOM     13  C   UNL     1       9.374  10.049  19.105  0.00  0.00    +0.000 A 
ATOM     14  C   UNL     1       9.032   8.690  19.183  0.00  0.00    +0.000 A 
BRANCH  12  15
ATOM     15  N   UNL     1       9.000  12.278  18.167  0.00  0.00    +0.000 N 
ATOM     16  C   UNL     1      10.335  12.827  17.894  0.00  0.00    +0.000 C 
ATOM     17  C   UNL     1      10.511  14.152  18.668  0.00  0.00    +0.000 C 
ATOM     18  N   UNL     1       9.466  15.149  18.346  0.00  0.00    +0.000 NA
ATOM     19  C   UNL     1       9.657  16.354  19.151  0.00  0.00    +0.000 C 
ATOM     20  C   UNL     1       8.132  14.555  18.599  0.00  0.00    +0.000 C 
ATOM     21  C   UNL     1       7.907  13.216  17.848  0.00  0.00    +0.000 C 
ENDBRANCH  12  15
ENDBRANCH   5   9
BRANCH   1  23
ATOM     22  C   UNL     1       6.024   3.689  13.328  0.00  0.00    +0.000 C 
ATOM     23  N   UNL     1       5.375   3.816  14.439  0.00  0.00    +0.000 NA
BRANCH  22  24
ATOM     24  C   UNL     1       5.411   2.990  12.149  0.00  0.00    +0.000 C 
ATOM     25  O   UNL     1       5.970   2.054  11.610  0.00  0.00    +0.000 OA
BRANCH  24  26
ATOM     26  O   UNL     1       4.342   3.692  11.730  0.00  0.00    +0.000 OA
BRANCH  26  28
ATOM     27  C   UNL     1       3.070   4.095   9.762  0.00  0.00    +0.000 C 
ATOM     28  C   UNL     1       3.547   3.035  10.739  0.00  0.00    +0.000 C 
ENDBRANCH  26  28
ENDBRANCH  24  26
ENDBRANCH  22  24
ENDBRANCH   1  23
BRANCH   7  29
ATOM     29  N   UNL     1       4.717   3.384  17.216  0.00  0.00    +0.000 N 
ATOM     30  H   UNL     1       4.402   2.894  16.384  0.00  0.00    +0.000 HD
BRANCH  29  31
ATOM     31  C   UNL     1       3.673   3.751  18.161  0.00  0.00    +0.000 C 
ATOM     32  C   UNL     1       2.288   3.614  17.543  0.00  0.00    +0.000 C 
ATOM     33  C   UNL     1       3.809   2.810  19.363  0.00  0.00    +0.000 C 
ENDBRANCH  29  31
ENDBRANCH   7  29
TORSDOF 8
ENDMDL
