MODEL 1
REMARK VINA RESULT:      -8.0      0.000      0.000
REMARK  Name = 
REMARK  3 active torsions:
REMARK  status: ('A' for Active; 'I' for Inactive)
REMARK    1  A    between atoms: C_1  and  C_2
REMARK    2  A    between atoms: N_7  and  C_8
REMARK    3  A    between atoms: C_15  and  C_16
REMARK                            x       y       z     vdW  Elec       q    Type
REMARK                         _______ _______ _______ _____ _____    ______ ____
ROOT
ATOM      1  C   UNL     1       6.051   6.242  16.271  0.00  0.00    +0.000 C 
ATOM      2  C   UNL     1       5.011   6.419  17.325  0.00  0.00    +0.000 C 
ATOM      3  N   UNL     1       4.037   7.279  17.248  0.00  0.00    +0.000 NA
ATOM      4  N   UNL     1       3.294   7.085  18.391  0.00  0.00    +0.000 N 
ATOM      5  C   UNL     1       2.273   7.909  18.829  0.00  0.00    +0.000 C 
ATOM      6  O   UNL     1       1.705   7.673  19.899  0.00  0.00    +0.000 OA
ATOM      7  N   UNL     1       1.982   8.964  17.988  0.00  0.00    +0.000 N 
ATOM      8  C   UNL     1       3.729   5.940  19.186  0.00  0.00    +0.000 C 
ATOM      9  C   UNL     1       5.085   5.611  18.590  0.00  0.00    +0.000 C 
ATOM     10  H   UNL     1       2.383   8.870  17.062  0.00  0.00    +0.000 HD
ENDROOT
BRANCH   7  11
ATOM     11  C   UNL     1       1.003   9.950  18.243  0.00  0.00    +0.000 A 
ATOM     12  C   UNL     1       1.313  11.157  18.886  0.00  0.00    +0.000 A 
ATOM     13  C   UNL     1       0.321  12.079  19.215  0.00  0.00    +0.000 A 
ATOM     14  C   UNL     1      -0.996  11.802  18.887  0.00  0.00    +0.000 A 
ATOM     15  F   UNL     1      -1.955  12.670  19.229  0.00  0.00    +0.000 F 
ATOM     16  C   UNL     1      -1.326  10.632  18.211  0.00  0.00    +0.000 A 
ATOM     17  C   UNL     1      -0.325   9.711  17.871  0.00  0.00    +0.000 A 
ENDBRANCH   7  11
BRANCH   8  18
ATOM     18  C   UNL     1       2.746   4.779  19.106  0.00  0.00    +0.000 A 
ATOM     19  C   UNL     1       1.930   4.426  20.194  0.00  0.00    +0.000 A 
ATOM     20  C   UNL     1       1.042   3.354  20.098  0.00  0.00    +0.000 A 
ATOM     21  C   UNL     1       0.971   2.625  18.918  0.00  0.00    +0.000 A 
ATOM     22  F   UNL     1       0.120   1.594  18.830  0.00  0.00    +0.000 F 
ATOM     23  C   UNL     1       1.775   2.945  17.832  0.00  0.00    +0.000 A 
ATOM     24  C   UNL     1       2.663   4.020  17.925  0.00  0.00    +0.000 A 
ENDBRANCH   8  18
TORSDOF 2
ENDMDL
MODEL 2
REMARK VINA RESULT:      -7.9      0.192      1.026
REMARK  Name = 
REMARK  3 active torsions:
REMARK  status: ('A' for Active; 'I' for Inactive)
REMARK    1  A    between atoms: C_1  and  C_2
REMARK    2  A    between atoms: N_7  and  C_8
REMARK    3  A    between atoms: C_15  and  C_16
REMARK                            x       y       z     vdW  Elec       q    Type
REMARK                         _______ _______ _______ _____ _____    ______ ____
ROOT
ATOM      1  C   UNL     1       6.220   6.132  16.235  0.00  0.00    +0.000 C 
ATOM      2  C   UNL     1       5.169   6.315  17.277  0.00  0.00    +0.000 C 
ATOM      3  N   UNL     1       4.193   7.172  17.182  0.00  0.00    +0.000 NA
ATOM      4  N   UNL     1       3.439   6.985  18.319  0.00  0.00    +0.000 N 
ATOM      5  C   UNL     1       2.411   7.811  18.739  0.00  0.00    +0.000 C 
ATOM      6  O   UNL     1       1.834   7.583  19.806  0.00  0.00    +0.000 OA
ATOM      7  N   UNL     1       2.126   8.857  17.886  0.00  0.00    +0.000 N 
ATOM      8  C   UNL     1       3.870   5.850  19.129  0.00  0.00    +0.000 C 
ATOM      9  C   UNL     1       5.232   5.519  18.550  0.00  0.00    +0.000 C 
ATOM     10  H   UNL     1       2.536   8.756  16.965  0.00  0.00    +0.000 HD
ENDROOT
BRANCH   7  11
ATOM     11  C   UNL     1       1.141   9.843  18.122  0.00  0.00    +0.000 A 
ATOM     12  C   UNL     1       1.458  11.092  18.673  0.00  0.00    +0.000 A 
ATOM     13  C   UNL     1       0.465  12.018  18.988  0.00  0.00    +0.000 A 
ATOM     14  C   UNL     1      -0.860  11.701  18.737  0.00  0.00    +0.000 A 
ATOM     15  F   UNL     1      -1.819  12.575  19.067  0.00  0.00    +0.000 F 
ATOM     16  C   UNL     1      -1.199  10.486  18.151  0.00  0.00    +0.000 A 
ATOM     17  C   UNL     1      -0.197   9.560  17.825  0.00  0.00    +0.000 A 
ENDBRANCH   7  11
BRANCH   8  18
ATOM     18  C   UNL     1       2.891   4.685  19.049  0.00  0.00    +0.000 A 
ATOM     19  C   UNL     1       2.741   3.925  17.876  0.00  0.00    +0.000 A 
ATOM     20  C   UNL     1       1.833   2.867  17.825  0.00  0.00    +0.000 A 
ATOM     21  C   UNL     1       1.065   2.567  18.942  0.00  0.00    +0.000 A 
ATOM     22  F   UNL     1       0.192   1.553  18.890  0.00  0.00    +0.000 F 
ATOM     23  C   UNL     1       1.185   3.309  20.110  0.00  0.00    +0.000 A 
ATOM     24  C   UNL     1       2.095   4.367  20.164  0.00  0.00    +0.000 A 
ENDBRANCH   8  18
TORSDOF 2
ENDMDL
MODEL 3
REMARK VINA RESULT:      -7.8      0.311      1.451
REMARK  Name = 
REMARK  3 active torsions:
REMARK  status: ('A' for Active; 'I' for Inactive)
REMARK    1  A    between atoms: C_1  and  C_2
REMARK    2  A    between atoms: N_7  and  C_8
REMARK    3  A    between atoms: C_15  and  C_16
REMARK                            x       y       z     vdW  Elec       q    Type
REMARK                         _______ _______ _______ _____ _____    ______ ____
ROOT
ATOM      1  C   UNL     1       6.109   6.089  16.028  0.00  0.00    +0.000 C 
ATOM      2  C   UNL     1       5.113   6.291  17.119  0.00  0.00    +0.000 C 
ATOM      3  N   UNL     1       4.154   7.171  17.075  0.00  0.00    +0.000 NA
ATOM      4  N   UNL     1       3.451   6.995  18.245  0.00  0.00    +0.000 N 
ATOM      5  C   UNL     1       2.464   7.842  18.718  0.00  0.00    +0.000 C 
ATOM      6  O   UNL     1       1.932   7.621  19.809  0.00  0.00    +0.000 OA
ATOM      7  N   UNL     1       2.165   8.901  17.885  0.00  0.00    +0.000 N 
ATOM      8  C   UNL     1       3.891   5.844  19.028  0.00  0.00    +0.000 C 
ATOM      9  C   UNL     1       5.216   5.484  18.383  0.00  0.00    +0.000 C 
ATOM     10  H   UNL     1       2.529   8.796  16.945  0.00  0.00    +0.000 HD
ENDROOT
BRANCH   7  11
ATOM     11  C   UNL     1       1.216   9.908  18.173  0.00  0.00    +0.000 A 
ATOM     12  C   UNL     1      -0.160   9.703  18.001  0.00  0.00    +0.000 A 
ATOM     13  C   UNL     1      -1.076  10.735  18.199  0.00  0.00    +0.000 A 
ATOM     14  C   UNL     1      -0.617  11.982  18.589  0.00  0.00    +0.000 A 
ATOM     15  F   UNL     1      -1.491  12.984  18.750  0.00  0.00    +0.000 F 
ATOM     16  C   UNL     1       0.739  12.201  18.807  0.00  0.00    +0.000 A 
ATOM     17  C   UNL     1       1.658  11.160  18.618  0.00  0.00    +0.000 A 
ENDBRANCH   7  11
BRANCH   8  18
ATOM     18  C   UNL     1       2.881   4.703  18.987  0.00  0.00    +0.000 A 
ATOM     19  C   UNL     1       2.683   3.933  17.828  0.00  0.00    +0.000 A 
ATOM     20  C   UNL     1       1.748   2.898  17.813  0.00  0.00    +0.000 A 
ATOM     21  C   UNL     1       1.001   2.632  18.953  0.00  0.00    +0.000 A 
ATOM     22  F   UNL     1       0.101   1.640  18.936  0.00  0.00    +0.000 F 
ATOM     23  C   UNL     1       1.168   3.385  20.108  0.00  0.00    +0.000 A 
ATOM     24  C   UNL     1       2.106   4.420  20.126  0.00  0.00    +0.000 A 
ENDBRANCH   8  18
TORSDOF 2
ENDMDL
MODEL 4
REMARK VINA RESULT:      -7.8      4.826      7.078
REMARK  Name = 
REMARK  3 active torsions:
REMARK  status: ('A' for Active; 'I' for Inactive)
REMARK    1  A    between atoms: C_1  and  C_2
REMARK    2  A    between atoms: N_7  and  C_8
REMARK    3  A    between atoms: C_15  and  C_16
REMARK                            x       y       z     vdW  Elec       q    Type
REMARK                         _______ _______ _______ _____ _____    ______ ____
ROOT
ATOM      1  C   UNL     1       6.311   3.719  13.695  0.00  0.00    +0.000 C 
ATOM      2  C   UNL     1       5.709   4.477  14.830  0.00  0.00    +0.000 C 
ATOM      3  N   UNL     1       5.197   3.916  15.888  0.00  0.00    +0.000 NA
ATOM      4  N   UNL     1       4.801   4.961  16.692  0.00  0.00    +0.000 N 
ATOM      5  C   UNL     1       4.028   4.841  17.834  0.00  0.00    +0.000 C 
ATOM      6  O   UNL     1       3.684   5.850  18.455  0.00  0.00    +0.000 OA
ATOM      7  N   UNL     1       3.702   3.544  18.175  0.00  0.00    +0.000 N 
ATOM      8  C   UNL     1       5.206   6.272  16.194  0.00  0.00    +0.000 C 
ATOM      9  C   UNL     1       5.624   5.976  14.766  0.00  0.00    +0.000 C 
ATOM     10  H   UNL     1       4.253   2.844  17.693  0.00  0.00    +0.000 HD
ENDROOT
BRANCH   7  11
ATOM     11  C   UNL     1       2.897   3.182  19.279  0.00  0.00    +0.000 A 
ATOM     12  C   UNL     1       1.503   3.322  19.260  0.00  0.00    +0.000 A 
ATOM     13  C   UNL     1       0.732   3.049  20.389  0.00  0.00    +0.000 A 
ATOM     14  C   UNL     1       1.356   2.616  21.547  0.00  0.00    +0.000 A 
ATOM     15  F   UNL     1       0.622   2.383  22.642  0.00  0.00    +0.000 F 
ATOM     16  C   UNL     1       2.734   2.427  21.580  0.00  0.00    +0.000 A 
ATOM     17  C   UNL     1       3.507   2.692  20.440  0.00  0.00    +0.000 A 
ENDBRANCH   7  11
BRANCH   8  18
ATOM     18  C   UNL     1       6.327   6.881  17.027  0.00  0.00    +0.000 A 
ATOM     19  C   UNL     1       7.099   6.104  17.907  0.00  0.00    +0.000 A 
ATOM     20  C   UNL     1       8.116   6.686  18.665  0.00  0.00    +0.000 A 
ATOM     21  C   UNL     1       8.362   8.048  18.552  0.00  0.00    +0.000 A 
ATOM     22  F   UNL     1       9.337   8.606  19.283  0.00  0.00    +0.000 F 
ATOM     23  C   UNL     1       7.606   8.841  17.699  0.00  0.00    +0.000 A 
ATOM     24  C   UNL     1       6.589   8.260  16.937  0.00  0.00    +0.000 A 
ENDBRANCH   8  18
TORSDOF 2
ENDMDL
MODEL 5
REMARK VINA RESULT:      -7.8      0.446      1.090
REMARK  Name = 
REMARK  3 active torsions:
REMARK  status: ('A' for Active; 'I' for Inactive)
REMARK    1  A    between atoms: C_1  and  C_2
REMARK    2  A    between atoms: N_7  and  C_8
REMARK    3  A    between atoms: C_15  and  C_16
REMARK                            x       y       z     vdW  Elec       q    Type
REMARK                         _______ _______ _______ _____ _____    ______ ____
ROOT
ATOM      1  C   UNL     1       5.587   6.235  15.833  0.00  0.00    +0.000 C 
ATOM      2  C   UNL     1       4.712   6.488  17.014  0.00  0.00    +0.000 C 
ATOM      3  N   UNL     1       3.760   7.376  17.036  0.00  0.00    +0.000 NA
ATOM      4  N   UNL     1       3.181   7.252  18.279  0.00  0.00    +0.000 N 
ATOM      5  C   UNL     1       2.254   8.127  18.819  0.00  0.00    +0.000 C 
ATOM      6  O   UNL     1       1.837   7.952  19.967  0.00  0.00    +0.000 OA
ATOM      7  N   UNL     1       1.876   9.156  17.981  0.00  0.00    +0.000 N 
ATOM      8  C   UNL     1       3.693   6.127  19.055  0.00  0.00    +0.000 C 
ATOM      9  C   UNL     1       4.942   5.729  18.291  0.00  0.00    +0.000 C 
ATOM     10  H   UNL     1       2.139   9.012  17.013  0.00  0.00    +0.000 HD
ENDROOT
BRANCH   7  11
ATOM     11  C   UNL     1       0.969  10.183  18.327  0.00  0.00    +0.000 A 
ATOM     12  C   UNL     1      -0.418  10.020  18.207  0.00  0.00    +0.000 A 
ATOM     13  C   UNL     1      -1.295  11.073  18.462  0.00  0.00    +0.000 A 
ATOM     14  C   UNL     1      -0.785  12.298  18.857  0.00  0.00    +0.000 A 
ATOM     15  F   UNL     1      -1.623  13.321  19.073  0.00  0.00    +0.000 F 
ATOM     16  C   UNL     1       0.584  12.475  19.025  0.00  0.00    +0.000 A 
ATOM     17  C   UNL     1       1.465  11.412  18.778  0.00  0.00    +0.000 A 
ENDBRANCH   7  11
BRANCH   8  18
ATOM     18  C   UNL     1       2.678   4.996  19.165  0.00  0.00    +0.000 A 
ATOM     19  C   UNL     1       2.147   4.597  20.403  0.00  0.00    +0.000 A 
ATOM     20  C   UNL     1       1.223   3.553  20.478  0.00  0.00    +0.000 A 
ATOM     21  C   UNL     1       0.831   2.900  19.318  0.00  0.00    +0.000 A 
ATOM     22  F   UNL     1      -0.054   1.896  19.393  0.00  0.00    +0.000 F 
ATOM     23  C   UNL     1       1.349   3.266  18.082  0.00  0.00    +0.000 A 
ATOM     24  C   UNL     1       2.272   4.312  18.005  0.00  0.00    +0.000 A 
ENDBRANCH   8  18
TORSDOF 2
ENDMDL
MODEL 6
REMARK VINA RESULT:      -7.7      3.033      4.504
REMARK  Name = 
REMARK  3 active torsions:
REMARK  status: ('A' for Active; 'I' for Inactive)
REMARK    1  A    between atoms: C_1  and  C_2
REMARK    2  A    between atoms: N_7  and  C_8
REMARK    3  A    between atoms: C_15  and  C_16
REMARK                            x       y       z     vdW  Elec       q    Type
REMARK                         _______ _______ _______ _____ _____    ______ ____
ROOT
ATOM      1  C   UNL     1       2.575   2.530  21.387  0.00  0.00    +0.000 C 
ATOM      2  C   UNL     1       2.516   3.768  20.559  0.00  0.00    +0.000 C 
ATOM      3  N   UNL     1       2.195   4.941  21.026  0.00  0.00    +0.000 NA
ATOM      4  N   UNL     1       2.308   5.797  19.954  0.00  0.00    +0.000 N 
ATOM      5  C   UNL     1       1.876   7.112  19.935  0.00  0.00    +0.000 C 
ATOM      6  O   UNL     1       1.976   7.779  18.901  0.00  0.00    +0.000 OA
ATOM      7  N   UNL     1       1.348   7.563  21.127  0.00  0.00    +0.000 N 
ATOM      8  C   UNL     1       2.868   5.173  18.759  0.00  0.00    +0.000 C 
ATOM      9  C   UNL     1       2.788   3.693  19.082  0.00  0.00    +0.000 C 
ATOM     10  H   UNL     1       1.555   6.964  21.918  0.00  0.00    +0.000 HD
ENDROOT
BRANCH   7  11
ATOM     11  C   UNL     1       0.818   8.857  21.334  0.00  0.00    +0.000 A 
ATOM     12  C   UNL     1       1.078   9.916  20.453  0.00  0.00    +0.000 A 
ATOM     13  C   UNL     1       0.626  11.207  20.719  0.00  0.00    +0.000 A 
ATOM     14  C   UNL     1      -0.108  11.444  21.870  0.00  0.00    +0.000 A 
ATOM     15  F   UNL     1      -0.517  12.689  22.144  0.00  0.00    +0.000 F 
ATOM     16  C   UNL     1      -0.416  10.403  22.739  0.00  0.00    +0.000 A 
ATOM     17  C   UNL     1       0.030   9.102  22.464  0.00  0.00    +0.000 A 
ENDBRANCH   7  11
BRANCH   8  18
ATOM     18  C   UNL     1       4.290   5.645  18.479  0.00  0.00    +0.000 A 
ATOM     19  C   UNL     1       4.589   6.487  17.395  0.00  0.00    +0.000 A 
ATOM     20  C   UNL     1       5.900   6.900  17.155  0.00  0.00    +0.000 A 
ATOM     21  C   UNL     1       6.920   6.467  17.992  0.00  0.00    +0.000 A 
ATOM     22  F   UNL     1       8.178   6.862  17.758  0.00  0.00    +0.000 F 
ATOM     23  C   UNL     1       6.654   5.624  19.064  0.00  0.00    +0.000 A 
ATOM     24  C   UNL     1       5.341   5.212  19.307  0.00  0.00    +0.000 A 
ENDBRANCH   8  18
TORSDOF 2
ENDMDL
MODEL 7
REMARK VINA RESULT:      -7.7      2.991      4.484
REMARK  Name = 
REMARK  3 active torsions:
REMARK  status: ('A' for Active; 'I' for Inactive)
REMARK    1  A    between atoms: C_1  and  C_2
REMARK    2  A    between atoms: N_7  and  C_8
REMARK    3  A    between atoms: C_15  and  C_16
REMARK                            x       y       z     vdW  Elec       q    Type
REMARK                         _______ _______ _______ _____ _____    ______ ____
ROOT
ATOM      1  C   UNL     1       2.553   2.565  21.354  0.00  0.00    +0.000 C 
ATOM      2  C   UNL     1       2.510   3.812  20.536  0.00  0.00    +0.000 C 
ATOM      3  N   UNL     1       2.203   4.984  21.012  0.00  0.00    +0.000 NA
ATOM      4  N   UNL     1       2.327   5.848  19.948  0.00  0.00    +0.000 N 
ATOM      5  C   UNL     1       1.912   7.168  19.939  0.00  0.00    +0.000 C 
ATOM      6  O   UNL     1       2.021   7.842  18.912  0.00  0.00    +0.000 OA
ATOM      7  N   UNL     1       1.389   7.616  21.135  0.00  0.00    +0.000 N 
ATOM      8  C   UNL     1       2.881   5.227  18.748  0.00  0.00    +0.000 C 
ATOM      9  C   UNL     1       2.782   3.745  19.059  0.00  0.00    +0.000 C 
ATOM     10  H   UNL     1       1.588   7.007  21.921  0.00  0.00    +0.000 HD
ENDROOT
BRANCH   7  11
ATOM     11  C   UNL     1       0.874   8.914  21.352  0.00  0.00    +0.000 A 
ATOM     12  C   UNL     1       0.199   9.258  22.532  0.00  0.00    +0.000 A 
ATOM     13  C   UNL     1      -0.385  10.513  22.693  0.00  0.00    +0.000 A 
ATOM     14  C   UNL     1      -0.282  11.443  21.672  0.00  0.00    +0.000 A 
ATOM     15  F   UNL     1      -0.869  12.639  21.810  0.00  0.00    +0.000 F 
ATOM     16  C   UNL     1       0.418  11.143  20.508  0.00  0.00    +0.000 A 
ATOM     17  C   UNL     1       1.014   9.883  20.353  0.00  0.00    +0.000 A 
ENDBRANCH   7  11
BRANCH   8  18
ATOM     18  C   UNL     1       4.309   5.683  18.473  0.00  0.00    +0.000 A 
ATOM     19  C   UNL     1       4.618   6.533  17.398  0.00  0.00    +0.000 A 
ATOM     20  C   UNL     1       5.935   6.932  17.162  0.00  0.00    +0.000 A 
ATOM     21  C   UNL     1       6.948   6.477  17.995  0.00  0.00    +0.000 A 
ATOM     22  F   UNL     1       8.212   6.858  17.765  0.00  0.00    +0.000 F 
ATOM     23  C   UNL     1       6.672   5.627  19.057  0.00  0.00    +0.000 A 
ATOM     24  C   UNL     1       5.354   5.229  19.296  0.00  0.00    +0.000 A 
ENDBRANCH   8  18
TORSDOF 2
ENDMDL
MODEL 8
REMARK VINA RESULT:      -7.7      3.004      4.432
REMARK  Name = 
REMARK  3 active torsions:
REMARK  status: ('A' for Active; 'I' for Inactive)
REMARK    1  A    between atoms: C_1  and  C_2
REMARK    2  A    between atoms: N_7  and  C_8
REMARK    3  A    between atoms: C_15  and  C_16
REMARK                            x       y       z     vdW  Elec       q    Type
REMARK                         _______ _______ _______ _____ _____    ______ ____
ROOT
ATOM      1  C   UNL     1       2.583   2.529  21.425  0.00  0.00    +0.000 C 
ATOM      2  C   UNL     1       2.515   3.768  20.597  0.00  0.00    +0.000 C 
ATOM      3  N   UNL     1       2.221   4.944  21.071  0.00  0.00    +0.000 NA
ATOM      4  N   UNL     1       2.314   5.799  19.996  0.00  0.00    +0.000 N 
ATOM      5  C   UNL     1       1.897   7.119  19.987  0.00  0.00    +0.000 C 
ATOM      6  O   UNL     1       1.976   7.783  18.950  0.00  0.00    +0.000 OA
ATOM      7  N   UNL     1       1.408   7.577  21.193  0.00  0.00    +0.000 N 
ATOM      8  C   UNL     1       2.833   5.167  18.786  0.00  0.00    +0.000 C 
ATOM      9  C   UNL     1       2.744   3.688  19.114  0.00  0.00    +0.000 C 
ATOM     10  H   UNL     1       1.630   6.976  21.978  0.00  0.00    +0.000 HD
ENDROOT
BRANCH   7  11
ATOM     11  C   UNL     1       0.898   8.876  21.412  0.00  0.00    +0.000 A 
ATOM     12  C   UNL     1       0.187   9.209  22.574  0.00  0.00    +0.000 A 
ATOM     13  C   UNL     1      -0.391  10.468  22.734  0.00  0.00    +0.000 A 
ATOM     14  C   UNL     1      -0.244  11.412  21.732  0.00  0.00    +0.000 A 
ATOM     15  F   UNL     1      -0.824  12.611  21.869  0.00  0.00    +0.000 F 
ATOM     16  C   UNL     1       0.493  11.123  20.588  0.00  0.00    +0.000 A 
ATOM     17  C   UNL     1       1.082   9.860  20.433  0.00  0.00    +0.000 A 
ENDBRANCH   7  11
BRANCH   8  18
ATOM     18  C   UNL     1       4.252   5.621  18.466  0.00  0.00    +0.000 A 
ATOM     19  C   UNL     1       5.345   5.250  19.269  0.00  0.00    +0.000 A 
ATOM     20  C   UNL     1       6.634   5.685  18.959  0.00  0.00    +0.000 A 
ATOM     21  C   UNL     1       6.837   6.497  17.851  0.00  0.00    +0.000 A 
ATOM     22  F   UNL     1       8.075   6.915  17.557  0.00  0.00    +0.000 F 
ATOM     23  C   UNL     1       5.773   6.887  17.048  0.00  0.00    +0.000 A 
ATOM     24  C   UNL     1       4.482   6.451  17.355  0.00  0.00    +0.000 A 
ENDBRANCH   8  18
TORSDOF 2
ENDMDL
MODEL 9
REMARK VINA RESULT:      -7.7      3.033      4.450
REMARK  Name = 
REMARK  3 active torsions:
REMARK  status: ('A' for Active; 'I' for Inactive)
REMARK    1  A    between atoms: C_1  and  C_2
REMARK    2  A    between atoms: N_7  and  C_8
REMARK    3  A    between atoms: C_15  and  C_16
REMARK                            x       y       z     vdW  Elec       q    Type
REMARK                         _______ _______ _______ _____ _____    ______ ____
ROOT
ATOM      1  C   UNL     1       2.578   2.473  21.362  0.00  0.00    +0.000 C 
ATOM      2  C   UNL     1       2.530   3.713  20.535  0.00  0.00    +0.000 C 
ATOM      3  N   UNL     1       2.208   4.885  21.002  0.00  0.00    +0.000 NA
ATOM      4  N   UNL     1       2.333   5.744  19.934  0.00  0.00    +0.000 N 
ATOM      5  C   UNL     1       1.905   7.061  19.913  0.00  0.00    +0.000 C 
ATOM      6  O   UNL     1       2.016   7.729  18.882  0.00  0.00    +0.000 OA
ATOM      7  N   UNL     1       1.368   7.510  21.102  0.00  0.00    +0.000 N 
ATOM      8  C   UNL     1       2.902   5.121  18.742  0.00  0.00    +0.000 C 
ATOM      9  C   UNL     1       2.815   3.640  19.062  0.00  0.00    +0.000 C 
ATOM     10  H   UNL     1       1.565   6.909  21.893  0.00  0.00    +0.000 HD
ENDROOT
BRANCH   7  11
ATOM     11  C   UNL     1       0.839   8.805  21.306  0.00  0.00    +0.000 A 
ATOM     12  C   UNL     1       1.065   9.851  20.401  0.00  0.00    +0.000 A 
ATOM     13  C   UNL     1       0.616  11.145  20.663  0.00  0.00    +0.000 A 
ATOM     14  C   UNL     1      -0.079  11.396  21.833  0.00  0.00    +0.000 A 
ATOM     15  F   UNL     1      -0.484  12.644  22.103  0.00  0.00    +0.000 F 
ATOM     16  C   UNL     1      -0.354  10.368  22.729  0.00  0.00    +0.000 A 
ATOM     17  C   UNL     1       0.088   9.065  22.459  0.00  0.00    +0.000 A 
ENDBRANCH   7  11
BRANCH   8  18
ATOM     18  C   UNL     1       4.328   5.589  18.476  0.00  0.00    +0.000 A 
ATOM     19  C   UNL     1       5.399   5.198  19.298  0.00  0.00    +0.000 A 
ATOM     20  C   UNL     1       6.695   5.645  19.038  0.00  0.00    +0.000 A 
ATOM     21  C   UNL     1       6.926   6.490  17.961  0.00  0.00    +0.000 A 
ATOM     22  F   UNL     1       8.171   6.921  17.715  0.00  0.00    +0.000 F 
ATOM     23  C   UNL     1       5.884   6.902  17.140  0.00  0.00    +0.000 A 
ATOM     24  C   UNL     1       4.586   6.453  17.397  0.00  0.00    +0.000 A 
ENDBRANCH   8  18
TORSDOF 2
ENDMDL
