MODEL 1
REMARK VINA RESULT:      -7.7      0.000      0.000
REMARK  Name = 
REMARK  7 active torsions:
REMARK  status: ('A' for Active; 'I' for Inactive)
REMARK    1  A    between atoms: C_1  and  O_2
REMARK    2  A    between atoms: O_2  and  C_3
REMARK    3  A    between atoms: C_3  and  C_4
REMARK    4  A    between atoms: C_4  and  N_5
REMARK    5  A    between atoms: C_10  and  C_11
REMARK    6  A    between atoms: C_15  and  C_16
REMARK    7  A    between atoms: N_25  and  C_26
REMARK                            x       y       z     vdW  Elec       q    Type
REMARK                         _______ _______ _______ _____ _____    ______ ____
ROOT
ATOM      1  N   UNL     1       5.061   3.235  18.912  0.00  0.00    +0.000 N 
ATOM      2  C   UNL     1       4.527   4.462  18.588  0.00  0.00    +0.000 A 
ATOM      3  N   UNL     1       3.684   5.011  19.430  0.00  0.00    +0.000 NA
ATOM      4  C   UNL     1       3.195   6.269  19.077  0.00  0.00    +0.000 A 
ATOM      5  C   UNL     1       2.262   7.011  19.844  0.00  0.00    +0.000 A 
ATOM      6  C   UNL     1       1.913   8.202  19.215  0.00  0.00    +0.000 A 
ATOM      7  S   UNL     1       2.837   8.411  17.765  0.00  0.00    +0.000 S 
ATOM      8  C   UNL     1       3.572   6.905  17.938  0.00  0.00    +0.000 A 
ATOM      9  C   UNL     1       4.488   6.339  17.002  0.00  0.00    +0.000 A 
ATOM     10  O   UNL     1       4.854   6.902  15.972  0.00  0.00    +0.000 OA
ATOM     11  N   UNL     1       4.926   5.060  17.378  0.00  0.00    +0.000 N 
ATOM     12  C   UNL     1       5.848   4.411  16.460  0.00  0.00    +0.000 C 
ATOM     13  H   UNL     1       5.586   2.736  18.204  0.00  0.00    +0.000 HD
ENDROOT
BRANCH   6  14
ATOM     14  C   UNL     1       0.940   9.238  19.613  0.00  0.00    +0.000 A 
ATOM     15  C   UNL     1       0.798   9.620  20.960  0.00  0.00    +0.000 A 
ATOM     16  C   UNL     1      -0.123  10.593  21.348  0.00  0.00    +0.000 A 
ATOM     17  C   UNL     1      -0.916  11.217  20.393  0.00  0.00    +0.000 A 
ATOM     18  C   UNL     1      -0.794  10.876  19.039  0.00  0.00    +0.000 A 
ATOM     19  C   UNL     1       0.136   9.884  18.660  0.00  0.00    +0.000 A 
BRANCH  18  20
ATOM     20  C   UNL     1      -1.645  11.558  17.996  0.00  0.00    +0.000 C 
ATOM     21  F   UNL     1      -1.126  12.737  17.554  0.00  0.00    +0.000 F 
ATOM     22  F   UNL     1      -1.819  10.790  16.884  0.00  0.00    +0.000 F 
ATOM     23  F   UNL     1      -2.896  11.849  18.449  0.00  0.00    +0.000 F 
ENDBRANCH  18  20
ENDBRANCH   6  14
BRANCH   1  24
ATOM     24  C   UNL     1       4.380   2.282  19.785  0.00  0.00    +0.000 C 
BRANCH  24  25
ATOM     25  C   UNL     1       3.253   1.592  19.008  0.00  0.00    +0.000 C 
BRANCH  25  27
ATOM     26  C   UNL     1       1.125   2.558  18.656  0.00  0.00    +0.000 C 
ATOM     27  O   UNL     1       1.998   1.959  19.604  0.00  0.00    +0.000 OA
ENDBRANCH  25  27
ENDBRANCH  24  25
ENDBRANCH   1  24
TORSDOF 5
ENDMDL
MODEL 2
REMARK VINA RESULT:      -7.6      5.053      8.430
REMARK  Name = 
REMARK  7 active torsions:
REMARK  status: ('A' for Active; 'I' for Inactive)
REMARK    1  A    between atoms: C_1  and  O_2
REMARK    2  A    between atoms: O_2  and  C_3
REMARK    3  A    between atoms: C_3  and  C_4
REMARK    4  A    between atoms: C_4  and  N_5
REMARK    5  A    between atoms: C_10  and  C_11
REMARK    6  A    between atoms: C_15  and  C_16
REMARK    7  A    between atoms: N_25  and  C_26
REMARK                            x       y       z     vdW  Elec       q    Type
REMARK                         _______ _______ _______ _____ _____    ______ ____
ROOT
ATOM      1  N   UNL     1      -0.833  11.878  19.136  0.00  0.00    +0.000 N 
ATOM      2  C   UNL     1      -0.104  10.746  19.424  0.00  0.00    +0.000 A 
ATOM      3  N   UNL     1       0.498  10.130  18.434  0.00  0.00    +0.000 NA
ATOM      4  C   UNL     1       1.253   9.008  18.776  0.00  0.00    +0.000 A 
ATOM      5  C   UNL     1       1.957   8.201  17.848  0.00  0.00    +0.000 A 
ATOM      6  C   UNL     1       2.570   7.118  18.471  0.00  0.00    +0.000 A 
ATOM      7  S   UNL     1       2.350   7.207  20.187  0.00  0.00    +0.000 S 
ATOM      8  C   UNL     1       1.376   8.576  20.058  0.00  0.00    +0.000 A 
ATOM      9  C   UNL     1       0.738   9.222  21.158  0.00  0.00    +0.000 A 
ATOM     10  O   UNL     1       0.846   8.856  22.327  0.00  0.00    +0.000 OA
ATOM     11  N   UNL     1      -0.039  10.322  20.764  0.00  0.00    +0.000 N 
ATOM     12  C   UNL     1      -0.737  11.019  21.832  0.00  0.00    +0.000 C 
ATOM     13  H   UNL     1      -1.423  12.267  19.862  0.00  0.00    +0.000 HD
ENDROOT
BRANCH   6  14
ATOM     14  C   UNL     1       3.340   6.000  17.893  0.00  0.00    +0.000 A 
ATOM     15  C   UNL     1       2.755   4.734  17.711  0.00  0.00    +0.000 A 
ATOM     16  C   UNL     1       3.476   3.668  17.172  0.00  0.00    +0.000 A 
ATOM     17  C   UNL     1       4.799   3.851  16.787  0.00  0.00    +0.000 A 
ATOM     18  C   UNL     1       5.414   5.102  16.937  0.00  0.00    +0.000 A 
ATOM     19  C   UNL     1       4.676   6.168  17.492  0.00  0.00    +0.000 A 
BRANCH  18  20
ATOM     20  C   UNL     1       6.846   5.307  16.512  0.00  0.00    +0.000 C 
ATOM     21  F   UNL     1       7.299   6.577  16.715  0.00  0.00    +0.000 F 
ATOM     22  F   UNL     1       7.710   4.495  17.185  0.00  0.00    +0.000 F 
ATOM     23  F   UNL     1       7.044   5.050  15.190  0.00  0.00    +0.000 F 
ENDBRANCH  18  20
ENDBRANCH   6  14
BRANCH   1  24
ATOM     24  C   UNL     1      -1.432  12.121  17.826  0.00  0.00    +0.000 C 
BRANCH  24  25
ATOM     25  C   UNL     1      -2.778  11.395  17.738  0.00  0.00    +0.000 C 
BRANCH  25  27
ATOM     26  C   UNL     1      -2.881  10.847  15.441  0.00  0.00    +0.000 C 
ATOM     27  O   UNL     1      -2.669  10.351  16.756  0.00  0.00    +0.000 OA
ENDBRANCH  25  27
ENDBRANCH  24  25
ENDBRANCH   1  24
TORSDOF 5
ENDMDL
MODEL 3
REMARK VINA RESULT:      -7.4      1.952      2.485
REMARK  Name = 
REMARK  7 active torsions:
REMARK  status: ('A' for Active; 'I' for Inactive)
REMARK    1  A    between atoms: C_1  and  O_2
REMARK    2  A    between atoms: O_2  and  C_3
REMARK    3  A    between atoms: C_3  and  C_4
REMARK    4  A    between atoms: C_4  and  N_5
REMARK    5  A    between atoms: C_10  and  C_11
REMARK    6  A    between atoms: C_15  and  C_16
REMARK    7  A    between atoms: N_25  and  C_26
REMARK                            x       y       z     vdW  Elec       q    Type
REMARK                         _______ _______ _______ _____ _____    ______ ____
ROOT
ATOM      1  N   UNL     1       4.641   3.451  19.328  0.00  0.00    +0.000 N 
ATOM      2  C   UNL     1       4.154   4.676  18.928  0.00  0.00    +0.000 A 
ATOM      3  N   UNL     1       3.283   5.277  19.702  0.00  0.00    +0.000 NA
ATOM      4  C   UNL     1       2.843   6.530  19.275  0.00  0.00    +0.000 A 
ATOM      5  C   UNL     1       1.890   7.324  19.963  0.00  0.00    +0.000 A 
ATOM      6  C   UNL     1       1.603   8.495  19.269  0.00  0.00    +0.000 A 
ATOM      7  S   UNL     1       2.604   8.624  17.862  0.00  0.00    +0.000 S 
ATOM      8  C   UNL     1       3.293   7.110  18.133  0.00  0.00    +0.000 A 
ATOM      9  C   UNL     1       4.242   6.487  17.269  0.00  0.00    +0.000 A 
ATOM     10  O   UNL     1       4.673   6.999  16.238  0.00  0.00    +0.000 OA
ATOM     11  N   UNL     1       4.628   5.215  17.718  0.00  0.00    +0.000 N 
ATOM     12  C   UNL     1       5.580   4.508  16.875  0.00  0.00    +0.000 C 
ATOM     13  H   UNL     1       5.190   2.913  18.668  0.00  0.00    +0.000 HD
ENDROOT
BRANCH   6  14
ATOM     14  C   UNL     1       0.635   9.568  19.575  0.00  0.00    +0.000 A 
ATOM     15  C   UNL     1      -0.015  10.273  18.546  0.00  0.00    +0.000 A 
ATOM     16  C   UNL     1      -0.925  11.292  18.823  0.00  0.00    +0.000 A 
ATOM     17  C   UNL     1      -1.218  11.620  20.141  0.00  0.00    +0.000 A 
ATOM     18  C   UNL     1      -0.603  10.931  21.196  0.00  0.00    +0.000 A 
ATOM     19  C   UNL     1       0.322   9.907  20.901  0.00  0.00    +0.000 A 
BRANCH  18  20
ATOM     20  C   UNL     1      -0.925  11.276  22.628  0.00  0.00    +0.000 C 
ATOM     21  F   UNL     1      -0.469  12.503  23.009  0.00  0.00    +0.000 F 
ATOM     22  F   UNL     1      -2.266  11.289  22.871  0.00  0.00    +0.000 F 
ATOM     23  F   UNL     1      -0.393  10.391  23.515  0.00  0.00    +0.000 F 
ENDBRANCH  18  20
ENDBRANCH   6  14
BRANCH   1  24
ATOM     24  C   UNL     1       3.893   2.550  20.202  0.00  0.00    +0.000 C 
BRANCH  24  25
ATOM     25  C   UNL     1       2.685   1.990  19.445  0.00  0.00    +0.000 C 
BRANCH  25  27
ATOM     26  C   UNL     1       1.770   2.614  21.533  0.00  0.00    +0.000 C 
ATOM     27  O   UNL     1       1.492   2.343  20.166  0.00  0.00    +0.000 OA
ENDBRANCH  25  27
ENDBRANCH  24  25
ENDBRANCH   1  24
TORSDOF 5
ENDMDL
MODEL 4
REMARK VINA RESULT:      -7.4      1.677      3.504
REMARK  Name = 
REMARK  7 active torsions:
REMARK  status: ('A' for Active; 'I' for Inactive)
REMARK    1  A    between atoms: C_1  and  O_2
REMARK    2  A    between atoms: O_2  and  C_3
REMARK    3  A    between atoms: C_3  and  C_4
REMARK    4  A    between atoms: C_4  and  N_5
REMARK    5  A    between atoms: C_10  and  C_11
REMARK    6  A    between atoms: C_15  and  C_16
REMARK    7  A    between atoms: N_25  and  C_26
REMARK                            x       y       z     vdW  Elec       q    Type
REMARK                         _______ _______ _______ _____ _____    ______ ____
ROOT
ATOM      1  N   UNL     1       4.997   3.439  16.916  0.00  0.00    +0.000 N 
ATOM      2  C   UNL     1       4.235   4.010  17.912  0.00  0.00    +0.000 A 
ATOM      3  N   UNL     1       3.851   5.255  17.758  0.00  0.00    +0.000 NA
ATOM      4  C   UNL     1       3.053   5.781  18.774  0.00  0.00    +0.000 A 
ATOM      5  C   UNL     1       2.558   7.110  18.800  0.00  0.00    +0.000 A 
ATOM      6  C   UNL     1       1.842   7.368  19.965  0.00  0.00    +0.000 A 
ATOM      7  S   UNL     1       1.710   5.931  20.922  0.00  0.00    +0.000 S 
ATOM      8  C   UNL     1       2.678   5.053  19.857  0.00  0.00    +0.000 A 
ATOM      9  C   UNL     1       3.075   3.697  20.055  0.00  0.00    +0.000 A 
ATOM     10  O   UNL     1       2.736   3.015  21.021  0.00  0.00    +0.000 OA
ATOM     11  N   UNL     1       3.905   3.221  19.029  0.00  0.00    +0.000 N 
ATOM     12  C   UNL     1       4.367   1.850  19.173  0.00  0.00    +0.000 C 
ATOM     13  H   UNL     1       5.425   2.539  17.095  0.00  0.00    +0.000 HD
ENDROOT
BRANCH   6  14
ATOM     14  C   UNL     1       1.214   8.617  20.437  0.00  0.00    +0.000 A 
ATOM     15  C   UNL     1       0.963   8.831  21.804  0.00  0.00    +0.000 A 
ATOM     16  C   UNL     1       0.365  10.005  22.261  0.00  0.00    +0.000 A 
ATOM     17  C   UNL     1       0.016  11.002  21.358  0.00  0.00    +0.000 A 
ATOM     18  C   UNL     1       0.264  10.834  19.988  0.00  0.00    +0.000 A 
ATOM     19  C   UNL     1       0.863   9.638  19.539  0.00  0.00    +0.000 A 
BRANCH  18  20
ATOM     20  C   UNL     1      -0.103  11.917  19.005  0.00  0.00    +0.000 C 
ATOM     21  F   UNL     1      -0.858  12.914  19.548  0.00  0.00    +0.000 F 
ATOM     22  F   UNL     1       0.992  12.531  18.474  0.00  0.00    +0.000 F 
ATOM     23  F   UNL     1      -0.818  11.446  17.947  0.00  0.00    +0.000 F 
ENDBRANCH  18  20
ENDBRANCH   6  14
BRANCH   1  24
ATOM     24  C   UNL     1       5.846   4.222  16.022  0.00  0.00    +0.000 C 
BRANCH  24  25
ATOM     25  C   UNL     1       7.151   4.580  16.740  0.00  0.00    +0.000 C 
BRANCH  25  27
ATOM     26  C   UNL     1       7.123   6.855  17.381  0.00  0.00    +0.000 C 
ATOM     27  O   UNL     1       7.515   5.924  16.382  0.00  0.00    +0.000 OA
ENDBRANCH  25  27
ENDBRANCH  24  25
ENDBRANCH   1  24
TORSDOF 5
ENDMDL
MODEL 5
REMARK VINA RESULT:      -7.4      2.395      4.012
REMARK  Name = 
REMARK  7 active torsions:
REMARK  status: ('A' for Active; 'I' for Inactive)
REMARK    1  A    between atoms: C_1  and  O_2
REMARK    2  A    between atoms: O_2  and  C_3
REMARK    3  A    between atoms: C_3  and  C_4
REMARK    4  A    between atoms: C_4  and  N_5
REMARK    5  A    between atoms: C_10  and  C_11
REMARK    6  A    between atoms: C_15  and  C_16
REMARK    7  A    between atoms: N_25  and  C_26
REMARK                            x       y       z     vdW  Elec       q    Type
REMARK                         _______ _______ _______ _____ _____    ______ ____
ROOT
ATOM      1  N   UNL     1       4.443   3.950  17.327  0.00  0.00    +0.000 N 
ATOM      2  C   UNL     1       3.736   4.728  18.216  0.00  0.00    +0.000 A 
ATOM      3  N   UNL     1       3.377   5.931  17.835  0.00  0.00    +0.000 NA
ATOM      4  C   UNL     1       2.634   6.671  18.754  0.00  0.00    +0.000 A 
ATOM      5  C   UNL     1       2.174   7.994  18.535  0.00  0.00    +0.000 A 
ATOM      6  C   UNL     1       1.511   8.498  19.650  0.00  0.00    +0.000 A 
ATOM      7  S   UNL     1       1.380   7.280  20.875  0.00  0.00    +0.000 S 
ATOM      8  C   UNL     1       2.282   6.180  19.970  0.00  0.00    +0.000 A 
ATOM      9  C   UNL     1       2.652   4.877  20.416  0.00  0.00    +0.000 A 
ATOM     10  O   UNL     1       2.333   4.407  21.508  0.00  0.00    +0.000 OA
ATOM     11  N   UNL     1       3.429   4.183  19.476  0.00  0.00    +0.000 N 
ATOM     12  C   UNL     1       3.861   2.852  19.871  0.00  0.00    +0.000 C 
ATOM     13  H   UNL     1       4.854   3.088  17.664  0.00  0.00    +0.000 HD
ENDROOT
BRANCH   6  14
ATOM     14  C   UNL     1       0.934   9.835  19.889  0.00  0.00    +0.000 A 
ATOM     15  C   UNL     1       1.077  10.866  18.943  0.00  0.00    +0.000 A 
ATOM     16  C   UNL     1       0.541  12.135  19.161  0.00  0.00    +0.000 A 
ATOM     17  C   UNL     1      -0.163  12.399  20.330  0.00  0.00    +0.000 A 
ATOM     18  C   UNL     1      -0.341  11.394  21.291  0.00  0.00    +0.000 A 
ATOM     19  C   UNL     1       0.213  10.117  21.061  0.00  0.00    +0.000 A 
BRANCH  18  20
ATOM     20  C   UNL     1      -1.113  11.672  22.557  0.00  0.00    +0.000 C 
ATOM     21  F   UNL     1      -2.452  11.830  22.355  0.00  0.00    +0.000 F 
ATOM     22  F   UNL     1      -0.993  10.667  23.470  0.00  0.00    +0.000 F 
ATOM     23  F   UNL     1      -0.697  12.803  23.188  0.00  0.00    +0.000 F 
ENDBRANCH  18  20
ENDBRANCH   6  14
BRANCH   1  24
ATOM     24  C   UNL     1       5.276   4.516  16.269  0.00  0.00    +0.000 C 
BRANCH  24  25
ATOM     25  C   UNL     1       6.684   4.777  16.813  0.00  0.00    +0.000 C 
BRANCH  25  27
ATOM     26  C   UNL     1       6.952   4.820  14.465  0.00  0.00    +0.000 C 
ATOM     27  O   UNL     1       7.614   4.717  15.718  0.00  0.00    +0.000 OA
ENDBRANCH  25  27
ENDBRANCH  24  25
ENDBRANCH   1  24
TORSDOF 5
ENDMDL
MODEL 6
REMARK VINA RESULT:      -7.4      2.360      3.984
REMARK  Name = 
REMARK  7 active torsions:
REMARK  status: ('A' for Active; 'I' for Inactive)
REMARK    1  A    between atoms: C_1  and  O_2
REMARK    2  A    between atoms: O_2  and  C_3
REMARK    3  A    between atoms: C_3  and  C_4
REMARK    4  A    between atoms: C_4  and  N_5
REMARK    5  A    between atoms: C_10  and  C_11
REMARK    6  A    between atoms: C_15  and  C_16
REMARK    7  A    between atoms: N_25  and  C_26
REMARK                            x       y       z     vdW  Elec       q    Type
REMARK                         _______ _______ _______ _____ _____    ______ ____
ROOT
ATOM      1  N   UNL     1       5.093   3.763  17.161  0.00  0.00    +0.000 N 
ATOM      2  C   UNL     1       4.306   4.639  17.875  0.00  0.00    +0.000 A 
ATOM      3  N   UNL     1       3.984   5.780  17.311  0.00  0.00    +0.000 NA
ATOM      4  C   UNL     1       3.158   6.622  18.056  0.00  0.00    +0.000 A 
ATOM      5  C   UNL     1       2.720   7.901  17.628  0.00  0.00    +0.000 A 
ATOM      6  C   UNL     1       1.957   8.534  18.603  0.00  0.00    +0.000 A 
ATOM      7  S   UNL     1       1.714   7.481  19.957  0.00  0.00    +0.000 S 
ATOM      8  C   UNL     1       2.696   6.286  19.288  0.00  0.00    +0.000 A 
ATOM      9  C   UNL     1       3.023   5.055  19.929  0.00  0.00    +0.000 A 
ATOM     10  O   UNL     1       2.606   4.725  21.038  0.00  0.00    +0.000 OA
ATOM     11  N   UNL     1       3.885   4.256  19.161  0.00  0.00    +0.000 N 
ATOM     12  C   UNL     1       4.279   2.992  19.761  0.00  0.00    +0.000 C 
ATOM     13  H   UNL     1       5.472   2.956  17.642  0.00  0.00    +0.000 HD
ENDROOT
BRANCH   6  14
ATOM     14  C   UNL     1       1.360   9.884  18.615  0.00  0.00    +0.000 A 
ATOM     15  C   UNL     1      -0.036  10.060  18.608  0.00  0.00    +0.000 A 
ATOM     16  C   UNL     1      -0.610  11.330  18.613  0.00  0.00    +0.000 A 
ATOM     17  C   UNL     1       0.202  12.458  18.639  0.00  0.00    +0.000 A 
ATOM     18  C   UNL     1       1.597  12.325  18.662  0.00  0.00    +0.000 A 
ATOM     19  C   UNL     1       2.165  11.034  18.649  0.00  0.00    +0.000 A 
BRANCH  18  20
ATOM     20  C   UNL     1       2.483  13.546  18.700  0.00  0.00    +0.000 C 
ATOM     21  F   UNL     1       2.970  13.828  19.941  0.00  0.00    +0.000 F 
ATOM     22  F   UNL     1       3.574  13.422  17.894  0.00  0.00    +0.000 F 
ATOM     23  F   UNL     1       1.840  14.674  18.289  0.00  0.00    +0.000 F 
ENDBRANCH  18  20
ENDBRANCH   6  14
BRANCH   1  24
ATOM     24  C   UNL     1       6.020   4.199  16.120  0.00  0.00    +0.000 C 
BRANCH  24  25
ATOM     25  C   UNL     1       7.289   4.761  16.770  0.00  0.00    +0.000 C 
BRANCH  25  27
ATOM     26  C   UNL     1       7.421   7.018  17.460  0.00  0.00    +0.000 C 
ATOM     27  O   UNL     1       7.448   6.127  16.352  0.00  0.00    +0.000 OA
ENDBRANCH  25  27
ENDBRANCH  24  25
ENDBRANCH   1  24
TORSDOF 5
ENDMDL
MODEL 7
REMARK VINA RESULT:      -7.4      0.904      1.138
REMARK  Name = 
REMARK  7 active torsions:
REMARK  status: ('A' for Active; 'I' for Inactive)
REMARK    1  A    between atoms: C_1  and  O_2
REMARK    2  A    between atoms: O_2  and  C_3
REMARK    3  A    between atoms: C_3  and  C_4
REMARK    4  A    between atoms: C_4  and  N_5
REMARK    5  A    between atoms: C_10  and  C_11
REMARK    6  A    between atoms: C_15  and  C_16
REMARK    7  A    between atoms: N_25  and  C_26
REMARK                            x       y       z     vdW  Elec       q    Type
REMARK                         _______ _______ _______ _____ _____    ______ ____
ROOT
ATOM      1  N   UNL     1       5.164   3.268  19.083  0.00  0.00    +0.000 N 
ATOM      2  C   UNL     1       4.703   4.492  18.652  0.00  0.00    +0.000 A 
ATOM      3  N   UNL     1       3.711   5.045  19.310  0.00  0.00    +0.000 NA
ATOM      4  C   UNL     1       3.299   6.299  18.860  0.00  0.00    +0.000 A 
ATOM      5  C   UNL     1       2.233   7.045  19.425  0.00  0.00    +0.000 A 
ATOM      6  C   UNL     1       2.013   8.230  18.732  0.00  0.00    +0.000 A 
ATOM      7  S   UNL     1       3.202   8.432  17.488  0.00  0.00    +0.000 S 
ATOM      8  C   UNL     1       3.891   6.928  17.812  0.00  0.00    +0.000 A 
ATOM      9  C   UNL     1       4.972   6.359  17.077  0.00  0.00    +0.000 A 
ATOM     10  O   UNL     1       5.531   6.916  16.134  0.00  0.00    +0.000 OA
ATOM     11  N   UNL     1       5.329   5.083  17.540  0.00  0.00    +0.000 N 
ATOM     12  C   UNL     1       6.413   4.430  16.823  0.00  0.00    +0.000 C 
ATOM     13  H   UNL     1       5.818   2.767  18.495  0.00  0.00    +0.000 HD
ENDROOT
BRANCH   6  14
ATOM     14  C   UNL     1       0.979   9.266  18.925  0.00  0.00    +0.000 A 
ATOM     15  C   UNL     1       1.049  10.168  20.003  0.00  0.00    +0.000 A 
ATOM     16  C   UNL     1       0.075  11.146  20.199  0.00  0.00    +0.000 A 
ATOM     17  C   UNL     1      -0.988  11.255  19.310  0.00  0.00    +0.000 A 
ATOM     18  C   UNL     1      -1.085  10.386  18.214  0.00  0.00    +0.000 A 
ATOM     19  C   UNL     1      -0.097   9.396  18.032  0.00  0.00    +0.000 A 
BRANCH  18  20
ATOM     20  C   UNL     1      -2.230  10.506  17.240  0.00  0.00    +0.000 C 
ATOM     21  F   UNL     1      -2.076   9.745  16.120  0.00  0.00    +0.000 F 
ATOM     22  F   UNL     1      -3.419  10.123  17.786  0.00  0.00    +0.000 F 
ATOM     23  F   UNL     1      -2.414  11.781  16.800  0.00  0.00    +0.000 F 
ENDBRANCH  18  20
ENDBRANCH   6  14
BRANCH   1  24
ATOM     24  C   UNL     1       4.327   2.320  19.813  0.00  0.00    +0.000 C 
BRANCH  24  25
ATOM     25  C   UNL     1       3.416   1.579  18.829  0.00  0.00    +0.000 C 
BRANCH  25  27
ATOM     26  C   UNL     1       1.976   2.416  20.506  0.00  0.00    +0.000 C 
ATOM     27  O   UNL     1       2.053   1.744  19.256  0.00  0.00    +0.000 OA
ENDBRANCH  25  27
ENDBRANCH  24  25
ENDBRANCH   1  24
TORSDOF 5
ENDMDL
MODEL 8
REMARK VINA RESULT:      -7.4      1.694      3.543
REMARK  Name = 
REMARK  7 active torsions:
REMARK  status: ('A' for Active; 'I' for Inactive)
REMARK    1  A    between atoms: C_1  and  O_2
REMARK    2  A    between atoms: O_2  and  C_3
REMARK    3  A    between atoms: C_3  and  C_4
REMARK    4  A    between atoms: C_4  and  N_5
REMARK    5  A    between atoms: C_10  and  C_11
REMARK    6  A    between atoms: C_15  and  C_16
REMARK    7  A    between atoms: N_25  and  C_26
REMARK                            x       y       z     vdW  Elec       q    Type
REMARK                         _______ _______ _______ _____ _____    ______ ____
ROOT
ATOM      1  N   UNL     1       6.017   3.790  18.203  0.00  0.00    +0.000 N 
ATOM      2  C   UNL     1       4.903   4.245  18.873  0.00  0.00    +0.000 A 
ATOM      3  N   UNL     1       4.586   5.512  18.756  0.00  0.00    +0.000 NA
ATOM      4  C   UNL     1       3.432   5.921  19.423  0.00  0.00    +0.000 A 
ATOM      5  C   UNL     1       2.939   7.251  19.435  0.00  0.00    +0.000 A 
ATOM      6  C   UNL     1       1.805   7.371  20.232  0.00  0.00    +0.000 A 
ATOM      7  S   UNL     1       1.327   5.820  20.837  0.00  0.00    +0.000 S 
ATOM      8  C   UNL     1       2.664   5.064  20.144  0.00  0.00    +0.000 A 
ATOM      9  C   UNL     1       2.977   3.680  20.291  0.00  0.00    +0.000 A 
ATOM     10  O   UNL     1       2.289   2.883  20.927  0.00  0.00    +0.000 OA
ATOM     11  N   UNL     1       4.164   3.321  19.634  0.00  0.00    +0.000 N 
ATOM     12  C   UNL     1       4.558   1.926  19.757  0.00  0.00    +0.000 C 
ATOM     13  H   UNL     1       6.355   2.858  18.410  0.00  0.00    +0.000 HD
ENDROOT
BRANCH   6  14
ATOM     14  C   UNL     1       1.010   8.565  20.581  0.00  0.00    +0.000 A 
ATOM     15  C   UNL     1       0.506   8.745  21.882  0.00  0.00    +0.000 A 
ATOM     16  C   UNL     1      -0.251   9.866  22.221  0.00  0.00    +0.000 A 
ATOM     17  C   UNL     1      -0.509  10.843  21.267  0.00  0.00    +0.000 A 
ATOM     18  C   UNL     1      -0.011  10.708  19.963  0.00  0.00    +0.000 A 
ATOM     19  C   UNL     1       0.747   9.565  19.631  0.00  0.00    +0.000 A 
BRANCH  18  20
ATOM     20  C   UNL     1      -0.279  11.771  18.926  0.00  0.00    +0.000 C 
ATOM     21  F   UNL     1       0.846  12.230  18.311  0.00  0.00    +0.000 F 
ATOM     22  F   UNL     1      -1.093  11.327  17.926  0.00  0.00    +0.000 F 
ATOM     23  F   UNL     1      -0.892  12.869  19.447  0.00  0.00    +0.000 F 
ENDBRANCH  18  20
ENDBRANCH   6  14
BRANCH   1  24
ATOM     24  C   UNL     1       7.139   4.658  17.854  0.00  0.00    +0.000 C 
BRANCH  24  25
ATOM     25  C   UNL     1       7.128   4.925  16.345  0.00  0.00    +0.000 C 
BRANCH  25  27
ATOM     26  C   UNL     1       7.511   7.036  17.337  0.00  0.00    +0.000 C 
ATOM     27  O   UNL     1       7.493   6.298  16.123  0.00  0.00    +0.000 OA
ENDBRANCH  25  27
ENDBRANCH  24  25
ENDBRANCH   1  24
TORSDOF 5
ENDMDL
MODEL 9
REMARK VINA RESULT:      -7.4      5.207      8.678
REMARK  Name = 
REMARK  7 active torsions:
REMARK  status: ('A' for Active; 'I' for Inactive)
REMARK    1  A    between atoms: C_1  and  O_2
REMARK    2  A    between atoms: O_2  and  C_3
REMARK    3  A    between atoms: C_3  and  C_4
REMARK    4  A    between atoms: C_4  and  N_5
REMARK    5  A    between atoms: C_10  and  C_11
REMARK    6  A    between atoms: C_15  and  C_16
REMARK    7  A    between atoms: N_25  and  C_26
REMARK                            x       y       z     vdW  Elec       q    Type
REMARK                         _______ _______ _______ _____ _____    ______ ____
ROOT
ATOM      1  N   UNL     1       2.008   6.627  20.754  0.00  0.00    +0.000 N 
ATOM      2  C   UNL     1       2.605   5.770  19.856  0.00  0.00    +0.000 A 
ATOM      3  N   UNL     1       3.293   6.292  18.868  0.00  0.00    +0.000 NA
ATOM      4  C   UNL     1       3.909   5.388  18.003  0.00  0.00    +0.000 A 
ATOM      5  C   UNL     1       4.674   5.758  16.868  0.00  0.00    +0.000 A 
ATOM      6  C   UNL     1       5.114   4.642  16.161  0.00  0.00    +0.000 A 
ATOM      7  S   UNL     1       4.666   3.189  16.989  0.00  0.00    +0.000 S 
ATOM      8  C   UNL     1       3.821   4.044  18.171  0.00  0.00    +0.000 A 
ATOM      9  C   UNL     1       3.086   3.442  19.234  0.00  0.00    +0.000 A 
ATOM     10  O   UNL     1       3.004   2.228  19.413  0.00  0.00    +0.000 OA
ATOM     11  N   UNL     1       2.453   4.386  20.057  0.00  0.00    +0.000 N 
ATOM     12  C   UNL     1       1.666   3.845  21.154  0.00  0.00    +0.000 C 
ATOM     13  H   UNL     1       1.353   6.241  21.423  0.00  0.00    +0.000 HD
ENDROOT
BRANCH   6  14
ATOM     14  C   UNL     1       5.874   4.556  14.899  0.00  0.00    +0.000 A 
ATOM     15  C   UNL     1       6.994   5.375  14.669  0.00  0.00    +0.000 A 
ATOM     16  C   UNL     1       7.716   5.307  13.478  0.00  0.00    +0.000 A 
ATOM     17  C   UNL     1       7.339   4.404  12.490  0.00  0.00    +0.000 A 
ATOM     18  C   UNL     1       6.238   3.559  12.687  0.00  0.00    +0.000 A 
ATOM     19  C   UNL     1       5.512   3.644  13.894  0.00  0.00    +0.000 A 
BRANCH  18  20
ATOM     20  C   UNL     1       5.831   2.570  11.623  0.00  0.00    +0.000 C 
ATOM     21  F   UNL     1       5.570   1.324  12.107  0.00  0.00    +0.000 F 
ATOM     22  F   UNL     1       4.702   2.954  10.961  0.00  0.00    +0.000 F 
ATOM     23  F   UNL     1       6.786   2.404  10.667  0.00  0.00    +0.000 F 
ENDBRANCH  18  20
ENDBRANCH   6  14
BRANCH   1  24
ATOM     24  C   UNL     1       1.615   7.990  20.406  0.00  0.00    +0.000 C 
BRANCH  24  25
ATOM     25  C   UNL     1       1.356   8.790  21.687  0.00  0.00    +0.000 C 
BRANCH  25  27
ATOM     26  C   UNL     1      -0.477   9.653  22.904  0.00  0.00    +0.000 C 
ATOM     27  O   UNL     1       0.035   9.353  21.612  0.00  0.00    +0.000 OA
ENDBRANCH  25  27
ENDBRANCH  24  25
ENDBRANCH   1  24
TORSDOF 5
ENDMDL
