MODEL 1
REMARK VINA RESULT:      -7.6      0.000      0.000
REMARK  Name = 
REMARK  8 active torsions:
REMARK  status: ('A' for Active; 'I' for Inactive)
REMARK    1  A    between atoms: C_1  and  N_2
REMARK    2  A    between atoms: C_4  and  C_5
REMARK    3  A    between atoms: C_12  and  C_13
REMARK    4  A    between atoms: C_13  and  N_14
REMARK    5  A    between atoms: N_17  and  C_18
REMARK    6  A    between atoms: C_18  and  C_19
REMARK    7  A    between atoms: C_18  and  C_20
REMARK    8  A    between atoms: C_18  and  C_21
REMARK                            x       y       z     vdW  Elec       q    Type
REMARK                         _______ _______ _______ _____ _____    ______ ____
ROOT
ATOM      1  C   UNL     1       7.924   7.619  17.923  0.00  0.00    +0.000 C 
ATOM      2  N   UNL     1       7.338   6.463  17.282  0.00  0.00    +0.000 N 
ATOM      3  N   UNL     1       7.526   6.304  15.959  0.00  0.00    +0.000 NA
ATOM      4  C   UNL     1       6.856   5.190  15.637  0.00  0.00    +0.000 A 
ATOM      5  C   UNL     1       6.242   4.643  16.796  0.00  0.00    +0.000 A 
ATOM      6  C   UNL     1       6.577   5.473  17.848  0.00  0.00    +0.000 A 
ENDROOT
BRANCH   4   7
ATOM      7  C   UNL     1       6.816   4.686  14.265  0.00  0.00    +0.000 A 
ATOM      8  C   UNL     1       5.879   3.734  13.850  0.00  0.00    +0.000 A 
ATOM      9  C   UNL     1       5.861   3.301  12.525  0.00  0.00    +0.000 A 
ATOM     10  C   UNL     1       6.789   3.832  11.646  0.00  0.00    +0.000 A 
ATOM     11  N   UNL     1       7.717   4.743  12.000  0.00  0.00    +0.000 NA
ATOM     12  C   UNL     1       7.708   5.147  13.299  0.00  0.00    +0.000 A 
ENDBRANCH   4   7
BRANCH   6  13
ATOM     13  C   UNL     1       6.306   5.317  19.296  0.00  0.00    +0.000 C 
BRANCH  13  14
ATOM     14  N   UNL     1       4.884   5.355  19.564  0.00  0.00    +0.000 N 
ATOM     15  C   UNL     1       4.265   4.133  19.726  0.00  0.00    +0.000 C 
ATOM     16  O   UNL     1       4.874   3.074  19.717  0.00  0.00    +0.000 OA
ATOM     17  N   UNL     1       2.908   4.253  19.897  0.00  0.00    +0.000 N 
ATOM     18  H   UNL     1       4.344   6.029  19.046  0.00  0.00    +0.000 HD
ATOM     19  H   UNL     1       2.604   5.148  20.252  0.00  0.00    +0.000 HD
BRANCH  17  20
ATOM     20  C   UNL     1       2.014   3.096  20.132  0.00  0.00    +0.000 C 
ATOM     21  C   UNL     1       2.248   1.982  19.098  0.00  0.00    +0.000 C 
ATOM     22  C   UNL     1       2.303   2.522  21.532  0.00  0.00    +0.000 C 
ATOM     23  C   UNL     1       0.539   3.534  20.101  0.00  0.00    +0.000 C 
ENDBRANCH  17  20
ENDBRANCH  13  14
ENDBRANCH   6  13
TORSDOF 4
ENDMDL
MODEL 2
REMARK VINA RESULT:      -7.5      0.619      1.405
REMARK  Name = 
REMARK  8 active torsions:
REMARK  status: ('A' for Active; 'I' for Inactive)
REMARK    1  A    between atoms: C_1  and  N_2
REMARK    2  A    between atoms: C_4  and  C_5
REMARK    3  A    between atoms: C_12  and  C_13
REMARK    4  A    between atoms: C_13  and  N_14
REMARK    5  A    between atoms: N_17  and  C_18
REMARK    6  A    between atoms: C_18  and  C_19
REMARK    7  A    between atoms: C_18  and  C_20
REMARK    8  A    between atoms: C_18  and  C_21
REMARK                            x       y       z     vdW  Elec       q    Type
REMARK                         _______ _______ _______ _____ _____    ______ ____
ROOT
ATOM      1  C   UNL     1       7.851   7.672  17.868  0.00  0.00    +0.000 C 
ATOM      2  N   UNL     1       7.310   6.491  17.233  0.00  0.00    +0.000 N 
ATOM      3  N   UNL     1       7.477   6.346  15.906  0.00  0.00    +0.000 NA
ATOM      4  C   UNL     1       6.857   5.201  15.592  0.00  0.00    +0.000 A 
ATOM      5  C   UNL     1       6.296   4.620  16.760  0.00  0.00    +0.000 A 
ATOM      6  C   UNL     1       6.612   5.461  17.810  0.00  0.00    +0.000 A 
ENDROOT
BRANCH   4   7
ATOM      7  C   UNL     1       6.814   4.701  14.219  0.00  0.00    +0.000 A 
ATOM      8  C   UNL     1       7.688   5.168  13.231  0.00  0.00    +0.000 A 
ATOM      9  C   UNL     1       7.628   4.644  11.940  0.00  0.00    +0.000 A 
ATOM     10  C   UNL     1       6.689   3.665  11.669  0.00  0.00    +0.000 A 
ATOM     11  N   UNL     1       5.820   3.190  12.584  0.00  0.00    +0.000 NA
ATOM     12  C   UNL     1       5.904   3.719  13.834  0.00  0.00    +0.000 A 
ENDBRANCH   4   7
BRANCH   6  13
ATOM     13  C   UNL     1       6.379   5.286  19.262  0.00  0.00    +0.000 C 
BRANCH  13  14
ATOM     14  N   UNL     1       4.967   5.347  19.573  0.00  0.00    +0.000 N 
ATOM     15  C   UNL     1       4.329   4.136  19.740  0.00  0.00    +0.000 C 
ATOM     16  O   UNL     1       4.917   3.066  19.703  0.00  0.00    +0.000 OA
ATOM     17  N   UNL     1       2.980   4.280  19.952  0.00  0.00    +0.000 N 
ATOM     18  H   UNL     1       4.425   6.037  19.077  0.00  0.00    +0.000 HD
ATOM     19  H   UNL     1       2.705   5.177  20.325  0.00  0.00    +0.000 HD
BRANCH  17  20
ATOM     20  C   UNL     1       2.072   3.138  20.202  0.00  0.00    +0.000 C 
ATOM     21  C   UNL     1       2.320   2.509  21.584  0.00  0.00    +0.000 C 
ATOM     22  C   UNL     1       0.616   3.641  20.157  0.00  0.00    +0.000 C 
ATOM     23  C   UNL     1       2.231   2.068  19.108  0.00  0.00    +0.000 C 
ENDBRANCH  17  20
ENDBRANCH  13  14
ENDBRANCH   6  13
TORSDOF 4
ENDMDL
MODEL 3
REMARK VINA RESULT:      -7.5      2.168      7.323
REMARK  Name = 
REMARK  8 active torsions:
REMARK  status: ('A' for Active; 'I' for Inactive)
REMARK    1  A    between atoms: C_1  and  N_2
REMARK    2  A    between atoms: C_4  and  C_5
REMARK    3  A    between atoms: C_12  and  C_13
REMARK    4  A    between atoms: C_13  and  N_14
REMARK    5  A    between atoms: N_17  and  C_18
REMARK    6  A    between atoms: C_18  and  C_19
REMARK    7  A    between atoms: C_18  and  C_20
REMARK    8  A    between atoms: C_18  and  C_21
REMARK                            x       y       z     vdW  Elec       q    Type
REMARK                         _______ _______ _______ _____ _____    ______ ____
ROOT
ATOM      1  C   UNL     1       4.651   7.004  16.641  0.00  0.00    +0.000 C 
ATOM      2  N   UNL     1       4.663   5.809  17.455  0.00  0.00    +0.000 N 
ATOM      3  N   UNL     1       3.589   5.551  18.224  0.00  0.00    +0.000 NA
ATOM      4  C   UNL     1       3.886   4.421  18.882  0.00  0.00    +0.000 A 
ATOM      5  C   UNL     1       5.179   3.969  18.503  0.00  0.00    +0.000 A 
ATOM      6  C   UNL     1       5.656   4.871  17.572  0.00  0.00    +0.000 A 
ENDROOT
BRANCH   4   7
ATOM      7  C   UNL     1       2.955   3.818  19.833  0.00  0.00    +0.000 A 
ATOM      8  C   UNL     1       1.571   3.842  19.635  0.00  0.00    +0.000 A 
ATOM      9  C   UNL     1       0.721   3.231  20.556  0.00  0.00    +0.000 A 
ATOM     10  C   UNL     1       1.282   2.611  21.659  0.00  0.00    +0.000 A 
ATOM     11  N   UNL     1       2.608   2.569  21.898  0.00  0.00    +0.000 NA
ATOM     12  C   UNL     1       3.411   3.173  20.981  0.00  0.00    +0.000 A 
ENDBRANCH   4   7
BRANCH   6  13
ATOM     13  C   UNL     1       6.896   4.825  16.763  0.00  0.00    +0.000 C 
BRANCH  13  14
ATOM     14  N   UNL     1       6.823   3.786  15.759  0.00  0.00    +0.000 N 
ATOM     15  C   UNL     1       6.576   4.206  14.469  0.00  0.00    +0.000 C 
ATOM     16  O   UNL     1       6.492   5.384  14.159  0.00  0.00    +0.000 OA
ATOM     17  N   UNL     1       6.443   3.156  13.594  0.00  0.00    +0.000 N 
ATOM     18  H   UNL     1       6.343   2.939  16.019  0.00  0.00    +0.000 HD
ATOM     19  H   UNL     1       6.894   2.301  13.887  0.00  0.00    +0.000 HD
BRANCH  17  20
ATOM     20  C   UNL     1       6.215   3.334  12.142  0.00  0.00    +0.000 C 
ATOM     21  C   UNL     1       7.104   4.446  11.562  0.00  0.00    +0.000 C 
ATOM     22  C   UNL     1       6.559   2.017  11.420  0.00  0.00    +0.000 C 
ATOM     23  C   UNL     1       4.736   3.649  11.859  0.00  0.00    +0.000 C 
ENDBRANCH  17  20
ENDBRANCH  13  14
ENDBRANCH   6  13
TORSDOF 4
ENDMDL
MODEL 4
REMARK VINA RESULT:      -7.4      0.251      1.035
REMARK  Name = 
REMARK  8 active torsions:
REMARK  status: ('A' for Active; 'I' for Inactive)
REMARK    1  A    between atoms: C_1  and  N_2
REMARK    2  A    between atoms: C_4  and  C_5
REMARK    3  A    between atoms: C_12  and  C_13
REMARK    4  A    between atoms: C_13  and  N_14
REMARK    5  A    between atoms: N_17  and  C_18
REMARK    6  A    between atoms: C_18  and  C_19
REMARK    7  A    between atoms: C_18  and  C_20
REMARK    8  A    between atoms: C_18  and  C_21
REMARK                            x       y       z     vdW  Elec       q    Type
REMARK                         _______ _______ _______ _____ _____    ______ ____
ROOT
ATOM      1  C   UNL     1       8.040   7.492  18.074  0.00  0.00    +0.000 C 
ATOM      2  N   UNL     1       7.371   6.419  17.375  0.00  0.00    +0.000 N 
ATOM      3  N   UNL     1       7.621   6.259  16.062  0.00  0.00    +0.000 NA
ATOM      4  C   UNL     1       6.853   5.231  15.676  0.00  0.00    +0.000 A 
ATOM      5  C   UNL     1       6.112   4.739  16.784  0.00  0.00    +0.000 A 
ATOM      6  C   UNL     1       6.472   5.511  17.872  0.00  0.00    +0.000 A 
ENDROOT
BRANCH   4   7
ATOM      7  C   UNL     1       6.843   4.756  14.294  0.00  0.00    +0.000 A 
ATOM      8  C   UNL     1       5.993   3.730  13.868  0.00  0.00    +0.000 A 
ATOM      9  C   UNL     1       5.998   3.325  12.533  0.00  0.00    +0.000 A 
ATOM     10  C   UNL     1       6.861   3.959  11.657  0.00  0.00    +0.000 A 
ATOM     11  N   UNL     1       7.705   4.945  12.021  0.00  0.00    +0.000 NA
ATOM     12  C   UNL     1       7.675   5.318  13.329  0.00  0.00    +0.000 A 
ENDBRANCH   4   7
BRANCH   6  13
ATOM     13  C   UNL     1       6.096   5.364  19.298  0.00  0.00    +0.000 C 
BRANCH  13  14
ATOM     14  N   UNL     1       4.658   5.322  19.453  0.00  0.00    +0.000 N 
ATOM     15  C   UNL     1       4.112   4.082  19.711  0.00  0.00    +0.000 C 
ATOM     16  O   UNL     1       4.790   3.079  19.872  0.00  0.00    +0.000 OA
ATOM     17  N   UNL     1       2.741   4.116  19.765  0.00  0.00    +0.000 N 
ATOM     18  H   UNL     1       4.118   5.890  18.821  0.00  0.00    +0.000 HD
ATOM     19  H   UNL     1       2.349   5.018  19.989  0.00  0.00    +0.000 HD
BRANCH  17  20
ATOM     20  C   UNL     1       1.912   2.927  20.068  0.00  0.00    +0.000 C 
ATOM     21  C   UNL     1       1.860   2.642  21.579  0.00  0.00    +0.000 C 
ATOM     22  C   UNL     1       0.474   3.186  19.578  0.00  0.00    +0.000 C 
ATOM     23  C   UNL     1       2.443   1.690  19.323  0.00  0.00    +0.000 C 
ENDBRANCH  17  20
ENDBRANCH  13  14
ENDBRANCH   6  13
TORSDOF 4
ENDMDL
MODEL 5
REMARK VINA RESULT:      -7.4      3.412      7.302
REMARK  Name = 
REMARK  8 active torsions:
REMARK  status: ('A' for Active; 'I' for Inactive)
REMARK    1  A    between atoms: C_1  and  N_2
REMARK    2  A    between atoms: C_4  and  C_5
REMARK    3  A    between atoms: C_12  and  C_13
REMARK    4  A    between atoms: C_13  and  N_14
REMARK    5  A    between atoms: N_17  and  C_18
REMARK    6  A    between atoms: C_18  and  C_19
REMARK    7  A    between atoms: C_18  and  C_20
REMARK    8  A    between atoms: C_18  and  C_21
REMARK                            x       y       z     vdW  Elec       q    Type
REMARK                         _______ _______ _______ _____ _____    ______ ____
ROOT
ATOM      1  C   UNL     1       4.480   3.151  18.949  0.00  0.00    +0.000 C 
ATOM      2  N   UNL     1       4.382   4.522  18.502  0.00  0.00    +0.000 N 
ATOM      3  N   UNL     1       3.385   5.283  18.991  0.00  0.00    +0.000 NA
ATOM      4  C   UNL     1       3.517   6.473  18.389  0.00  0.00    +0.000 A 
ATOM      5  C   UNL     1       4.631   6.446  17.507  0.00  0.00    +0.000 A 
ATOM      6  C   UNL     1       5.182   5.183  17.606  0.00  0.00    +0.000 A 
ENDROOT
BRANCH   4   7
ATOM      7  C   UNL     1       2.600   7.578  18.660  0.00  0.00    +0.000 A 
ATOM      8  C   UNL     1       2.268   8.524  17.685  0.00  0.00    +0.000 A 
ATOM      9  C   UNL     1       1.368   9.548  17.980  0.00  0.00    +0.000 A 
ATOM     10  C   UNL     1       0.825   9.599  19.252  0.00  0.00    +0.000 A 
ATOM     11  N   UNL     1       1.121   8.718  20.228  0.00  0.00    +0.000 NA
ATOM     12  C   UNL     1       2.000   7.730  19.908  0.00  0.00    +0.000 A 
ENDBRANCH   4   7
BRANCH   6  13
ATOM     13  C   UNL     1       6.422   4.644  16.999  0.00  0.00    +0.000 C 
BRANCH  13  14
ATOM     14  N   UNL     1       6.116   3.662  15.981  0.00  0.00    +0.000 N 
ATOM     15  C   UNL     1       6.272   4.075  14.674  0.00  0.00    +0.000 C 
ATOM     16  O   UNL     1       6.707   5.176  14.373  0.00  0.00    +0.000 OA
ATOM     17  N   UNL     1       5.886   3.114  13.773  0.00  0.00    +0.000 N 
ATOM     18  H   UNL     1       5.307   3.083  16.140  0.00  0.00    +0.000 HD
ATOM     19  H   UNL     1       5.912   2.168  14.126  0.00  0.00    +0.000 HD
BRANCH  17  20
ATOM     20  C   UNL     1       5.991   3.288  12.306  0.00  0.00    +0.000 C 
ATOM     21  C   UNL     1       7.101   4.285  11.933  0.00  0.00    +0.000 C 
ATOM     22  C   UNL     1       6.331   1.928  11.667  0.00  0.00    +0.000 C 
ATOM     23  C   UNL     1       4.650   3.758  11.718  0.00  0.00    +0.000 C 
ENDBRANCH  17  20
ENDBRANCH  13  14
ENDBRANCH   6  13
TORSDOF 4
ENDMDL
MODEL 6
REMARK VINA RESULT:      -7.4      2.138      7.306
REMARK  Name = 
REMARK  8 active torsions:
REMARK  status: ('A' for Active; 'I' for Inactive)
REMARK    1  A    between atoms: C_1  and  N_2
REMARK    2  A    between atoms: C_4  and  C_5
REMARK    3  A    between atoms: C_12  and  C_13
REMARK    4  A    between atoms: C_13  and  N_14
REMARK    5  A    between atoms: N_17  and  C_18
REMARK    6  A    between atoms: C_18  and  C_19
REMARK    7  A    between atoms: C_18  and  C_20
REMARK    8  A    between atoms: C_18  and  C_21
REMARK                            x       y       z     vdW  Elec       q    Type
REMARK                         _______ _______ _______ _____ _____    ______ ____
ROOT
ATOM      1  C   UNL     1       7.616   6.005  19.194  0.00  0.00    +0.000 C 
ATOM      2  N   UNL     1       6.444   5.222  18.869  0.00  0.00    +0.000 N 
ATOM      3  N   UNL     1       5.496   5.072  19.811  0.00  0.00    +0.000 NA
ATOM      4  C   UNL     1       4.562   4.288  19.255  0.00  0.00    +0.000 A 
ATOM      5  C   UNL     1       4.944   3.950  17.929  0.00  0.00    +0.000 A 
ATOM      6  C   UNL     1       6.154   4.574  17.696  0.00  0.00    +0.000 A 
ENDROOT
BRANCH   4   7
ATOM      7  C   UNL     1       3.360   3.889  19.984  0.00  0.00    +0.000 A 
ATOM      8  C   UNL     1       2.110   4.462  19.725  0.00  0.00    +0.000 A 
ATOM      9  C   UNL     1       0.984   4.032  20.427  0.00  0.00    +0.000 A 
ATOM     10  C   UNL     1       1.141   3.037  21.376  0.00  0.00    +0.000 A 
ATOM     11  N   UNL     1       2.324   2.461  21.667  0.00  0.00    +0.000 NA
ATOM     12  C   UNL     1       3.403   2.901  20.965  0.00  0.00    +0.000 A 
ENDBRANCH   4   7
BRANCH   6  13
ATOM     13  C   UNL     1       6.947   4.658  16.447  0.00  0.00    +0.000 C 
BRANCH  13  14
ATOM     14  N   UNL     1       6.564   3.616  15.519  0.00  0.00    +0.000 N 
ATOM     15  C   UNL     1       6.522   3.975  14.188  0.00  0.00    +0.000 C 
ATOM     16  O   UNL     1       6.851   5.081  13.789  0.00  0.00    +0.000 OA
ATOM     17  N   UNL     1       6.074   2.955  13.385  0.00  0.00    +0.000 N 
ATOM     18  H   UNL     1       5.817   3.005  15.808  0.00  0.00    +0.000 HD
ATOM     19  H   UNL     1       6.199   2.030  13.769  0.00  0.00    +0.000 HD
BRANCH  17  20
ATOM     20  C   UNL     1       5.973   3.067  11.912  0.00  0.00    +0.000 C 
ATOM     21  C   UNL     1       6.187   1.707  11.225  0.00  0.00    +0.000 C 
ATOM     22  C   UNL     1       4.564   3.573  11.547  0.00  0.00    +0.000 C 
ATOM     23  C   UNL     1       6.990   4.088  11.374  0.00  0.00    +0.000 C 
ENDBRANCH  17  20
ENDBRANCH  13  14
ENDBRANCH   6  13
TORSDOF 4
ENDMDL
MODEL 7
REMARK VINA RESULT:      -7.2      3.473      7.373
REMARK  Name = 
REMARK  8 active torsions:
REMARK  status: ('A' for Active; 'I' for Inactive)
REMARK    1  A    between atoms: C_1  and  N_2
REMARK    2  A    between atoms: C_4  and  C_5
REMARK    3  A    between atoms: C_12  and  C_13
REMARK    4  A    between atoms: C_13  and  N_14
REMARK    5  A    between atoms: N_17  and  C_18
REMARK    6  A    between atoms: C_18  and  C_19
REMARK    7  A    between atoms: C_18  and  C_20
REMARK    8  A    between atoms: C_18  and  C_21
REMARK                            x       y       z     vdW  Elec       q    Type
REMARK                         _______ _______ _______ _____ _____    ______ ____
ROOT
ATOM      1  C   UNL     1       3.791   2.983  17.802  0.00  0.00    +0.000 C 
ATOM      2  N   UNL     1       3.965   4.418  17.828  0.00  0.00    +0.000 N 
ATOM      3  N   UNL     1       2.951   5.175  18.285  0.00  0.00    +0.000 NA
ATOM      4  C   UNL     1       3.371   6.442  18.165  0.00  0.00    +0.000 A 
ATOM      5  C   UNL     1       4.684   6.465  17.623  0.00  0.00    +0.000 A 
ATOM      6  C   UNL     1       5.053   5.149  17.425  0.00  0.00    +0.000 A 
ENDROOT
BRANCH   4   7
ATOM      7  C   UNL     1       2.530   7.571  18.559  0.00  0.00    +0.000 A 
ATOM      8  C   UNL     1       2.184   8.587  17.662  0.00  0.00    +0.000 A 
ATOM      9  C   UNL     1       1.358   9.633  18.074  0.00  0.00    +0.000 A 
ATOM     10  C   UNL     1       0.902   9.635  19.380  0.00  0.00    +0.000 A 
ATOM     11  N   UNL     1       1.215   8.685  20.283  0.00  0.00    +0.000 NA
ATOM     12  C   UNL     1       2.021   7.678  19.851  0.00  0.00    +0.000 A 
ENDBRANCH   4   7
BRANCH   6  13
ATOM     13  C   UNL     1       6.354   4.588  16.992  0.00  0.00    +0.000 C 
BRANCH  13  14
ATOM     14  N   UNL     1       6.172   3.596  15.954  0.00  0.00    +0.000 N 
ATOM     15  C   UNL     1       6.288   4.049  14.657  0.00  0.00    +0.000 C 
ATOM     16  O   UNL     1       6.594   5.198  14.379  0.00  0.00    +0.000 OA
ATOM     17  N   UNL     1       6.024   3.066  13.735  0.00  0.00    +0.000 N 
ATOM     18  H   UNL     1       5.436   2.924  16.096  0.00  0.00    +0.000 HD
ATOM     19  H   UNL     1       6.157   2.124  14.072  0.00  0.00    +0.000 HD
BRANCH  17  20
ATOM     20  C   UNL     1       6.118   3.278  12.273  0.00  0.00    +0.000 C 
ATOM     21  C   UNL     1       6.545   1.994  11.541  0.00  0.00    +0.000 C 
ATOM     22  C   UNL     1       4.733   3.697  11.742  0.00  0.00    +0.000 C 
ATOM     23  C   UNL     1       7.105   4.414  11.951  0.00  0.00    +0.000 C 
ENDBRANCH  17  20
ENDBRANCH  13  14
ENDBRANCH   6  13
TORSDOF 4
ENDMDL
MODEL 8
REMARK VINA RESULT:      -7.2      2.694      5.300
REMARK  Name = 
REMARK  8 active torsions:
REMARK  status: ('A' for Active; 'I' for Inactive)
REMARK    1  A    between atoms: C_1  and  N_2
REMARK    2  A    between atoms: C_4  and  C_5
REMARK    3  A    between atoms: C_12  and  C_13
REMARK    4  A    between atoms: C_13  and  N_14
REMARK    5  A    between atoms: N_17  and  C_18
REMARK    6  A    between atoms: C_18  and  C_19
REMARK    7  A    between atoms: C_18  and  C_20
REMARK    8  A    between atoms: C_18  and  C_21
REMARK                            x       y       z     vdW  Elec       q    Type
REMARK                         _______ _______ _______ _____ _____    ______ ____
ROOT
ATOM      1  C   UNL     1       5.529   6.637  16.155  0.00  0.00    +0.000 C 
ATOM      2  N   UNL     1       6.563   7.056  17.075  0.00  0.00    +0.000 N 
ATOM      3  N   UNL     1       6.903   8.357  17.102  0.00  0.00    +0.000 NA
ATOM      4  C   UNL     1       7.889   8.448  18.005  0.00  0.00    +0.000 A 
ATOM      5  C   UNL     1       8.161   7.166  18.554  0.00  0.00    +0.000 A 
ATOM      6  C   UNL     1       7.285   6.285  17.950  0.00  0.00    +0.000 A 
ENDROOT
BRANCH   4   7
ATOM      7  C   UNL     1       8.534   9.723  18.314  0.00  0.00    +0.000 A 
ATOM      8  C   UNL     1       9.406   9.871  19.398  0.00  0.00    +0.000 A 
ATOM      9  C   UNL     1      10.019  11.101  19.640  0.00  0.00    +0.000 A 
ATOM     10  C   UNL     1       9.740  12.154  18.788  0.00  0.00    +0.000 A 
ATOM     11  N   UNL     1       8.901  12.064  17.737  0.00  0.00    +0.000 NA
ATOM     12  C   UNL     1       8.319  10.852  17.526  0.00  0.00    +0.000 A 
ENDBRANCH   4   7
BRANCH   6  13
ATOM     13  C   UNL     1       7.051   4.849  18.227  0.00  0.00    +0.000 C 
BRANCH  13  14
ATOM     14  N   UNL     1       5.983   4.674  19.188  0.00  0.00    +0.000 N 
ATOM     15  C   UNL     1       4.817   4.118  18.704  0.00  0.00    +0.000 C 
ATOM     16  O   UNL     1       4.696   3.727  17.554  0.00  0.00    +0.000 OA
ATOM     17  N   UNL     1       3.831   4.061  19.658  0.00  0.00    +0.000 N 
ATOM     18  H   UNL     1       5.844   5.420  19.851  0.00  0.00    +0.000 HD
ATOM     19  H   UNL     1       4.164   4.058  20.611  0.00  0.00    +0.000 HD
BRANCH  17  20
ATOM     20  C   UNL     1       2.495   3.472  19.409  0.00  0.00    +0.000 C 
ATOM     21  C   UNL     1       2.595   1.988  19.015  0.00  0.00    +0.000 C 
ATOM     22  C   UNL     1       1.660   3.571  20.700  0.00  0.00    +0.000 C 
ATOM     23  C   UNL     1       1.753   4.253  18.311  0.00  0.00    +0.000 C 
ENDBRANCH  17  20
ENDBRANCH  13  14
ENDBRANCH   6  13
TORSDOF 4
ENDMDL
MODEL 9
REMARK VINA RESULT:      -7.2      3.398      7.288
REMARK  Name = 
REMARK  8 active torsions:
REMARK  status: ('A' for Active; 'I' for Inactive)
REMARK    1  A    between atoms: C_1  and  N_2
REMARK    2  A    between atoms: C_4  and  C_5
REMARK    3  A    between atoms: C_12  and  C_13
REMARK    4  A    between atoms: C_13  and  N_14
REMARK    5  A    between atoms: N_17  and  C_18
REMARK    6  A    between atoms: C_18  and  C_19
REMARK    7  A    between atoms: C_18  and  C_20
REMARK    8  A    between atoms: C_18  and  C_21
REMARK                            x       y       z     vdW  Elec       q    Type
REMARK                         _______ _______ _______ _____ _____    ______ ____
ROOT
ATOM      1  C   UNL     1       4.090   2.957  18.339  0.00  0.00    +0.000 C 
ATOM      2  N   UNL     1       4.146   4.391  18.162  0.00  0.00    +0.000 N 
ATOM      3  N   UNL     1       3.129   5.133  18.639  0.00  0.00    +0.000 NA
ATOM      4  C   UNL     1       3.426   6.397  18.310  0.00  0.00    +0.000 A 
ATOM      5  C   UNL     1       4.665   6.437  17.616  0.00  0.00    +0.000 A 
ATOM      6  C   UNL     1       5.118   5.133  17.543  0.00  0.00    +0.000 A 
ENDROOT
BRANCH   4   7
ATOM      7  C   UNL     1       2.543   7.510  18.656  0.00  0.00    +0.000 A 
ATOM      8  C   UNL     1       2.003   7.658  19.937  0.00  0.00    +0.000 A 
ATOM      9  C   UNL     1       1.185   8.750  20.230  0.00  0.00    +0.000 A 
ATOM     10  C   UNL     1       0.926   9.666  19.226  0.00  0.00    +0.000 A 
ATOM     11  N   UNL     1       1.415   9.561  17.974  0.00  0.00    +0.000 NA
ATOM     12  C   UNL     1       2.210   8.487  17.720  0.00  0.00    +0.000 A 
ENDBRANCH   4   7
BRANCH   6  13
ATOM     13  C   UNL     1       6.406   4.610  17.032  0.00  0.00    +0.000 C 
BRANCH  13  14
ATOM     14  N   UNL     1       6.190   3.625  15.994  0.00  0.00    +0.000 N 
ATOM     15  C   UNL     1       6.294   4.079  14.696  0.00  0.00    +0.000 C 
ATOM     16  O   UNL     1       6.616   5.223  14.418  0.00  0.00    +0.000 OA
ATOM     17  N   UNL     1       5.997   3.104  13.776  0.00  0.00    +0.000 N 
ATOM     18  H   UNL     1       5.444   2.965  16.145  0.00  0.00    +0.000 HD
ATOM     19  H   UNL     1       6.119   2.159  14.108  0.00  0.00    +0.000 HD
BRANCH  17  20
ATOM     20  C   UNL     1       6.072   3.320  12.313  0.00  0.00    +0.000 C 
ATOM     21  C   UNL     1       7.158   4.346  11.947  0.00  0.00    +0.000 C 
ATOM     22  C   UNL     1       6.424   1.984  11.631  0.00  0.00    +0.000 C 
ATOM     23  C   UNL     1       4.712   3.782  11.761  0.00  0.00    +0.000 C 
ENDBRANCH  17  20
ENDBRANCH  13  14
ENDBRANCH   6  13
TORSDOF 4
ENDMDL
