MODEL 1
REMARK VINA RESULT:      -6.2      0.000      0.000
REMARK  Name = 
REMARK  12 active torsions:
REMARK  status: ('A' for Active; 'I' for Inactive)
REMARK    1  A    between atoms: C_1  and  C_2
REMARK    2  A    between atoms: C_2  and  C_3
REMARK    3  A    between atoms: C_3  and  C_4
REMARK    4  A    between atoms: C_4  and  C_5
REMARK    5  A    between atoms: C_5  and  C_6
REMARK    6  A    between atoms: C_6  and  C_7
REMARK    7  A    between atoms: C_7  and  C_8
REMARK    8  A    between atoms: C_8  and  C_9
REMARK    9  A    between atoms: C_9  and  C_10
REMARK   10  A    between atoms: C_11  and  C_12
REMARK   11  A    between atoms: N_14  and  C_15
REMARK   12  A    between atoms: C_15  and  C_16
REMARK                            x       y       z     vdW  Elec       q    Type
REMARK                         _______ _______ _______ _____ _____    ______ ____
ROOT
ATOM      1  C   UNL     1       3.239   7.459  18.182  0.00  0.00    +0.000 C 
ATOM      2  C   UNL     1       2.247   8.207  17.672  0.00  0.00    +0.000 C 
ENDROOT
BRANCH   2   3
ATOM      3  C   UNL     1       1.456   9.062  18.588  0.00  0.00    +0.000 C 
ATOM      4  O   UNL     1       1.366   8.802  19.781  0.00  0.00    +0.000 OA
ATOM      5  N   UNL     1       0.884  10.134  17.971  0.00  0.00    +0.000 N 
ATOM      6  H   UNL     1       1.010  10.280  16.980  0.00  0.00    +0.000 HD
BRANCH   5   7
ATOM      7  C   UNL     1       0.065  11.082  18.704  0.00  0.00    +0.000 C 
BRANCH   7   8
ATOM      8  C   UNL     1      -1.367  10.992  18.247  0.00  0.00    +0.000 A 
ATOM      9  C   UNL     1      -2.347  11.812  18.824  0.00  0.00    +0.000 A 
ATOM     10  C   UNL     1      -3.693  11.635  18.503  0.00  0.00    +0.000 A 
ATOM     11  C   UNL     1      -4.070  10.648  17.594  0.00  0.00    +0.000 A 
ATOM     12  C   UNL     1      -3.100   9.855  16.983  0.00  0.00    +0.000 A 
ATOM     13  C   UNL     1      -1.753  10.026  17.307  0.00  0.00    +0.000 A 
ENDBRANCH   7   8
ENDBRANCH   5   7
ENDBRANCH   2   3
BRANCH   1  14
ATOM     14  C   UNL     1       4.086   6.532  17.363  0.00  0.00    +0.000 C 
BRANCH  14  15
ATOM     15  C   UNL     1       5.040   5.714  18.237  0.00  0.00    +0.000 C 
BRANCH  15  16
ATOM     16  C   UNL     1       4.682   4.227  18.206  0.00  0.00    +0.000 C 
BRANCH  16  17
ATOM     17  C   UNL     1       3.798   3.899  17.004  0.00  0.00    +0.000 C 
BRANCH  17  18
ATOM     18  C   UNL     1       2.579   3.082  17.423  0.00  0.00    +0.000 C 
BRANCH  18  19
ATOM     19  C   UNL     1       1.494   3.980  18.015  0.00  0.00    +0.000 C 
BRANCH  19  20
ATOM     20  C   UNL     1       0.982   3.415  19.338  0.00  0.00    +0.000 C 
BRANCH  20  22
ATOM     21  C   UNL     1       1.792   5.339  20.732  0.00  0.00    +0.000 C 
ATOM     22  C   UNL     1       1.874   3.840  20.502  0.00  0.00    +0.000 C 
ENDBRANCH  20  22
ENDBRANCH  19  20
ENDBRANCH  18  19
ENDBRANCH  17  18
ENDBRANCH  16  17
ENDBRANCH  15  16
ENDBRANCH  14  15
ENDBRANCH   1  14
TORSDOF 11
ENDMDL
MODEL 2
REMARK VINA RESULT:      -6.2      2.159      2.953
REMARK  Name = 
REMARK  12 active torsions:
REMARK  status: ('A' for Active; 'I' for Inactive)
REMARK    1  A    between atoms: C_1  and  C_2
REMARK    2  A    between atoms: C_2  and  C_3
REMARK    3  A    between atoms: C_3  and  C_4
REMARK    4  A    between atoms: C_4  and  C_5
REMARK    5  A    between atoms: C_5  and  C_6
REMARK    6  A    between atoms: C_6  and  C_7
REMARK    7  A    between atoms: C_7  and  C_8
REMARK    8  A    between atoms: C_8  and  C_9
REMARK    9  A    between atoms: C_9  and  C_10
REMARK   10  A    between atoms: C_11  and  C_12
REMARK   11  A    between atoms: N_14  and  C_15
REMARK   12  A    between atoms: C_15  and  C_16
REMARK                            x       y       z     vdW  Elec       q    Type
REMARK                         _______ _______ _______ _____ _____    ______ ____
ROOT
ATOM      1  C   UNL     1       2.666   7.483  18.333  0.00  0.00    +0.000 C 
ATOM      2  C   UNL     1       2.643   8.597  17.584  0.00  0.00    +0.000 C 
ENDROOT
BRANCH   2   3
ATOM      3  C   UNL     1       1.823   9.744  18.037  0.00  0.00    +0.000 C 
ATOM      4  O   UNL     1       2.268  10.885  18.033  0.00  0.00    +0.000 OA
ATOM      5  N   UNL     1       0.564   9.391  18.423  0.00  0.00    +0.000 N 
ATOM      6  H   UNL     1       0.273   8.425  18.393  0.00  0.00    +0.000 HD
BRANCH   5   7
ATOM      7  C   UNL     1      -0.385  10.378  18.905  0.00  0.00    +0.000 C 
BRANCH   7   8
ATOM      8  C   UNL     1      -0.428  10.363  20.410  0.00  0.00    +0.000 A 
ATOM      9  C   UNL     1      -0.159   9.181  21.114  0.00  0.00    +0.000 A 
ATOM     10  C   UNL     1      -0.334   9.128  22.497  0.00  0.00    +0.000 A 
ATOM     11  C   UNL     1      -0.765  10.258  23.190  0.00  0.00    +0.000 A 
ATOM     12  C   UNL     1      -0.995  11.450  22.505  0.00  0.00    +0.000 A 
ATOM     13  C   UNL     1      -0.827  11.504  21.121  0.00  0.00    +0.000 A 
ENDBRANCH   7   8
ENDBRANCH   5   7
ENDBRANCH   2   3
BRANCH   1  14
ATOM     14  C   UNL     1       3.432   6.247  17.964  0.00  0.00    +0.000 C 
BRANCH  14  15
ATOM     15  C   UNL     1       4.086   5.599  19.187  0.00  0.00    +0.000 C 
BRANCH  15  16
ATOM     16  C   UNL     1       4.382   4.120  18.938  0.00  0.00    +0.000 C 
BRANCH  16  17
ATOM     17  C   UNL     1       3.554   3.581  17.772  0.00  0.00    +0.000 C 
BRANCH  17  18
ATOM     18  C   UNL     1       3.204   2.110  17.978  0.00  0.00    +0.000 C 
BRANCH  18  19
ATOM     19  C   UNL     1       2.106   1.949  19.028  0.00  0.00    +0.000 C 
BRANCH  19  20
ATOM     20  C   UNL     1       1.037   3.025  18.867  0.00  0.00    +0.000 C 
BRANCH  20  22
ATOM     21  C   UNL     1       1.587   3.170  21.312  0.00  0.00    +0.000 C 
ATOM     22  C   UNL     1       0.873   3.838  20.149  0.00  0.00    +0.000 C 
ENDBRANCH  20  22
ENDBRANCH  19  20
ENDBRANCH  18  19
ENDBRANCH  17  18
ENDBRANCH  16  17
ENDBRANCH  15  16
ENDBRANCH  14  15
ENDBRANCH   1  14
TORSDOF 11
ENDMDL
MODEL 3
REMARK VINA RESULT:      -6.1      2.242      3.048
REMARK  Name = 
REMARK  12 active torsions:
REMARK  status: ('A' for Active; 'I' for Inactive)
REMARK    1  A    between atoms: C_1  and  C_2
REMARK    2  A    between atoms: C_2  and  C_3
REMARK    3  A    between atoms: C_3  and  C_4
REMARK    4  A    between atoms: C_4  and  C_5
REMARK    5  A    between atoms: C_5  and  C_6
REMARK    6  A    between atoms: C_6  and  C_7
REMARK    7  A    between atoms: C_7  and  C_8
REMARK    8  A    between atoms: C_8  and  C_9
REMARK    9  A    between atoms: C_9  and  C_10
REMARK   10  A    between atoms: C_11  and  C_12
REMARK   11  A    between atoms: N_14  and  C_15
REMARK   12  A    between atoms: C_15  and  C_16
REMARK                            x       y       z     vdW  Elec       q    Type
REMARK                         _______ _______ _______ _____ _____    ______ ____
ROOT
ATOM      1  C   UNL     1       3.472   6.394  17.552  0.00  0.00    +0.000 C 
ATOM      2  C   UNL     1       2.976   7.083  18.592  0.00  0.00    +0.000 C 
ENDROOT
BRANCH   2   3
ATOM      3  C   UNL     1       2.180   8.304  18.325  0.00  0.00    +0.000 C 
ATOM      4  O   UNL     1       2.238   8.876  17.244  0.00  0.00    +0.000 OA
ATOM      5  N   UNL     1       1.397   8.681  19.375  0.00  0.00    +0.000 N 
ATOM      6  H   UNL     1       1.403   8.151  20.234  0.00  0.00    +0.000 HD
BRANCH   5   7
ATOM      7  C   UNL     1       0.551   9.859  19.303  0.00  0.00    +0.000 C 
BRANCH   7   8
ATOM      8  C   UNL     1      -0.079  10.127  20.644  0.00  0.00    +0.000 A 
ATOM      9  C   UNL     1      -0.558  11.406  20.958  0.00  0.00    +0.000 A 
ATOM     10  C   UNL     1      -1.014  11.693  22.245  0.00  0.00    +0.000 A 
ATOM     11  C   UNL     1      -1.007  10.702  23.225  0.00  0.00    +0.000 A 
ATOM     12  C   UNL     1      -0.571   9.415  22.912  0.00  0.00    +0.000 A 
ATOM     13  C   UNL     1      -0.110   9.127  21.627  0.00  0.00    +0.000 A 
ENDBRANCH   7   8
ENDBRANCH   5   7
ENDBRANCH   2   3
BRANCH   1  14
ATOM     14  C   UNL     1       4.317   5.164  17.696  0.00  0.00    +0.000 C 
BRANCH  14  15
ATOM     15  C   UNL     1       3.698   3.963  16.977  0.00  0.00    +0.000 C 
BRANCH  15  16
ATOM     16  C   UNL     1       3.938   2.668  17.754  0.00  0.00    +0.000 C 
BRANCH  16  17
ATOM     17  C   UNL     1       2.627   2.096  18.292  0.00  0.00    +0.000 C 
BRANCH  17  18
ATOM     18  C   UNL     1       1.497   3.116  18.185  0.00  0.00    +0.000 C 
BRANCH  18  19
ATOM     19  C   UNL     1       0.702   3.193  19.487  0.00  0.00    +0.000 C 
BRANCH  19  20
ATOM     20  C   UNL     1       1.082   4.437  20.285  0.00  0.00    +0.000 C 
BRANCH  20  22
ATOM     21  C   UNL     1       2.142   2.754  21.816  0.00  0.00    +0.000 C 
ATOM     22  C   UNL     1       2.246   4.152  21.231  0.00  0.00    +0.000 C 
ENDBRANCH  20  22
ENDBRANCH  19  20
ENDBRANCH  18  19
ENDBRANCH  17  18
ENDBRANCH  16  17
ENDBRANCH  15  16
ENDBRANCH  14  15
ENDBRANCH   1  14
TORSDOF 11
ENDMDL
MODEL 4
REMARK VINA RESULT:      -6.1      6.373      9.609
REMARK  Name = 
REMARK  12 active torsions:
REMARK  status: ('A' for Active; 'I' for Inactive)
REMARK    1  A    between atoms: C_1  and  C_2
REMARK    2  A    between atoms: C_2  and  C_3
REMARK    3  A    between atoms: C_3  and  C_4
REMARK    4  A    between atoms: C_4  and  C_5
REMARK    5  A    between atoms: C_5  and  C_6
REMARK    6  A    between atoms: C_6  and  C_7
REMARK    7  A    between atoms: C_7  and  C_8
REMARK    8  A    between atoms: C_8  and  C_9
REMARK    9  A    between atoms: C_9  and  C_10
REMARK   10  A    between atoms: C_11  and  C_12
REMARK   11  A    between atoms: N_14  and  C_15
REMARK   12  A    between atoms: C_15  and  C_16
REMARK                            x       y       z     vdW  Elec       q    Type
REMARK                         _______ _______ _______ _____ _____    ______ ____
ROOT
ATOM      1  C   UNL     1       8.460   8.766  18.412  0.00  0.00    +0.000 C 
ATOM      2  C   UNL     1       7.700   8.231  17.443  0.00  0.00    +0.000 C 
ENDROOT
BRANCH   2   3
ATOM      3  C   UNL     1       7.338   6.797  17.531  0.00  0.00    +0.000 C 
ATOM      4  O   UNL     1       7.804   6.076  18.403  0.00  0.00    +0.000 OA
ATOM      5  N   UNL     1       6.447   6.404  16.577  0.00  0.00    +0.000 N 
ATOM      6  H   UNL     1       6.106   7.064  15.893  0.00  0.00    +0.000 HD
BRANCH   5   7
ATOM      7  C   UNL     1       5.978   5.032  16.499  0.00  0.00    +0.000 C 
BRANCH   7   8
ATOM      8  C   UNL     1       4.598   4.922  17.090  0.00  0.00    +0.000 A 
ATOM      9  C   UNL     1       3.886   3.717  17.005  0.00  0.00    +0.000 A 
ATOM     10  C   UNL     1       2.558   3.652  17.426  0.00  0.00    +0.000 A 
ATOM     11  C   UNL     1       1.934   4.784  17.949  0.00  0.00    +0.000 A 
ATOM     12  C   UNL     1       2.646   5.975  18.076  0.00  0.00    +0.000 A 
ATOM     13  C   UNL     1       3.973   6.045  17.650  0.00  0.00    +0.000 A 
ENDBRANCH   7   8
ENDBRANCH   5   7
ENDBRANCH   2   3
BRANCH   1  14
ATOM     14  C   UNL     1       8.917  10.194  18.417  0.00  0.00    +0.000 C 
BRANCH  14  15
ATOM     15  C   UNL     1       9.438  10.618  19.794  0.00  0.00    +0.000 C 
BRANCH  15  16
ATOM     16  C   UNL     1      10.372  11.824  19.685  0.00  0.00    +0.000 C 
BRANCH  16  17
ATOM     17  C   UNL     1      11.665  11.456  18.958  0.00  0.00    +0.000 C 
BRANCH  17  18
ATOM     18  C   UNL     1      11.893  12.359  17.750  0.00  0.00    +0.000 C 
BRANCH  18  19
ATOM     19  C   UNL     1      10.617  13.113  17.379  0.00  0.00    +0.000 C 
BRANCH  19  20
ATOM     20  C   UNL     1      10.885  14.610  17.256  0.00  0.00    +0.000 C 
BRANCH  20  22
ATOM     21  C   UNL     1       8.555  14.738  18.181  0.00  0.00    +0.000 C 
ATOM     22  C   UNL     1       9.912  15.417  18.111  0.00  0.00    +0.000 C 
ENDBRANCH  20  22
ENDBRANCH  19  20
ENDBRANCH  18  19
ENDBRANCH  17  18
ENDBRANCH  16  17
ENDBRANCH  15  16
ENDBRANCH  14  15
ENDBRANCH   1  14
TORSDOF 11
ENDMDL
MODEL 5
REMARK VINA RESULT:      -6.0      6.285      9.571
REMARK  Name = 
REMARK  12 active torsions:
REMARK  status: ('A' for Active; 'I' for Inactive)
REMARK    1  A    between atoms: C_1  and  C_2
REMARK    2  A    between atoms: C_2  and  C_3
REMARK    3  A    between atoms: C_3  and  C_4
REMARK    4  A    between atoms: C_4  and  C_5
REMARK    5  A    between atoms: C_5  and  C_6
REMARK    6  A    between atoms: C_6  and  C_7
REMARK    7  A    between atoms: C_7  and  C_8
REMARK    8  A    between atoms: C_8  and  C_9
REMARK    9  A    between atoms: C_9  and  C_10
REMARK   10  A    between atoms: C_11  and  C_12
REMARK   11  A    between atoms: N_14  and  C_15
REMARK   12  A    between atoms: C_15  and  C_16
REMARK                            x       y       z     vdW  Elec       q    Type
REMARK                         _______ _______ _______ _____ _____    ______ ____
ROOT
ATOM      1  C   UNL     1       8.406   8.679  18.039  0.00  0.00    +0.000 C 
ATOM      2  C   UNL     1       7.272   8.255  17.458  0.00  0.00    +0.000 C 
ENDROOT
BRANCH   2   3
ATOM      3  C   UNL     1       7.091   6.803  17.222  0.00  0.00    +0.000 C 
ATOM      4  O   UNL     1       7.607   6.246  16.261  0.00  0.00    +0.000 OA
ATOM      5  N   UNL     1       6.332   6.191  18.174  0.00  0.00    +0.000 N 
ATOM      6  H   UNL     1       5.945   6.722  18.940  0.00  0.00    +0.000 HD
BRANCH   5   7
ATOM      7  C   UNL     1       6.038   4.770  18.109  0.00  0.00    +0.000 C 
BRANCH   7   8
ATOM      8  C   UNL     1       4.550   4.551  18.045  0.00  0.00    +0.000 A 
ATOM      9  C   UNL     1       4.033   3.332  17.586  0.00  0.00    +0.000 A 
ATOM     10  C   UNL     1       2.660   3.175  17.395  0.00  0.00    +0.000 A 
ATOM     11  C   UNL     1       1.791   4.229  17.673  0.00  0.00    +0.000 A 
ATOM     12  C   UNL     1       2.291   5.432  18.170  0.00  0.00    +0.000 A 
ATOM     13  C   UNL     1       3.665   5.593  18.357  0.00  0.00    +0.000 A 
ENDBRANCH   7   8
ENDBRANCH   5   7
ENDBRANCH   2   3
BRANCH   1  14
ATOM     14  C   UNL     1       8.718  10.122  18.301  0.00  0.00    +0.000 C 
BRANCH  14  15
ATOM     15  C   UNL     1       9.433  10.313  19.641  0.00  0.00    +0.000 C 
BRANCH  15  16
ATOM     16  C   UNL     1      10.551  11.351  19.528  0.00  0.00    +0.000 C 
BRANCH  16  17
ATOM     17  C   UNL     1      11.054  11.465  18.090  0.00  0.00    +0.000 C 
BRANCH  17  18
ATOM     18  C   UNL     1      11.186  12.926  17.667  0.00  0.00    +0.000 C 
BRANCH  18  19
ATOM     19  C   UNL     1      11.644  13.796  18.836  0.00  0.00    +0.000 C 
BRANCH  19  20
ATOM     20  C   UNL     1      10.590  14.844  19.180  0.00  0.00    +0.000 C 
BRANCH  20  22
ATOM     21  C   UNL     1       8.125  14.373  19.117  0.00  0.00    +0.000 C 
ATOM     22  C   UNL     1       9.357  14.701  18.291  0.00  0.00    +0.000 C 
ENDBRANCH  20  22
ENDBRANCH  19  20
ENDBRANCH  18  19
ENDBRANCH  17  18
ENDBRANCH  16  17
ENDBRANCH  15  16
ENDBRANCH  14  15
ENDBRANCH   1  14
TORSDOF 11
ENDMDL
MODEL 6
REMARK VINA RESULT:      -5.9      4.306      7.626
REMARK  Name = 
REMARK  12 active torsions:
REMARK  status: ('A' for Active; 'I' for Inactive)
REMARK    1  A    between atoms: C_1  and  C_2
REMARK    2  A    between atoms: C_2  and  C_3
REMARK    3  A    between atoms: C_3  and  C_4
REMARK    4  A    between atoms: C_4  and  C_5
REMARK    5  A    between atoms: C_5  and  C_6
REMARK    6  A    between atoms: C_6  and  C_7
REMARK    7  A    between atoms: C_7  and  C_8
REMARK    8  A    between atoms: C_8  and  C_9
REMARK    9  A    between atoms: C_9  and  C_10
REMARK   10  A    between atoms: C_11  and  C_12
REMARK   11  A    between atoms: N_14  and  C_15
REMARK   12  A    between atoms: C_15  and  C_16
REMARK                            x       y       z     vdW  Elec       q    Type
REMARK                         _______ _______ _______ _____ _____    ______ ____
ROOT
ATOM      1  C   UNL     1       3.687   6.682  17.503  0.00  0.00    +0.000 C 
ATOM      2  C   UNL     1       4.810   7.384  17.721  0.00  0.00    +0.000 C 
ENDROOT
BRANCH   2   3
ATOM      3  C   UNL     1       6.066   6.938  17.075  0.00  0.00    +0.000 C 
ATOM      4  O   UNL     1       7.058   7.655  17.049  0.00  0.00    +0.000 OA
ATOM      5  N   UNL     1       5.991   5.680  16.554  0.00  0.00    +0.000 N 
ATOM      6  H   UNL     1       5.134   5.150  16.621  0.00  0.00    +0.000 HD
BRANCH   5   7
ATOM      7  C   UNL     1       7.121   5.073  15.875  0.00  0.00    +0.000 C 
BRANCH   7   8
ATOM      8  C   UNL     1       6.725   4.651  14.486  0.00  0.00    +0.000 A 
ATOM      9  C   UNL     1       5.520   3.966  14.271  0.00  0.00    +0.000 A 
ATOM     10  C   UNL     1       5.216   3.452  13.010  0.00  0.00    +0.000 A 
ATOM     11  C   UNL     1       6.105   3.629  11.950  0.00  0.00    +0.000 A 
ATOM     12  C   UNL     1       7.286   4.345  12.144  0.00  0.00    +0.000 A 
ATOM     13  C   UNL     1       7.595   4.855  13.405  0.00  0.00    +0.000 A 
ENDBRANCH   7   8
ENDBRANCH   5   7
ENDBRANCH   2   3
BRANCH   1  14
ATOM     14  C   UNL     1       2.363   7.015  18.124  0.00  0.00    +0.000 C 
BRANCH  14  15
ATOM     15  C   UNL     1       2.358   6.737  19.630  0.00  0.00    +0.000 C 
BRANCH  15  16
ATOM     16  C   UNL     1       3.008   5.390  19.947  0.00  0.00    +0.000 C 
BRANCH  16  17
ATOM     17  C   UNL     1       2.315   4.706  21.125  0.00  0.00    +0.000 C 
BRANCH  17  18
ATOM     18  C   UNL     1       1.948   3.264  20.786  0.00  0.00    +0.000 C 
BRANCH  18  19
ATOM     19  C   UNL     1       0.677   3.205  19.941  0.00  0.00    +0.000 C 
BRANCH  19  20
ATOM     20  C   UNL     1       0.912   2.413  18.659  0.00  0.00    +0.000 C 
BRANCH  20  22
ATOM     21  C   UNL     1       2.831   3.062  17.176  0.00  0.00    +0.000 C 
ATOM     22  C   UNL     1       2.404   2.241  18.381  0.00  0.00    +0.000 C 
ENDBRANCH  20  22
ENDBRANCH  19  20
ENDBRANCH  18  19
ENDBRANCH  17  18
ENDBRANCH  16  17
ENDBRANCH  15  16
ENDBRANCH  14  15
ENDBRANCH   1  14
TORSDOF 11
ENDMDL
MODEL 7
REMARK VINA RESULT:      -5.9      2.360      3.118
REMARK  Name = 
REMARK  12 active torsions:
REMARK  status: ('A' for Active; 'I' for Inactive)
REMARK    1  A    between atoms: C_1  and  C_2
REMARK    2  A    between atoms: C_2  and  C_3
REMARK    3  A    between atoms: C_3  and  C_4
REMARK    4  A    between atoms: C_4  and  C_5
REMARK    5  A    between atoms: C_5  and  C_6
REMARK    6  A    between atoms: C_6  and  C_7
REMARK    7  A    between atoms: C_7  and  C_8
REMARK    8  A    between atoms: C_8  and  C_9
REMARK    9  A    between atoms: C_9  and  C_10
REMARK   10  A    between atoms: C_11  and  C_12
REMARK   11  A    between atoms: N_14  and  C_15
REMARK   12  A    between atoms: C_15  and  C_16
REMARK                            x       y       z     vdW  Elec       q    Type
REMARK                         _______ _______ _______ _____ _____    ______ ____
ROOT
ATOM      1  C   UNL     1       4.217   6.712  17.558  0.00  0.00    +0.000 C 
ATOM      2  C   UNL     1       3.354   7.076  18.521  0.00  0.00    +0.000 C 
ENDROOT
BRANCH   2   3
ATOM      3  C   UNL     1       2.425   8.200  18.258  0.00  0.00    +0.000 C 
ATOM      4  O   UNL     1       2.334   8.702  17.145  0.00  0.00    +0.000 OA
ATOM      5  N   UNL     1       1.705   8.574  19.353  0.00  0.00    +0.000 N 
ATOM      6  H   UNL     1       1.837   8.104  20.237  0.00  0.00    +0.000 HD
BRANCH   5   7
ATOM      7  C   UNL     1       0.747   9.663  19.292  0.00  0.00    +0.000 C 
BRANCH   7   8
ATOM      8  C   UNL     1       0.244   9.988  20.674  0.00  0.00    +0.000 A 
ATOM      9  C   UNL     1       0.054   8.967  21.616  0.00  0.00    +0.000 A 
ATOM     10  C   UNL     1      -0.541   9.245  22.847  0.00  0.00    +0.000 A 
ATOM     11  C   UNL     1      -0.939  10.546  23.152  0.00  0.00    +0.000 A 
ATOM     12  C   UNL     1      -0.716  11.575  22.239  0.00  0.00    +0.000 A 
ATOM     13  C   UNL     1      -0.127  11.299  21.005  0.00  0.00    +0.000 A 
ENDBRANCH   7   8
ENDBRANCH   5   7
ENDBRANCH   2   3
BRANCH   1  14
ATOM     14  C   UNL     1       5.225   5.614  17.716  0.00  0.00    +0.000 C 
BRANCH  14  15
ATOM     15  C   UNL     1       4.560   4.278  18.062  0.00  0.00    +0.000 C 
BRANCH  15  16
ATOM     16  C   UNL     1       3.777   3.726  16.870  0.00  0.00    +0.000 C 
BRANCH  16  17
ATOM     17  C   UNL     1       2.561   2.924  17.333  0.00  0.00    +0.000 C 
BRANCH  17  18
ATOM     18  C   UNL     1       2.929   1.972  18.468  0.00  0.00    +0.000 C 
BRANCH  18  19
ATOM     19  C   UNL     1       1.944   2.097  19.629  0.00  0.00    +0.000 C 
BRANCH  19  20
ATOM     20  C   UNL     1       0.943   3.220  19.376  0.00  0.00    +0.000 C 
BRANCH  20  22
ATOM     21  C   UNL     1       2.353   4.518  20.997  0.00  0.00    +0.000 C 
ATOM     22  C   UNL     1       0.939   4.226  20.524  0.00  0.00    +0.000 C 
ENDBRANCH  20  22
ENDBRANCH  19  20
ENDBRANCH  18  19
ENDBRANCH  17  18
ENDBRANCH  16  17
ENDBRANCH  15  16
ENDBRANCH  14  15
ENDBRANCH   1  14
TORSDOF 11
ENDMDL
MODEL 8
REMARK VINA RESULT:      -5.9      3.715      6.794
REMARK  Name = 
REMARK  12 active torsions:
REMARK  status: ('A' for Active; 'I' for Inactive)
REMARK    1  A    between atoms: C_1  and  C_2
REMARK    2  A    between atoms: C_2  and  C_3
REMARK    3  A    between atoms: C_3  and  C_4
REMARK    4  A    between atoms: C_4  and  C_5
REMARK    5  A    between atoms: C_5  and  C_6
REMARK    6  A    between atoms: C_6  and  C_7
REMARK    7  A    between atoms: C_7  and  C_8
REMARK    8  A    between atoms: C_8  and  C_9
REMARK    9  A    between atoms: C_9  and  C_10
REMARK   10  A    between atoms: C_11  and  C_12
REMARK   11  A    between atoms: N_14  and  C_15
REMARK   12  A    between atoms: C_15  and  C_16
REMARK                            x       y       z     vdW  Elec       q    Type
REMARK                         _______ _______ _______ _____ _____    ______ ____
ROOT
ATOM      1  C   UNL     1       2.183   6.101  19.590  0.00  0.00    +0.000 C 
ATOM      2  C   UNL     1       2.050   7.388  19.232  0.00  0.00    +0.000 C 
ENDROOT
BRANCH   2   3
ATOM      3  C   UNL     1       2.804   7.883  18.056  0.00  0.00    +0.000 C 
ATOM      4  O   UNL     1       2.462   8.897  17.463  0.00  0.00    +0.000 OA
ATOM      5  N   UNL     1       3.886   7.116  17.745  0.00  0.00    +0.000 N 
ATOM      6  H   UNL     1       4.103   6.293  18.289  0.00  0.00    +0.000 HD
BRANCH   5   7
ATOM      7  C   UNL     1       4.744   7.438  16.619  0.00  0.00    +0.000 C 
BRANCH   7   8
ATOM      8  C   UNL     1       5.520   6.220  16.193  0.00  0.00    +0.000 A 
ATOM      9  C   UNL     1       6.590   5.755  16.970  0.00  0.00    +0.000 A 
ATOM     10  C   UNL     1       7.396   4.713  16.510  0.00  0.00    +0.000 A 
ATOM     11  C   UNL     1       7.133   4.120  15.276  0.00  0.00    +0.000 A 
ATOM     12  C   UNL     1       6.046   4.548  14.515  0.00  0.00    +0.000 A 
ATOM     13  C   UNL     1       5.242   5.593  14.970  0.00  0.00    +0.000 A 
ENDBRANCH   7   8
ENDBRANCH   5   7
ENDBRANCH   2   3
BRANCH   1  14
ATOM     14  C   UNL     1       1.498   5.492  20.777  0.00  0.00    +0.000 C 
BRANCH  14  15
ATOM     15  C   UNL     1       1.085   4.042  20.511  0.00  0.00    +0.000 C 
BRANCH  15  16
ATOM     16  C   UNL     1       1.357   3.157  21.728  0.00  0.00    +0.000 C 
BRANCH  16  17
ATOM     17  C   UNL     1       2.669   2.389  21.570  0.00  0.00    +0.000 C 
BRANCH  17  18
ATOM     18  C   UNL     1       3.039   2.229  20.098  0.00  0.00    +0.000 C 
BRANCH  18  19
ATOM     19  C   UNL     1       4.474   2.684  19.841  0.00  0.00    +0.000 C 
BRANCH  19  20
ATOM     20  C   UNL     1       4.541   3.623  18.639  0.00  0.00    +0.000 C 
BRANCH  20  22
ATOM     21  C   UNL     1       2.631   3.721  17.013  0.00  0.00    +0.000 C 
ATOM     22  C   UNL     1       3.902   2.987  17.407  0.00  0.00    +0.000 C 
ENDBRANCH  20  22
ENDBRANCH  19  20
ENDBRANCH  18  19
ENDBRANCH  17  18
ENDBRANCH  16  17
ENDBRANCH  15  16
ENDBRANCH  14  15
ENDBRANCH   1  14
TORSDOF 11
ENDMDL
MODEL 9
REMARK VINA RESULT:      -5.9      6.210      9.548
REMARK  Name = 
REMARK  12 active torsions:
REMARK  status: ('A' for Active; 'I' for Inactive)
REMARK    1  A    between atoms: C_1  and  C_2
REMARK    2  A    between atoms: C_2  and  C_3
REMARK    3  A    between atoms: C_3  and  C_4
REMARK    4  A    between atoms: C_4  and  C_5
REMARK    5  A    between atoms: C_5  and  C_6
REMARK    6  A    between atoms: C_6  and  C_7
REMARK    7  A    between atoms: C_7  and  C_8
REMARK    8  A    between atoms: C_8  and  C_9
REMARK    9  A    between atoms: C_9  and  C_10
REMARK   10  A    between atoms: C_11  and  C_12
REMARK   11  A    between atoms: N_14  and  C_15
REMARK   12  A    between atoms: C_15  and  C_16
REMARK                            x       y       z     vdW  Elec       q    Type
REMARK                         _______ _______ _______ _____ _____    ______ ____
ROOT
ATOM      1  C   UNL     1       7.695   7.827  17.587  0.00  0.00    +0.000 C 
ATOM      2  C   UNL     1       7.902   6.907  18.543  0.00  0.00    +0.000 C 
ENDROOT
BRANCH   2   3
ATOM      3  C   UNL     1       7.344   5.548  18.356  0.00  0.00    +0.000 C 
ATOM      4  O   UNL     1       7.758   4.806  17.475  0.00  0.00    +0.000 OA
ATOM      5  N   UNL     1       6.371   5.233  19.258  0.00  0.00    +0.000 N 
ATOM      6  H   UNL     1       6.088   5.902  19.959  0.00  0.00    +0.000 HD
BRANCH   5   7
ATOM      7  C   UNL     1       5.701   3.946  19.229  0.00  0.00    +0.000 C 
BRANCH   7   8
ATOM      8  C   UNL     1       4.279   4.113  18.762  0.00  0.00    +0.000 A 
ATOM      9  C   UNL     1       3.650   3.093  18.033  0.00  0.00    +0.000 A 
ATOM     10  C   UNL     1       2.385   3.299  17.480  0.00  0.00    +0.000 A 
ATOM     11  C   UNL     1       1.734   4.518  17.662  0.00  0.00    +0.000 A 
ATOM     12  C   UNL     1       2.333   5.523  18.419  0.00  0.00    +0.000 A 
ATOM     13  C   UNL     1       3.600   5.322  18.969  0.00  0.00    +0.000 A 
ENDBRANCH   7   8
ENDBRANCH   5   7
ENDBRANCH   2   3
BRANCH   1  14
ATOM     14  C   UNL     1       8.182   9.243  17.675  0.00  0.00    +0.000 C 
BRANCH  14  15
ATOM     15  C   UNL     1       9.021   9.477  18.935  0.00  0.00    +0.000 C 
BRANCH  15  16
ATOM     16  C   UNL     1       9.304  10.965  19.142  0.00  0.00    +0.000 C 
BRANCH  16  17
ATOM     17  C   UNL     1      10.767  11.294  18.846  0.00  0.00    +0.000 C 
BRANCH  17  18
ATOM     18  C   UNL     1      11.459  11.880  20.073  0.00  0.00    +0.000 C 
BRANCH  18  19
ATOM     19  C   UNL     1      10.705  13.101  20.597  0.00  0.00    +0.000 C 
BRANCH  19  20
ATOM     20  C   UNL     1      11.330  14.392  20.078  0.00  0.00    +0.000 C 
BRANCH  20  22
ATOM     21  C   UNL     1       8.913  14.636  19.445  0.00  0.00    +0.000 C 
ATOM     22  C   UNL     1      10.273  15.312  19.471  0.00  0.00    +0.000 C 
ENDBRANCH  20  22
ENDBRANCH  19  20
ENDBRANCH  18  19
ENDBRANCH  17  18
ENDBRANCH  16  17
ENDBRANCH  15  16
ENDBRANCH  14  15
ENDBRANCH   1  14
TORSDOF 11
ENDMDL
