MODEL 1
REMARK VINA RESULT:      -8.8      0.000      0.000
REMARK  Name = 
REMARK  10 active torsions:
REMARK  status: ('A' for Active; 'I' for Inactive)
REMARK    1  A    between atoms: C_1  and  C_2
REMARK    2  A    between atoms: C_2  and  C_3
REMARK    3  A    between atoms: C_2  and  C_4
REMARK    4  A    between atoms: C_4  and  C_5
REMARK    5  A    between atoms: C_7  and  C_8
REMARK    6  A    between atoms: C_8  and  N_9
REMARK    7  A    between atoms: N_9  and  S_10
REMARK    8  A    between atoms: S_10  and  C_13
REMARK    9  A    between atoms: C_13  and  C_14
REMARK   10  A    between atoms: N_25  and  C_26
REMARK                            x       y       z     vdW  Elec       q    Type
REMARK                         _______ _______ _______ _____ _____    ______ ____
ROOT
ATOM      1  C   UNL     1       3.216   2.683  17.944  0.00  0.00    +0.000 C 
ENDROOT
BRANCH   1   4
ATOM      2  C   UNL     1       6.269   4.471  16.914  0.00  0.00    +0.000 A 
ATOM      3  C   UNL     1       5.490   3.949  17.928  0.00  0.00    +0.000 A 
ATOM      4  C   UNL     1       4.356   3.404  17.291  0.00  0.00    +0.000 A 
ATOM      5  N   UNL     1       4.403   3.588  15.964  0.00  0.00    +0.000 NA
ATOM      6  N   UNL     1       5.650   4.088  15.727  0.00  0.00    +0.000 N 
BRANCH   6   7
ATOM      7  C   UNL     1       6.143   4.184  14.398  0.00  0.00    +0.000 A 
ATOM      8  C   UNL     1       7.229   5.025  14.123  0.00  0.00    +0.000 A 
ATOM      9  C   UNL     1       7.765   5.064  12.833  0.00  0.00    +0.000 A 
ATOM     10  C   UNL     1       7.205   4.294  11.813  0.00  0.00    +0.000 A 
ATOM     11  C   UNL     1       6.100   3.488  12.074  0.00  0.00    +0.000 A 
ATOM     12  C   UNL     1       5.566   3.436  13.362  0.00  0.00    +0.000 A 
ENDBRANCH   6   7
BRANCH   2  13
ATOM     13  C   UNL     1       7.449   5.394  17.026  0.00  0.00    +0.000 C 
BRANCH  13  15
ATOM     14  C   UNL     1       8.005   6.065  19.415  0.00  0.00    +0.000 C 
ATOM     15  C   UNL     1       7.266   6.456  18.132  0.00  0.00    +0.000 C 
ATOM     16  C   UNL     1       7.725   7.831  17.651  0.00  0.00    +0.000 C 
ENDBRANCH  13  15
ENDBRANCH   2  13
ENDBRANCH   1   4
BRANCH   1  17
ATOM     17  N   UNL     1       3.154   3.000  19.385  0.00  0.00    +0.000 NA
ATOM     18  H   UNL     1       4.055   3.360  19.719  0.00  0.00    +0.000 HD
BRANCH  17  19
ATOM     19  S   UNL     1       1.909   4.057  19.841  0.00  0.00    +0.000 S 
ATOM     20  O   UNL     1       1.214   4.394  18.619  0.00  0.00    +0.000 OA
ATOM     21  O   UNL     1       1.228   3.411  20.948  0.00  0.00    +0.000 OA
BRANCH  19  22
ATOM     22  C   UNL     1       2.835   5.492  20.425  0.00  0.00    +0.000 C 
BRANCH  22  23
ATOM     23  C   UNL     1       2.546   6.699  19.559  0.00  0.00    +0.000 A 
ATOM     24  C   UNL     1       3.160   6.759  18.294  0.00  0.00    +0.000 A 
ATOM     25  C   UNL     1       2.984   7.861  17.466  0.00  0.00    +0.000 A 
ATOM     26  C   UNL     1       2.182   8.919  17.881  0.00  0.00    +0.000 A 
ATOM     27  C   UNL     1       1.544   8.893  19.128  0.00  0.00    +0.000 A 
ATOM     28  C   UNL     1       0.739   9.977  19.518  0.00  0.00    +0.000 A 
ATOM     29  C   UNL     1       0.093   9.984  20.751  0.00  0.00    +0.000 A 
ATOM     30  C   UNL     1       0.247   8.906  21.611  0.00  0.00    +0.000 A 
ATOM     31  C   UNL     1       1.045   7.821  21.236  0.00  0.00    +0.000 A 
ATOM     32  C   UNL     1       1.716   7.779  19.990  0.00  0.00    +0.000 A 
ENDBRANCH  22  23
ENDBRANCH  19  22
ENDBRANCH  17  19
ENDBRANCH   1  17
TORSDOF 8
ENDMDL
MODEL 2
REMARK VINA RESULT:      -8.8      5.102      7.624
REMARK  Name = 
REMARK  10 active torsions:
REMARK  status: ('A' for Active; 'I' for Inactive)
REMARK    1  A    between atoms: C_1  and  C_2
REMARK    2  A    between atoms: C_2  and  C_3
REMARK    3  A    between atoms: C_2  and  C_4
REMARK    4  A    between atoms: C_4  and  C_5
REMARK    5  A    between atoms: C_7  and  C_8
REMARK    6  A    between atoms: C_8  and  N_9
REMARK    7  A    between atoms: N_9  and  S_10
REMARK    8  A    between atoms: S_10  and  C_13
REMARK    9  A    between atoms: C_13  and  C_14
REMARK   10  A    between atoms: N_25  and  C_26
REMARK                            x       y       z     vdW  Elec       q    Type
REMARK                         _______ _______ _______ _____ _____    ______ ____
ROOT
ATOM      1  C   UNL     1       7.849   8.582  17.485  0.00  0.00    +0.000 C 
ENDROOT
BRANCH   1   4
ATOM      2  C   UNL     1       9.575  10.994  19.671  0.00  0.00    +0.000 A 
ATOM      3  C   UNL     1       9.096   9.715  19.469  0.00  0.00    +0.000 A 
ATOM      4  C   UNL     1       8.491   9.735  18.195  0.00  0.00    +0.000 A 
ATOM      5  N   UNL     1       8.564  10.951  17.636  0.00  0.00    +0.000 NA
ATOM      6  N   UNL     1       9.373  11.667  18.469  0.00  0.00    +0.000 N 
BRANCH   6   7
ATOM      7  C   UNL     1       9.868  12.938  18.070  0.00  0.00    +0.000 A 
ATOM      8  C   UNL     1      11.131  13.031  17.471  0.00  0.00    +0.000 A 
ATOM      9  C   UNL     1      11.589  14.267  17.009  0.00  0.00    +0.000 A 
ATOM     10  C   UNL     1      10.808  15.412  17.168  0.00  0.00    +0.000 A 
ATOM     11  C   UNL     1       9.570  15.330  17.800  0.00  0.00    +0.000 A 
ATOM     12  C   UNL     1       9.103  14.097  18.255  0.00  0.00    +0.000 A 
ENDBRANCH   6   7
BRANCH   2  13
ATOM     13  C   UNL     1      10.068  11.613  20.948  0.00  0.00    +0.000 C 
BRANCH  13  15
ATOM     14  C   UNL     1       8.421  11.941  22.857  0.00  0.00    +0.000 C 
ATOM     15  C   UNL     1       9.025  12.553  21.591  0.00  0.00    +0.000 C 
ATOM     16  C   UNL     1       9.637  13.919  21.901  0.00  0.00    +0.000 C 
ENDBRANCH  13  15
ENDBRANCH   2  13
ENDBRANCH   1   4
BRANCH   1  17
ATOM     17  N   UNL     1       7.908   7.361  18.312  0.00  0.00    +0.000 NA
ATOM     18  H   UNL     1       7.560   7.544  19.260  0.00  0.00    +0.000 HD
BRANCH  17  19
ATOM     19  S   UNL     1       7.118   6.007  17.663  0.00  0.00    +0.000 S 
ATOM     20  O   UNL     1       7.528   5.942  16.278  0.00  0.00    +0.000 OA
ATOM     21  O   UNL     1       7.380   4.918  18.585  0.00  0.00    +0.000 OA
BRANCH  19  22
ATOM     22  C   UNL     1       5.386   6.507  17.757  0.00  0.00    +0.000 C 
BRANCH  22  23
ATOM     23  C   UNL     1       4.481   5.295  17.724  0.00  0.00    +0.000 A 
ATOM     24  C   UNL     1       4.714   4.332  16.724  0.00  0.00    +0.000 A 
ATOM     25  C   UNL     1       3.892   3.219  16.597  0.00  0.00    +0.000 A 
ATOM     26  C   UNL     1       2.826   3.042  17.474  0.00  0.00    +0.000 A 
ATOM     27  C   UNL     1       2.568   3.971  18.489  0.00  0.00    +0.000 A 
ATOM     28  C   UNL     1       1.484   3.763  19.361  0.00  0.00    +0.000 A 
ATOM     29  C   UNL     1       1.197   4.668  20.378  0.00  0.00    +0.000 A 
ATOM     30  C   UNL     1       1.990   5.794  20.536  0.00  0.00    +0.000 A 
ATOM     31  C   UNL     1       3.071   6.016  19.677  0.00  0.00    +0.000 A 
ATOM     32  C   UNL     1       3.393   5.117  18.631  0.00  0.00    +0.000 A 
ENDBRANCH  22  23
ENDBRANCH  19  22
ENDBRANCH  17  19
ENDBRANCH   1  17
TORSDOF 8
ENDMDL
MODEL 3
REMARK VINA RESULT:      -8.7      0.553      1.030
REMARK  Name = 
REMARK  10 active torsions:
REMARK  status: ('A' for Active; 'I' for Inactive)
REMARK    1  A    between atoms: C_1  and  C_2
REMARK    2  A    between atoms: C_2  and  C_3
REMARK    3  A    between atoms: C_2  and  C_4
REMARK    4  A    between atoms: C_4  and  C_5
REMARK    5  A    between atoms: C_7  and  C_8
REMARK    6  A    between atoms: C_8  and  N_9
REMARK    7  A    between atoms: N_9  and  S_10
REMARK    8  A    between atoms: S_10  and  C_13
REMARK    9  A    between atoms: C_13  and  C_14
REMARK   10  A    between atoms: N_25  and  C_26
REMARK                            x       y       z     vdW  Elec       q    Type
REMARK                         _______ _______ _______ _____ _____    ______ ____
ROOT
ATOM      1  C   UNL     1       2.984   2.936  17.836  0.00  0.00    +0.000 C 
ENDROOT
BRANCH   1   4
ATOM      2  C   UNL     1       6.225   4.469  16.987  0.00  0.00    +0.000 A 
ATOM      3  C   UNL     1       5.355   4.004  17.952  0.00  0.00    +0.000 A 
ATOM      4  C   UNL     1       4.212   3.565  17.252  0.00  0.00    +0.000 A 
ATOM      5  N   UNL     1       4.342   3.759  15.931  0.00  0.00    +0.000 NA
ATOM      6  N   UNL     1       5.637   4.153  15.765  0.00  0.00    +0.000 N 
BRANCH   6   7
ATOM      7  C   UNL     1       6.204   4.222  14.464  0.00  0.00    +0.000 A 
ATOM      8  C   UNL     1       5.661   3.448  13.431  0.00  0.00    +0.000 A 
ATOM      9  C   UNL     1       6.166   3.570  12.135  0.00  0.00    +0.000 A 
ATOM     10  C   UNL     1       7.228   4.436  11.870  0.00  0.00    +0.000 A 
ATOM     11  C   UNL     1       7.797   5.177  12.903  0.00  0.00    +0.000 A 
ATOM     12  C   UNL     1       7.290   5.067  14.198  0.00  0.00    +0.000 A 
ENDBRANCH   6   7
BRANCH   2  13
ATOM     13  C   UNL     1       7.471   5.287  17.172  0.00  0.00    +0.000 C 
BRANCH  13  15
ATOM     14  C   UNL     1       8.050   6.002  19.543  0.00  0.00    +0.000 C 
ATOM     15  C   UNL     1       7.309   6.375  18.256  0.00  0.00    +0.000 C 
ATOM     16  C   UNL     1       7.784   7.733  17.744  0.00  0.00    +0.000 C 
ENDBRANCH  13  15
ENDBRANCH   2  13
ENDBRANCH   1   4
BRANCH   1  17
ATOM     17  N   UNL     1       2.044   3.969  18.313  0.00  0.00    +0.000 NA
ATOM     18  H   UNL     1       1.098   3.797  17.953  0.00  0.00    +0.000 HD
BRANCH  17  19
ATOM     19  S   UNL     1       1.989   4.178  19.995  0.00  0.00    +0.000 S 
ATOM     20  O   UNL     1       0.642   4.610  20.292  0.00  0.00    +0.000 OA
ATOM     21  O   UNL     1       2.539   2.961  20.562  0.00  0.00    +0.000 OA
BRANCH  19  22
ATOM     22  C   UNL     1       3.131   5.555  20.235  0.00  0.00    +0.000 C 
BRANCH  22  23
ATOM     23  C   UNL     1       2.696   6.754  19.422  0.00  0.00    +0.000 A 
ATOM     24  C   UNL     1       3.217   6.887  18.121  0.00  0.00    +0.000 A 
ATOM     25  C   UNL     1       2.905   7.989  17.334  0.00  0.00    +0.000 A 
ATOM     26  C   UNL     1       2.057   8.975  17.828  0.00  0.00    +0.000 A 
ATOM     27  C   UNL     1       1.509   8.875  19.113  0.00  0.00    +0.000 A 
ATOM     28  C   UNL     1       0.654   9.887  19.583  0.00  0.00    +0.000 A 
ATOM     29  C   UNL     1       0.094   9.820  20.855  0.00  0.00    +0.000 A 
ATOM     30  C   UNL     1       0.384   8.740  21.675  0.00  0.00    +0.000 A 
ATOM     31  C   UNL     1       1.233   7.726  21.222  0.00  0.00    +0.000 A 
ATOM     32  C   UNL     1       1.820   7.760  19.933  0.00  0.00    +0.000 A 
ENDBRANCH  22  23
ENDBRANCH  19  22
ENDBRANCH  17  19
ENDBRANCH   1  17
TORSDOF 8
ENDMDL
MODEL 4
REMARK VINA RESULT:      -8.6      3.122      5.270
REMARK  Name = 
REMARK  10 active torsions:
REMARK  status: ('A' for Active; 'I' for Inactive)
REMARK    1  A    between atoms: C_1  and  C_2
REMARK    2  A    between atoms: C_2  and  C_3
REMARK    3  A    between atoms: C_2  and  C_4
REMARK    4  A    between atoms: C_4  and  C_5
REMARK    5  A    between atoms: C_7  and  C_8
REMARK    6  A    between atoms: C_8  and  N_9
REMARK    7  A    between atoms: N_9  and  S_10
REMARK    8  A    between atoms: S_10  and  C_13
REMARK    9  A    between atoms: C_13  and  C_14
REMARK   10  A    between atoms: N_25  and  C_26
REMARK                            x       y       z     vdW  Elec       q    Type
REMARK                         _______ _______ _______ _____ _____    ______ ____
ROOT
ATOM      1  C   UNL     1       1.879   7.833  19.852  0.00  0.00    +0.000 C 
ENDROOT
BRANCH   1   4
ATOM      2  C   UNL     1       3.429   4.531  19.327  0.00  0.00    +0.000 A 
ATOM      3  C   UNL     1       2.434   5.290  19.910  0.00  0.00    +0.000 A 
ATOM      4  C   UNL     1       2.692   6.619  19.515  0.00  0.00    +0.000 A 
ATOM      5  N   UNL     1       3.791   6.699  18.751  0.00  0.00    +0.000 NA
ATOM      6  N   UNL     1       4.135   5.403  18.503  0.00  0.00    +0.000 N 
BRANCH   6   7
ATOM      7  C   UNL     1       5.120   5.097  17.526  0.00  0.00    +0.000 A 
ATOM      8  C   UNL     1       6.447   4.887  17.923  0.00  0.00    +0.000 A 
ATOM      9  C   UNL     1       7.403   4.512  16.976  0.00  0.00    +0.000 A 
ATOM     10  C   UNL     1       7.049   4.375  15.633  0.00  0.00    +0.000 A 
ATOM     11  C   UNL     1       5.740   4.623  15.229  0.00  0.00    +0.000 A 
ATOM     12  C   UNL     1       4.778   4.988  16.171  0.00  0.00    +0.000 A 
ENDBRANCH   6   7
BRANCH   2  13
ATOM     13  C   UNL     1       3.802   3.105  19.616  0.00  0.00    +0.000 C 
BRANCH  13  15
ATOM     14  C   UNL     1       1.458   2.129  19.756  0.00  0.00    +0.000 C 
ATOM     15  C   UNL     1       2.797   2.098  19.015  0.00  0.00    +0.000 C 
ATOM     16  C   UNL     1       2.587   2.358  17.524  0.00  0.00    +0.000 C 
ENDBRANCH  13  15
ENDBRANCH   2  13
ENDBRANCH   1   4
BRANCH   1  17
ATOM     17  N   UNL     1       1.356   7.747  21.229  0.00  0.00    +0.000 NA
ATOM     18  H   UNL     1       2.077   7.400  21.873  0.00  0.00    +0.000 HD
BRANCH  17  19
ATOM     19  S   UNL     1       0.682   9.178  21.839  0.00  0.00    +0.000 S 
ATOM     20  O   UNL     1      -0.709   8.878  22.093  0.00  0.00    +0.000 OA
ATOM     21  O   UNL     1       1.571   9.612  22.901  0.00  0.00    +0.000 OA
BRANCH  19  22
ATOM     22  C   UNL     1       0.812  10.284  20.419  0.00  0.00    +0.000 C 
BRANCH  22  23
ATOM     23  C   UNL     1      -0.464  11.080  20.247  0.00  0.00    +0.000 A 
ATOM     24  C   UNL     1      -0.810  11.990  21.264  0.00  0.00    +0.000 A 
ATOM     25  C   UNL     1      -1.993  12.716  21.201  0.00  0.00    +0.000 A 
ATOM     26  C   UNL     1      -2.848  12.555  20.116  0.00  0.00    +0.000 A 
ATOM     27  C   UNL     1      -2.535  11.668  19.079  0.00  0.00    +0.000 A 
ATOM     28  C   UNL     1      -3.419  11.529  17.994  0.00  0.00    +0.000 A 
ATOM     29  C   UNL     1      -3.140  10.654  16.948  0.00  0.00    +0.000 A 
ATOM     30  C   UNL     1      -1.973   9.906  16.974  0.00  0.00    +0.000 A 
ATOM     31  C   UNL     1      -1.084  10.033  18.046  0.00  0.00    +0.000 A 
ATOM     32  C   UNL     1      -1.334  10.913  19.127  0.00  0.00    +0.000 A 
ENDBRANCH  22  23
ENDBRANCH  19  22
ENDBRANCH  17  19
ENDBRANCH   1  17
TORSDOF 8
ENDMDL
MODEL 5
REMARK VINA RESULT:      -8.6      4.697      7.357
REMARK  Name = 
REMARK  10 active torsions:
REMARK  status: ('A' for Active; 'I' for Inactive)
REMARK    1  A    between atoms: C_1  and  C_2
REMARK    2  A    between atoms: C_2  and  C_3
REMARK    3  A    between atoms: C_2  and  C_4
REMARK    4  A    between atoms: C_4  and  C_5
REMARK    5  A    between atoms: C_7  and  C_8
REMARK    6  A    between atoms: C_8  and  N_9
REMARK    7  A    between atoms: N_9  and  S_10
REMARK    8  A    between atoms: S_10  and  C_13
REMARK    9  A    between atoms: C_13  and  C_14
REMARK   10  A    between atoms: N_25  and  C_26
REMARK                            x       y       z     vdW  Elec       q    Type
REMARK                         _______ _______ _______ _____ _____    ______ ____
ROOT
ATOM      1  C   UNL     1       7.688   7.923  17.491  0.00  0.00    +0.000 C 
ENDROOT
BRANCH   1   4
ATOM      2  C   UNL     1       9.414  10.454  19.539  0.00  0.00    +0.000 A 
ATOM      3  C   UNL     1       8.958   9.159  19.399  0.00  0.00    +0.000 A 
ATOM      4  C   UNL     1       8.323   9.116  18.140  0.00  0.00    +0.000 A 
ATOM      5  N   UNL     1       8.356  10.311  17.533  0.00  0.00    +0.000 NA
ATOM      6  N   UNL     1       9.169  11.075  18.318  0.00  0.00    +0.000 N 
BRANCH   6   7
ATOM      7  C   UNL     1       9.627  12.339  17.858  0.00  0.00    +0.000 A 
ATOM      8  C   UNL     1       8.829  13.475  18.046  0.00  0.00    +0.000 A 
ATOM      9  C   UNL     1       9.308  14.729  17.664  0.00  0.00    +0.000 A 
ATOM     10  C   UNL     1      10.565  14.853  17.070  0.00  0.00    +0.000 A 
ATOM     11  C   UNL     1      11.344  13.722  16.844  0.00  0.00    +0.000 A 
ATOM     12  C   UNL     1      10.875  12.466  17.233  0.00  0.00    +0.000 A 
ENDBRANCH   6   7
BRANCH   2  13
ATOM     13  C   UNL     1       9.925  11.132  20.778  0.00  0.00    +0.000 C 
BRANCH  13  15
ATOM     14  C   UNL     1       8.284  11.629  22.656  0.00  0.00    +0.000 C 
ATOM     15  C   UNL     1       8.912  12.144  21.359  0.00  0.00    +0.000 C 
ATOM     16  C   UNL     1       9.569  13.504  21.589  0.00  0.00    +0.000 C 
ENDBRANCH  13  15
ENDBRANCH   2  13
ENDBRANCH   1   4
BRANCH   1  17
ATOM     17  N   UNL     1       7.726   6.755  18.393  0.00  0.00    +0.000 NA
ATOM     18  H   UNL     1       7.303   6.981  19.301  0.00  0.00    +0.000 HD
BRANCH  17  19
ATOM     19  S   UNL     1       7.034   5.337  17.773  0.00  0.00    +0.000 S 
ATOM     20  O   UNL     1       8.104   4.644  17.093  0.00  0.00    +0.000 OA
ATOM     21  O   UNL     1       6.318   4.730  18.880  0.00  0.00    +0.000 OA
BRANCH  19  22
ATOM     22  C   UNL     1       5.871   5.993  16.558  0.00  0.00    +0.000 C 
BRANCH  22  23
ATOM     23  C   UNL     1       4.487   6.114  17.158  0.00  0.00    +0.000 A 
ATOM     24  C   UNL     1       4.036   7.401  17.507  0.00  0.00    +0.000 A 
ATOM     25  C   UNL     1       2.799   7.585  18.112  0.00  0.00    +0.000 A 
ATOM     26  C   UNL     1       1.984   6.488  18.370  0.00  0.00    +0.000 A 
ATOM     27  C   UNL     1       2.391   5.192  18.028  0.00  0.00    +0.000 A 
ATOM     28  C   UNL     1       1.544   4.104  18.300  0.00  0.00    +0.000 A 
ATOM     29  C   UNL     1       1.918   2.804  17.975  0.00  0.00    +0.000 A 
ATOM     30  C   UNL     1       3.148   2.575  17.375  0.00  0.00    +0.000 A 
ATOM     31  C   UNL     1       4.002   3.647  17.099  0.00  0.00    +0.000 A 
ATOM     32  C   UNL     1       3.654   4.983  17.414  0.00  0.00    +0.000 A 
ENDBRANCH  22  23
ENDBRANCH  19  22
ENDBRANCH  17  19
ENDBRANCH   1  17
TORSDOF 8
ENDMDL
MODEL 6
REMARK VINA RESULT:      -8.4      0.839      3.369
REMARK  Name = 
REMARK  10 active torsions:
REMARK  status: ('A' for Active; 'I' for Inactive)
REMARK    1  A    between atoms: C_1  and  C_2
REMARK    2  A    between atoms: C_2  and  C_3
REMARK    3  A    between atoms: C_2  and  C_4
REMARK    4  A    between atoms: C_4  and  C_5
REMARK    5  A    between atoms: C_7  and  C_8
REMARK    6  A    between atoms: C_8  and  N_9
REMARK    7  A    between atoms: N_9  and  S_10
REMARK    8  A    between atoms: S_10  and  C_13
REMARK    9  A    between atoms: C_13  and  C_14
REMARK   10  A    between atoms: N_25  and  C_26
REMARK                            x       y       z     vdW  Elec       q    Type
REMARK                         _______ _______ _______ _____ _____    ______ ____
ROOT
ATOM      1  C   UNL     1       3.214   2.799  18.058  0.00  0.00    +0.000 C 
ENDROOT
BRANCH   1   4
ATOM      2  C   UNL     1       6.079   4.186  16.202  0.00  0.00    +0.000 A 
ATOM      3  C   UNL     1       4.997   3.329  16.237  0.00  0.00    +0.000 A 
ATOM      4  C   UNL     1       4.436   3.482  17.521  0.00  0.00    +0.000 A 
ATOM      5  N   UNL     1       5.129   4.362  18.258  0.00  0.00    +0.000 NA
ATOM      6  N   UNL     1       6.026   4.910  17.389  0.00  0.00    +0.000 N 
BRANCH   6   7
ATOM      7  C   UNL     1       6.777   6.057  17.762  0.00  0.00    +0.000 A 
ATOM      8  C   UNL     1       7.699   5.969  18.812  0.00  0.00    +0.000 A 
ATOM      9  C   UNL     1       8.493   7.073  19.132  0.00  0.00    +0.000 A 
ATOM     10  C   UNL     1       8.350   8.271  18.431  0.00  0.00    +0.000 A 
ATOM     11  C   UNL     1       7.405   8.375  17.413  0.00  0.00    +0.000 A 
ATOM     12  C   UNL     1       6.616   7.272  17.082  0.00  0.00    +0.000 A 
ENDBRANCH   6   7
BRANCH   2  13
ATOM     13  C   UNL     1       7.189   4.244  15.191  0.00  0.00    +0.000 C 
BRANCH  13  15
ATOM     14  C   UNL     1       7.860   5.396  13.026  0.00  0.00    +0.000 C 
ATOM     15  C   UNL     1       6.712   4.767  13.818  0.00  0.00    +0.000 C 
ATOM     16  C   UNL     1       6.054   3.652  13.006  0.00  0.00    +0.000 C 
ENDBRANCH  13  15
ENDBRANCH   2  13
ENDBRANCH   1   4
BRANCH   1  17
ATOM     17  N   UNL     1       3.040   3.091  19.494  0.00  0.00    +0.000 NA
ATOM     18  H   UNL     1       3.900   3.483  19.894  0.00  0.00    +0.000 HD
BRANCH  17  19
ATOM     19  S   UNL     1       1.723   4.089  19.876  0.00  0.00    +0.000 S 
ATOM     20  O   UNL     1       1.135   4.462  18.610  0.00  0.00    +0.000 OA
ATOM     21  O   UNL     1       0.964   3.371  20.884  0.00  0.00    +0.000 OA
BRANCH  19  22
ATOM     22  C   UNL     1       2.542   5.521  20.608  0.00  0.00    +0.000 C 
BRANCH  22  23
ATOM     23  C   UNL     1       2.357   6.742  19.734  0.00  0.00    +0.000 A 
ATOM     24  C   UNL     1       3.037   6.774  18.502  0.00  0.00    +0.000 A 
ATOM     25  C   UNL     1       2.958   7.884  17.670  0.00  0.00    +0.000 A 
ATOM     26  C   UNL     1       2.190   8.981  18.049  0.00  0.00    +0.000 A 
ATOM     27  C   UNL     1       1.490   8.984  19.262  0.00  0.00    +0.000 A 
ATOM     28  C   UNL     1       0.720  10.106  19.616  0.00  0.00    +0.000 A 
ATOM     29  C   UNL     1       0.014  10.144  20.814  0.00  0.00    +0.000 A 
ATOM     30  C   UNL     1       0.070   9.058  21.676  0.00  0.00    +0.000 A 
ATOM     31  C   UNL     1       0.831   7.935  21.338  0.00  0.00    +0.000 A 
ATOM     32  C   UNL     1       1.562   7.861  20.127  0.00  0.00    +0.000 A 
ENDBRANCH  22  23
ENDBRANCH  19  22
ENDBRANCH  17  19
ENDBRANCH   1  17
TORSDOF 8
ENDMDL
MODEL 7
REMARK VINA RESULT:      -8.4      0.824      3.456
REMARK  Name = 
REMARK  10 active torsions:
REMARK  status: ('A' for Active; 'I' for Inactive)
REMARK    1  A    between atoms: C_1  and  C_2
REMARK    2  A    between atoms: C_2  and  C_3
REMARK    3  A    between atoms: C_2  and  C_4
REMARK    4  A    between atoms: C_4  and  C_5
REMARK    5  A    between atoms: C_7  and  C_8
REMARK    6  A    between atoms: C_8  and  N_9
REMARK    7  A    between atoms: N_9  and  S_10
REMARK    8  A    between atoms: S_10  and  C_13
REMARK    9  A    between atoms: C_13  and  C_14
REMARK   10  A    between atoms: N_25  and  C_26
REMARK                            x       y       z     vdW  Elec       q    Type
REMARK                         _______ _______ _______ _____ _____    ______ ____
ROOT
ATOM      1  C   UNL     1       3.052   2.604  17.748  0.00  0.00    +0.000 C 
ENDROOT
BRANCH   1   4
ATOM      2  C   UNL     1       5.433   4.535  15.703  0.00  0.00    +0.000 A 
ATOM      3  C   UNL     1       4.335   3.700  15.766  0.00  0.00    +0.000 A 
ATOM      4  C   UNL     1       4.141   3.434  17.137  0.00  0.00    +0.000 A 
ATOM      5  N   UNL     1       5.067   4.043  17.891  0.00  0.00    +0.000 NA
ATOM      6  N   UNL     1       5.746   4.846  17.023  0.00  0.00    +0.000 N 
BRANCH   6   7
ATOM      7  C   UNL     1       6.654   5.825  17.512  0.00  0.00    +0.000 A 
ATOM      8  C   UNL     1       6.684   7.095  16.922  0.00  0.00    +0.000 A 
ATOM      9  C   UNL     1       7.520   8.083  17.449  0.00  0.00    +0.000 A 
ATOM     10  C   UNL     1       8.345   7.801  18.539  0.00  0.00    +0.000 A 
ATOM     11  C   UNL     1       8.346   6.527  19.102  0.00  0.00    +0.000 A 
ATOM     12  C   UNL     1       7.507   5.539  18.587  0.00  0.00    +0.000 A 
ENDBRANCH   6   7
BRANCH   2  13
ATOM     13  C   UNL     1       6.242   4.921  14.498  0.00  0.00    +0.000 C 
BRANCH  13  15
ATOM     14  C   UNL     1       4.865   3.817  12.666  0.00  0.00    +0.000 C 
ATOM     15  C   UNL     1       6.211   3.840  13.394  0.00  0.00    +0.000 C 
ATOM     16  C   UNL     1       7.351   4.044  12.398  0.00  0.00    +0.000 C 
ENDBRANCH  13  15
ENDBRANCH   2  13
ENDBRANCH   1   4
BRANCH   1  17
ATOM     17  N   UNL     1       2.917   2.898  19.188  0.00  0.00    +0.000 NA
ATOM     18  H   UNL     1       3.823   3.158  19.595  0.00  0.00    +0.000 HD
BRANCH  17  19
ATOM     19  S   UNL     1       1.754   4.069  19.582  0.00  0.00    +0.000 S 
ATOM     20  O   UNL     1       1.153   4.461  18.328  0.00  0.00    +0.000 OA
ATOM     21  O   UNL     1       0.965   3.495  20.656  0.00  0.00    +0.000 OA
BRANCH  19  22
ATOM     22  C   UNL     1       2.780   5.415  20.207  0.00  0.00    +0.000 C 
BRANCH  22  23
ATOM     23  C   UNL     1       2.510   6.690  19.438  0.00  0.00    +0.000 A 
ATOM     24  C   UNL     1       3.132   6.842  18.185  0.00  0.00    +0.000 A 
ATOM     25  C   UNL     1       2.974   8.007  17.444  0.00  0.00    +0.000 A 
ATOM     26  C   UNL     1       2.183   9.040  17.938  0.00  0.00    +0.000 A 
ATOM     27  C   UNL     1       1.537   8.923  19.175  0.00  0.00    +0.000 A 
ATOM     28  C   UNL     1       0.742   9.983  19.646  0.00  0.00    +0.000 A 
ATOM     29  C   UNL     1       0.089   9.901  20.872  0.00  0.00    +0.000 A 
ATOM     30  C   UNL     1       0.225   8.757  21.645  0.00  0.00    +0.000 A 
ATOM     31  C   UNL     1       1.013   7.695  21.191  0.00  0.00    +0.000 A 
ATOM     32  C   UNL     1       1.691   7.742  19.948  0.00  0.00    +0.000 A 
ENDBRANCH  22  23
ENDBRANCH  19  22
ENDBRANCH  17  19
ENDBRANCH   1  17
TORSDOF 8
ENDMDL
MODEL 8
REMARK VINA RESULT:      -8.3      0.806      1.017
REMARK  Name = 
REMARK  10 active torsions:
REMARK  status: ('A' for Active; 'I' for Inactive)
REMARK    1  A    between atoms: C_1  and  C_2
REMARK    2  A    between atoms: C_2  and  C_3
REMARK    3  A    between atoms: C_2  and  C_4
REMARK    4  A    between atoms: C_4  and  C_5
REMARK    5  A    between atoms: C_7  and  C_8
REMARK    6  A    between atoms: C_8  and  N_9
REMARK    7  A    between atoms: N_9  and  S_10
REMARK    8  A    between atoms: S_10  and  C_13
REMARK    9  A    between atoms: C_13  and  C_14
REMARK   10  A    between atoms: N_25  and  C_26
REMARK                            x       y       z     vdW  Elec       q    Type
REMARK                         _______ _______ _______ _____ _____    ______ ____
ROOT
ATOM      1  C   UNL     1       3.454   2.720  18.696  0.00  0.00    +0.000 C 
ENDROOT
BRANCH   1   4
ATOM      2  C   UNL     1       6.322   4.684  17.476  0.00  0.00    +0.000 A 
ATOM      3  C   UNL     1       5.619   4.156  18.540  0.00  0.00    +0.000 A 
ATOM      4  C   UNL     1       4.512   3.493  17.970  0.00  0.00    +0.000 A 
ATOM      5  N   UNL     1       4.504   3.613  16.635  0.00  0.00    +0.000 NA
ATOM      6  N   UNL     1       5.699   4.195  16.331  0.00  0.00    +0.000 N 
BRANCH   6   7
ATOM      7  C   UNL     1       6.142   4.262  14.983  0.00  0.00    +0.000 A 
ATOM      8  C   UNL     1       7.242   5.066  14.655  0.00  0.00    +0.000 A 
ATOM      9  C   UNL     1       7.727   5.076  13.345  0.00  0.00    +0.000 A 
ATOM     10  C   UNL     1       7.104   4.312  12.357  0.00  0.00    +0.000 A 
ATOM     11  C   UNL     1       5.986   3.544  12.671  0.00  0.00    +0.000 A 
ATOM     12  C   UNL     1       5.502   3.522  13.979  0.00  0.00    +0.000 A 
ENDBRANCH   6   7
BRANCH   2  13
ATOM     13  C   UNL     1       7.429   5.700  17.503  0.00  0.00    +0.000 C 
BRANCH  13  15
ATOM     14  C   UNL     1       8.028   8.167  17.660  0.00  0.00    +0.000 C 
ATOM     15  C   UNL     1       6.915   7.125  17.804  0.00  0.00    +0.000 C 
ATOM     16  C   UNL     1       5.734   7.482  16.902  0.00  0.00    +0.000 C 
ENDBRANCH  13  15
ENDBRANCH   2  13
ENDBRANCH   1   4
BRANCH   1  17
ATOM     17  N   UNL     1       2.997   3.455  19.892  0.00  0.00    +0.000 NA
ATOM     18  H   UNL     1       3.796   3.817  20.425  0.00  0.00    +0.000 HD
BRANCH  17  19
ATOM     19  S   UNL     1       1.890   4.705  19.596  0.00  0.00    +0.000 S 
ATOM     20  O   UNL     1       1.667   4.699  18.168  0.00  0.00    +0.000 OA
ATOM     21  O   UNL     1       0.803   4.500  20.535  0.00  0.00    +0.000 OA
BRANCH  19  22
ATOM     22  C   UNL     1       2.847   6.165  20.052  0.00  0.00    +0.000 C 
BRANCH  22  23
ATOM     23  C   UNL     1       2.214   7.415  19.480  0.00  0.00    +0.000 A 
ATOM     24  C   UNL     1       2.457   7.709  18.125  0.00  0.00    +0.000 A 
ATOM     25  C   UNL     1       1.953   8.867  17.544  0.00  0.00    +0.000 A 
ATOM     26  C   UNL     1       1.189   9.747  18.303  0.00  0.00    +0.000 A 
ATOM     27  C   UNL     1       0.916   9.485  19.651  0.00  0.00    +0.000 A 
ATOM     28  C   UNL     1       0.138  10.393  20.391  0.00  0.00    +0.000 A 
ATOM     29  C   UNL     1      -0.150  10.164  21.733  0.00  0.00    +0.000 A 
ATOM     30  C   UNL     1       0.338   9.024  22.353  0.00  0.00    +0.000 A 
ATOM     31  C   UNL     1       1.112   8.112  21.631  0.00  0.00    +0.000 A 
ATOM     32  C   UNL     1       1.425   8.311  20.264  0.00  0.00    +0.000 A 
ENDBRANCH  22  23
ENDBRANCH  19  22
ENDBRANCH  17  19
ENDBRANCH   1  17
TORSDOF 8
ENDMDL
MODEL 9
REMARK VINA RESULT:      -8.3      3.152      5.459
REMARK  Name = 
REMARK  10 active torsions:
REMARK  status: ('A' for Active; 'I' for Inactive)
REMARK    1  A    between atoms: C_1  and  C_2
REMARK    2  A    between atoms: C_2  and  C_3
REMARK    3  A    between atoms: C_2  and  C_4
REMARK    4  A    between atoms: C_4  and  C_5
REMARK    5  A    between atoms: C_7  and  C_8
REMARK    6  A    between atoms: C_8  and  N_9
REMARK    7  A    between atoms: N_9  and  S_10
REMARK    8  A    between atoms: S_10  and  C_13
REMARK    9  A    between atoms: C_13  and  C_14
REMARK   10  A    between atoms: N_25  and  C_26
REMARK                            x       y       z     vdW  Elec       q    Type
REMARK                         _______ _______ _______ _____ _____    ______ ____
ROOT
ATOM      1  C   UNL     1       1.654   6.727  20.913  0.00  0.00    +0.000 C 
ENDROOT
BRANCH   1   4
ATOM      2  C   UNL     1       2.479   4.419  18.162  0.00  0.00    +0.000 A 
ATOM      3  C   UNL     1       1.524   4.986  18.982  0.00  0.00    +0.000 A 
ATOM      4  C   UNL     1       2.232   5.843  19.849  0.00  0.00    +0.000 A 
ATOM      5  N   UNL     1       3.551   5.804  19.609  0.00  0.00    +0.000 NA
ATOM      6  N   UNL     1       3.673   5.064  18.470  0.00  0.00    +0.000 N 
BRANCH   6   7
ATOM      7  C   UNL     1       4.915   5.008  17.781  0.00  0.00    +0.000 A 
ATOM      8  C   UNL     1       4.956   5.275  16.407  0.00  0.00    +0.000 A 
ATOM      9  C   UNL     1       6.184   5.296  15.742  0.00  0.00    +0.000 A 
ATOM     10  C   UNL     1       7.365   5.023  16.433  0.00  0.00    +0.000 A 
ATOM     11  C   UNL     1       7.324   4.717  17.791  0.00  0.00    +0.000 A 
ATOM     12  C   UNL     1       6.101   4.705  18.464  0.00  0.00    +0.000 A 
ENDBRANCH   6   7
BRANCH   2  13
ATOM     13  C   UNL     1       2.333   3.245  17.236  0.00  0.00    +0.000 C 
BRANCH  13  15
ATOM     14  C   UNL     1       3.781   1.481  18.359  0.00  0.00    +0.000 C 
ATOM     15  C   UNL     1       2.355   1.895  17.985  0.00  0.00    +0.000 C 
ATOM     16  C   UNL     1       1.473   1.947  19.232  0.00  0.00    +0.000 C 
ENDBRANCH  13  15
ENDBRANCH   2  13
ENDBRANCH   1   4
BRANCH   1  17
ATOM     17  N   UNL     1       1.998   8.140  20.663  0.00  0.00    +0.000 NA
ATOM     18  H   UNL     1       2.202   8.296  19.669  0.00  0.00    +0.000 HD
BRANCH  17  19
ATOM     19  S   UNL     1       0.853   9.270  21.199  0.00  0.00    +0.000 S 
ATOM     20  O   UNL     1      -0.394   8.547  21.300  0.00  0.00    +0.000 OA
ATOM     21  O   UNL     1       1.450   9.921  22.351  0.00  0.00    +0.000 OA
BRANCH  19  22
ATOM     22  C   UNL     1       0.777  10.412  19.803  0.00  0.00    +0.000 C 
BRANCH  22  23
ATOM     23  C   UNL     1      -0.543  11.151  19.792  0.00  0.00    +0.000 A 
ATOM     24  C   UNL     1      -0.797  12.053  20.843  0.00  0.00    +0.000 A 
ATOM     25  C   UNL     1      -2.009  12.727  20.929  0.00  0.00    +0.000 A 
ATOM     26  C   UNL     1      -2.987  12.521  19.961  0.00  0.00    +0.000 A 
ATOM     27  C   UNL     1      -2.769  11.641  18.894  0.00  0.00    +0.000 A 
ATOM     28  C   UNL     1      -3.776  11.456  17.930  0.00  0.00    +0.000 A 
ATOM     29  C   UNL     1      -3.593  10.587  16.859  0.00  0.00    +0.000 A 
ATOM     30  C   UNL     1      -2.400   9.890  16.738  0.00  0.00    +0.000 A 
ATOM     31  C   UNL     1      -1.390  10.063  17.689  0.00  0.00    +0.000 A 
ATOM     32  C   UNL     1      -1.539  10.939  18.791  0.00  0.00    +0.000 A 
ENDBRANCH  22  23
ENDBRANCH  19  22
ENDBRANCH  17  19
ENDBRANCH   1  17
TORSDOF 8
ENDMDL
