MODEL 1
REMARK VINA RESULT:      -8.9      0.000      0.000
REMARK  Name = 
REMARK  7 active torsions:
REMARK  status: ('A' for Active; 'I' for Inactive)
REMARK    1  A    between atoms: C_1  and  O_2
REMARK    2  A    between atoms: O_2  and  C_3
REMARK    3  A    between atoms: C_7  and  C_8
REMARK    4  A    between atoms: N_16  and  C_17
REMARK    5  A    between atoms: C_17  and  C_18
REMARK    6  A    between atoms: N_20  and  C_21
REMARK    7  A    between atoms: C_21  and  C_22
REMARK                            x       y       z     vdW  Elec       q    Type
REMARK                         _______ _______ _______ _____ _____    ______ ____
ROOT
ATOM      1  C   UNL     1       2.355   6.883  18.634  0.00  0.00    +0.000 C 
ATOM      2  N   UNL     1       2.024   5.820  19.299  0.00  0.00    +0.000 NA
ATOM      3  C   UNL     1       2.539   4.551  18.950  0.00  0.00    +0.000 A 
ATOM      4  C   UNL     1       1.661   3.479  19.141  0.00  0.00    +0.000 A 
ATOM      5  C   UNL     1       2.059   2.173  18.878  0.00  0.00    +0.000 A 
ATOM      6  C   UNL     1       3.351   1.966  18.442  0.00  0.00    +0.000 A 
ATOM      7  N   UNL     1       4.256   2.953  18.288  0.00  0.00    +0.000 NA
ATOM      8  C   UNL     1       3.860   4.231  18.540  0.00  0.00    +0.000 A 
ATOM      9  N   UNL     1       4.882   5.215  18.382  0.00  0.00    +0.000 N 
ATOM     10  C   UNL     1       4.660   6.500  17.936  0.00  0.00    +0.000 C 
ATOM     11  O   UNL     1       5.536   7.368  17.879  0.00  0.00    +0.000 OA
ATOM     12  C   UNL     1       3.274   6.810  17.447  0.00  0.00    +0.000 C 
ENDROOT
BRANCH   1  17
ATOM     13  C   UNL     1       1.073   9.707  20.820  0.00  0.00    +0.000 A 
ATOM     14  C   UNL     1       0.863  10.700  19.862  0.00  0.00    +0.000 A 
ATOM     15  C   UNL     1       1.133  10.457  18.512  0.00  0.00    +0.000 A 
ATOM     16  C   UNL     1       1.625   9.214  18.115  0.00  0.00    +0.000 A 
ATOM     17  C   UNL     1       1.854   8.217  19.070  0.00  0.00    +0.000 A 
ATOM     18  C   UNL     1       1.565   8.465  20.420  0.00  0.00    +0.000 A 
BRANCH  13  20
ATOM     19  C   UNL     1      -0.330   9.351  22.708  0.00  0.00    +0.000 C 
ATOM     20  O   UNL     1       0.749  10.060  22.102  0.00  0.00    +0.000 OA
ENDBRANCH  13  20
ENDBRANCH   1  17
BRANCH   9  21
ATOM     21  C   UNL     1       6.239   4.805  18.748  0.00  0.00    +0.000 C 
BRANCH  21  22
ATOM     22  C   UNL     1       7.198   4.690  17.545  0.00  0.00    +0.000 C 
ATOM     23  O   UNL     1       8.287   4.122  17.583  0.00  0.00    +0.000 OA
ATOM     24  N   UNL     1       6.723   5.301  16.403  0.00  0.00    +0.000 N 
ATOM     25  H   UNL     1       5.855   5.820  16.432  0.00  0.00    +0.000 HD
BRANCH  24  26
ATOM     26  C   UNL     1       7.480   5.319  15.166  0.00  0.00    +0.000 C 
BRANCH  26  27
ATOM     27  C   UNL     1       6.772   4.562  14.069  0.00  0.00    +0.000 A 
ATOM     28  C   UNL     1       5.457   4.105  14.258  0.00  0.00    +0.000 A 
ATOM     29  C   UNL     1       4.790   3.421  13.241  0.00  0.00    +0.000 A 
ATOM     30  C   UNL     1       5.432   3.198  12.029  0.00  0.00    +0.000 A 
ATOM     31  F   UNL     1       4.793   2.544  11.051  0.00  0.00    +0.000 F 
ATOM     32  C   UNL     1       6.730   3.647  11.816  0.00  0.00    +0.000 A 
ATOM     33  C   UNL     1       7.400   4.331  12.834  0.00  0.00    +0.000 A 
ENDBRANCH  26  27
ENDBRANCH  24  26
ENDBRANCH  21  22
ENDBRANCH   9  21
TORSDOF 6
ENDMDL
MODEL 2
REMARK VINA RESULT:      -8.5      3.555      8.752
REMARK  Name = 
REMARK  7 active torsions:
REMARK  status: ('A' for Active; 'I' for Inactive)
REMARK    1  A    between atoms: C_1  and  O_2
REMARK    2  A    between atoms: O_2  and  C_3
REMARK    3  A    between atoms: C_7  and  C_8
REMARK    4  A    between atoms: N_16  and  C_17
REMARK    5  A    between atoms: C_17  and  C_18
REMARK    6  A    between atoms: N_20  and  C_21
REMARK    7  A    between atoms: C_21  and  C_22
REMARK                            x       y       z     vdW  Elec       q    Type
REMARK                         _______ _______ _______ _____ _____    ______ ____
ROOT
ATOM      1  C   UNL     1       4.827   3.838  16.831  0.00  0.00    +0.000 C 
ATOM      2  N   UNL     1       3.569   3.534  16.758  0.00  0.00    +0.000 NA
ATOM      3  C   UNL     1       2.798   3.327  17.925  0.00  0.00    +0.000 A 
ATOM      4  C   UNL     1       1.803   2.351  17.815  0.00  0.00    +0.000 A 
ATOM      5  C   UNL     1       0.947   2.080  18.877  0.00  0.00    +0.000 A 
ATOM      6  C   UNL     1       1.097   2.817  20.032  0.00  0.00    +0.000 A 
ATOM      7  N   UNL     1       2.003   3.804  20.179  0.00  0.00    +0.000 NA
ATOM      8  C   UNL     1       2.844   4.061  19.138  0.00  0.00    +0.000 A 
ATOM      9  N   UNL     1       3.754   5.138  19.360  0.00  0.00    +0.000 N 
ATOM     10  C   UNL     1       5.035   5.189  18.852  0.00  0.00    +0.000 C 
ATOM     11  O   UNL     1       5.786   6.160  18.980  0.00  0.00    +0.000 OA
ATOM     12  C   UNL     1       5.529   3.954  18.155  0.00  0.00    +0.000 C 
ENDROOT
BRANCH   1  17
ATOM     13  C   UNL     1       5.997   3.743  13.223  0.00  0.00    +0.000 A 
ATOM     14  C   UNL     1       7.080   4.622  13.280  0.00  0.00    +0.000 A 
ATOM     15  C   UNL     1       7.432   5.243  14.482  0.00  0.00    +0.000 A 
ATOM     16  C   UNL     1       6.693   4.990  15.637  0.00  0.00    +0.000 A 
ATOM     17  C   UNL     1       5.596   4.123  15.587  0.00  0.00    +0.000 A 
ATOM     18  C   UNL     1       5.259   3.493  14.380  0.00  0.00    +0.000 A 
BRANCH  13  20
ATOM     19  C   UNL     1       4.424   3.202  11.522  0.00  0.00    +0.000 C 
ATOM     20  O   UNL     1       5.768   3.182  11.996  0.00  0.00    +0.000 OA
ENDBRANCH  13  20
ENDBRANCH   1  17
BRANCH   9  21
ATOM     21  C   UNL     1       3.255   6.255  20.164  0.00  0.00    +0.000 C 
BRANCH  21  22
ATOM     22  C   UNL     1       2.395   7.257  19.368  0.00  0.00    +0.000 C 
ATOM     23  O   UNL     1       2.274   7.242  18.145  0.00  0.00    +0.000 OA
ATOM     24  N   UNL     1       1.769   8.197  20.160  0.00  0.00    +0.000 N 
ATOM     25  H   UNL     1       1.951   8.220  21.155  0.00  0.00    +0.000 HD
BRANCH  24  26
ATOM     26  C   UNL     1       0.926   9.237  19.604  0.00  0.00    +0.000 C 
BRANCH  26  27
ATOM     27  C   UNL     1       0.127   9.938  20.675  0.00  0.00    +0.000 A 
ATOM     28  C   UNL     1       0.056   9.402  21.971  0.00  0.00    +0.000 A 
ATOM     29  C   UNL     1      -0.666  10.055  22.971  0.00  0.00    +0.000 A 
ATOM     30  C   UNL     1      -1.314  11.249  22.681  0.00  0.00    +0.000 A 
ATOM     31  F   UNL     1      -2.005  11.878  23.640  0.00  0.00    +0.000 F 
ATOM     32  C   UNL     1      -1.252  11.802  21.407  0.00  0.00    +0.000 A 
ATOM     33  C   UNL     1      -0.531  11.150  20.404  0.00  0.00    +0.000 A 
ENDBRANCH  26  27
ENDBRANCH  24  26
ENDBRANCH  21  22
ENDBRANCH   9  21
TORSDOF 6
ENDMDL
MODEL 3
REMARK VINA RESULT:      -8.4      0.995      1.315
REMARK  Name = 
REMARK  7 active torsions:
REMARK  status: ('A' for Active; 'I' for Inactive)
REMARK    1  A    between atoms: C_1  and  O_2
REMARK    2  A    between atoms: O_2  and  C_3
REMARK    3  A    between atoms: C_7  and  C_8
REMARK    4  A    between atoms: N_16  and  C_17
REMARK    5  A    between atoms: C_17  and  C_18
REMARK    6  A    between atoms: N_20  and  C_21
REMARK    7  A    between atoms: C_21  and  C_22
REMARK                            x       y       z     vdW  Elec       q    Type
REMARK                         _______ _______ _______ _____ _____    ______ ____
ROOT
ATOM      1  C   UNL     1       2.234   6.957  19.336  0.00  0.00    +0.000 C 
ATOM      2  N   UNL     1       2.226   6.157  20.356  0.00  0.00    +0.000 NA
ATOM      3  C   UNL     1       2.783   4.860  20.272  0.00  0.00    +0.000 A 
ATOM      4  C   UNL     1       2.127   3.881  21.025  0.00  0.00    +0.000 A 
ATOM      5  C   UNL     1       2.599   2.574  21.063  0.00  0.00    +0.000 A 
ATOM      6  C   UNL     1       3.743   2.278  20.353  0.00  0.00    +0.000 A 
ATOM      7  N   UNL     1       4.445   3.190  19.651  0.00  0.00    +0.000 NA
ATOM      8  C   UNL     1       3.975   4.467  19.611  0.00  0.00    +0.000 A 
ATOM      9  N   UNL     1       4.789   5.378  18.872  0.00  0.00    +0.000 N 
ATOM     10  C   UNL     1       4.299   6.442  18.144  0.00  0.00    +0.000 C 
ATOM     11  O   UNL     1       5.014   7.271  17.576  0.00  0.00    +0.000 OA
ATOM     12  C   UNL     1       2.806   6.532  18.012  0.00  0.00    +0.000 C 
ENDROOT
BRANCH   1  17
ATOM     13  C   UNL     1       0.657  10.075  20.815  0.00  0.00    +0.000 A 
ATOM     14  C   UNL     1       0.670  10.921  19.705  0.00  0.00    +0.000 A 
ATOM     15  C   UNL     1       1.187  10.486  18.482  0.00  0.00    +0.000 A 
ATOM     16  C   UNL     1       1.702   9.195  18.365  0.00  0.00    +0.000 A 
ATOM     17  C   UNL     1       1.706   8.343  19.476  0.00  0.00    +0.000 A 
ATOM     18  C   UNL     1       1.172   8.784  20.695  0.00  0.00    +0.000 A 
BRANCH  13  20
ATOM     19  C   UNL     1      -0.162   9.708  23.018  0.00  0.00    +0.000 C 
ATOM     20  O   UNL     1       0.104  10.609  21.947  0.00  0.00    +0.000 OA
ENDBRANCH  13  20
ENDBRANCH   1  17
BRANCH   9  21
ATOM     21  C   UNL     1       6.234   5.153  18.931  0.00  0.00    +0.000 C 
BRANCH  21  22
ATOM     22  C   UNL     1       6.992   5.657  17.686  0.00  0.00    +0.000 C 
ATOM     23  O   UNL     1       7.658   6.689  17.656  0.00  0.00    +0.000 OA
ATOM     24  N   UNL     1       6.846   4.839  16.585  0.00  0.00    +0.000 N 
ATOM     25  H   UNL     1       6.231   4.038  16.630  0.00  0.00    +0.000 HD
BRANCH  24  26
ATOM     26  C   UNL     1       7.466   5.144  15.310  0.00  0.00    +0.000 C 
BRANCH  26  27
ATOM     27  C   UNL     1       6.726   4.501  14.163  0.00  0.00    +0.000 A 
ATOM     28  C   UNL     1       7.376   4.275  12.939  0.00  0.00    +0.000 A 
ATOM     29  C   UNL     1       6.703   3.663  11.880  0.00  0.00    +0.000 A 
ATOM     30  C   UNL     1       5.381   3.270  12.043  0.00  0.00    +0.000 A 
ATOM     31  F   UNL     1       4.734   2.681  11.029  0.00  0.00    +0.000 F 
ATOM     32  C   UNL     1       4.719   3.477  13.248  0.00  0.00    +0.000 A 
ATOM     33  C   UNL     1       5.390   4.090  14.309  0.00  0.00    +0.000 A 
ENDBRANCH  26  27
ENDBRANCH  24  26
ENDBRANCH  21  22
ENDBRANCH   9  21
TORSDOF 6
ENDMDL
MODEL 4
REMARK VINA RESULT:      -8.4      3.663      4.793
REMARK  Name = 
REMARK  7 active torsions:
REMARK  status: ('A' for Active; 'I' for Inactive)
REMARK    1  A    between atoms: C_1  and  O_2
REMARK    2  A    between atoms: O_2  and  C_3
REMARK    3  A    between atoms: C_7  and  C_8
REMARK    4  A    between atoms: N_16  and  C_17
REMARK    5  A    between atoms: C_17  and  C_18
REMARK    6  A    between atoms: N_20  and  C_21
REMARK    7  A    between atoms: C_21  and  C_22
REMARK                            x       y       z     vdW  Elec       q    Type
REMARK                         _______ _______ _______ _____ _____    ______ ____
ROOT
ATOM      1  C   UNL     1       2.224   6.924  19.301  0.00  0.00    +0.000 C 
ATOM      2  N   UNL     1       2.514   6.109  20.268  0.00  0.00    +0.000 NA
ATOM      3  C   UNL     1       3.048   4.826  20.006  0.00  0.00    +0.000 A 
ATOM      4  C   UNL     1       2.645   3.822  20.892  0.00  0.00    +0.000 A 
ATOM      5  C   UNL     1       3.132   2.526  20.772  0.00  0.00    +0.000 A 
ATOM      6  C   UNL     1       4.038   2.266  19.766  0.00  0.00    +0.000 A 
ATOM      7  N   UNL     1       4.501   3.203  18.915  0.00  0.00    +0.000 NA
ATOM      8  C   UNL     1       4.016   4.470  19.032  0.00  0.00    +0.000 A 
ATOM      9  N   UNL     1       4.576   5.409  18.115  0.00  0.00    +0.000 N 
ATOM     10  C   UNL     1       3.885   6.472  17.573  0.00  0.00    +0.000 C 
ATOM     11  O   UNL     1       4.398   7.325  16.844  0.00  0.00    +0.000 OA
ATOM     12  C   UNL     1       2.412   6.531  17.863  0.00  0.00    +0.000 C 
ENDROOT
BRANCH   1  17
ATOM     13  C   UNL     1       0.937   9.941  21.208  0.00  0.00    +0.000 A 
ATOM     14  C   UNL     1       0.757  10.849  20.162  0.00  0.00    +0.000 A 
ATOM     15  C   UNL     1       1.051  10.486  18.844  0.00  0.00    +0.000 A 
ATOM     16  C   UNL     1       1.534   9.208  18.567  0.00  0.00    +0.000 A 
ATOM     17  C   UNL     1       1.732   8.296  19.609  0.00  0.00    +0.000 A 
ATOM     18  C   UNL     1       1.421   8.664  20.926  0.00  0.00    +0.000 A 
BRANCH  13  20
ATOM     19  C   UNL     1      -0.634   9.930  22.993  0.00  0.00    +0.000 C 
ATOM     20  O   UNL     1       0.592  10.407  22.447  0.00  0.00    +0.000 OA
ENDBRANCH  13  20
ENDBRANCH   1  17
BRANCH   9  21
ATOM     21  C   UNL     1       5.985   5.215  17.765  0.00  0.00    +0.000 C 
BRANCH  21  22
ATOM     22  C   UNL     1       6.966   5.832  18.782  0.00  0.00    +0.000 C 
ATOM     23  O   UNL     1       7.120   5.418  19.930  0.00  0.00    +0.000 OA
ATOM     24  N   UNL     1       7.664   6.915  18.288  0.00  0.00    +0.000 N 
ATOM     25  H   UNL     1       7.456   7.268  17.364  0.00  0.00    +0.000 HD
BRANCH  24  26
ATOM     26  C   UNL     1       8.625   7.646  19.091  0.00  0.00    +0.000 C 
BRANCH  26  27
ATOM     27  C   UNL     1       8.665   9.107  18.718  0.00  0.00    +0.000 A 
ATOM     28  C   UNL     1       9.500   9.994  19.417  0.00  0.00    +0.000 A 
ATOM     29  C   UNL     1       9.556  11.344  19.065  0.00  0.00    +0.000 A 
ATOM     30  C   UNL     1       8.783  11.809  18.009  0.00  0.00    +0.000 A 
ATOM     31  F   UNL     1       8.838  13.103  17.668  0.00  0.00    +0.000 F 
ATOM     32  C   UNL     1       7.955  10.949  17.297  0.00  0.00    +0.000 A 
ATOM     33  C   UNL     1       7.896   9.598  17.649  0.00  0.00    +0.000 A 
ENDBRANCH  26  27
ENDBRANCH  24  26
ENDBRANCH  21  22
ENDBRANCH   9  21
TORSDOF 6
ENDMDL
MODEL 5
REMARK VINA RESULT:      -8.4      0.994      1.795
REMARK  Name = 
REMARK  7 active torsions:
REMARK  status: ('A' for Active; 'I' for Inactive)
REMARK    1  A    between atoms: C_1  and  O_2
REMARK    2  A    between atoms: O_2  and  C_3
REMARK    3  A    between atoms: C_7  and  C_8
REMARK    4  A    between atoms: N_16  and  C_17
REMARK    5  A    between atoms: C_17  and  C_18
REMARK    6  A    between atoms: N_20  and  C_21
REMARK    7  A    between atoms: C_21  and  C_22
REMARK                            x       y       z     vdW  Elec       q    Type
REMARK                         _______ _______ _______ _____ _____    ______ ____
ROOT
ATOM      1  C   UNL     1       2.408   7.048  18.432  0.00  0.00    +0.000 C 
ATOM      2  N   UNL     1       2.092   5.928  19.003  0.00  0.00    +0.000 NA
ATOM      3  C   UNL     1       2.639   4.702  18.559  0.00  0.00    +0.000 A 
ATOM      4  C   UNL     1       1.782   3.600  18.650  0.00  0.00    +0.000 A 
ATOM      5  C   UNL     1       2.211   2.329  18.287  0.00  0.00    +0.000 A 
ATOM      6  C   UNL     1       3.512   2.185  17.854  0.00  0.00    +0.000 A 
ATOM      7  N   UNL     1       4.398   3.200  17.793  0.00  0.00    +0.000 NA
ATOM      8  C   UNL     1       3.971   4.444  18.143  0.00  0.00    +0.000 A 
ATOM      9  N   UNL     1       4.973   5.458  18.080  0.00  0.00    +0.000 N 
ATOM     10  C   UNL     1       4.729   6.771  17.737  0.00  0.00    +0.000 C 
ATOM     11  O   UNL     1       5.587   7.658  17.764  0.00  0.00    +0.000 OA
ATOM     12  C   UNL     1       3.343   7.091  17.256  0.00  0.00    +0.000 C 
ENDROOT
BRANCH   1  17
ATOM     13  C   UNL     1       1.429  10.704  18.708  0.00  0.00    +0.000 A 
ATOM     14  C   UNL     1       0.920  10.737  20.007  0.00  0.00    +0.000 A 
ATOM     15  C   UNL     1       0.894   9.581  20.793  0.00  0.00    +0.000 A 
ATOM     16  C   UNL     1       1.374   8.378  20.275  0.00  0.00    +0.000 A 
ATOM     17  C   UNL     1       1.873   8.331  18.968  0.00  0.00    +0.000 A 
ATOM     18  C   UNL     1       1.909   9.499  18.193  0.00  0.00    +0.000 A 
BRANCH  13  20
ATOM     19  C   UNL     1       1.631  13.070  18.843  0.00  0.00    +0.000 C 
ATOM     20  O   UNL     1       1.422  11.904  18.051  0.00  0.00    +0.000 OA
ENDBRANCH  13  20
ENDBRANCH   1  17
BRANCH   9  21
ATOM     21  C   UNL     1       6.335   5.048  18.430  0.00  0.00    +0.000 C 
BRANCH  21  22
ATOM     22  C   UNL     1       7.244   4.808  17.208  0.00  0.00    +0.000 C 
ATOM     23  O   UNL     1       8.249   4.101  17.225  0.00  0.00    +0.000 OA
ATOM     24  N   UNL     1       6.829   5.474  16.074  0.00  0.00    +0.000 N 
ATOM     25  H   UNL     1       6.038   6.103  16.119  0.00  0.00    +0.000 HD
BRANCH  24  26
ATOM     26  C   UNL     1       7.555   5.393  14.821  0.00  0.00    +0.000 C 
BRANCH  26  27
ATOM     27  C   UNL     1       6.810   4.571  13.798  0.00  0.00    +0.000 A 
ATOM     28  C   UNL     1       7.436   4.197  12.598  0.00  0.00    +0.000 A 
ATOM     29  C   UNL     1       6.759   3.421  11.655  0.00  0.00    +0.000 A 
ATOM     30  C   UNL     1       5.457   3.011  11.913  0.00  0.00    +0.000 A 
ATOM     31  F   UNL     1       4.807   2.264  11.012  0.00  0.00    +0.000 F 
ATOM     32  C   UNL     1       4.819   3.362  13.097  0.00  0.00    +0.000 A 
ATOM     33  C   UNL     1       5.495   4.140  14.041  0.00  0.00    +0.000 A 
ENDBRANCH  26  27
ENDBRANCH  24  26
ENDBRANCH  21  22
ENDBRANCH   9  21
TORSDOF 6
ENDMDL
MODEL 6
REMARK VINA RESULT:      -8.3      3.383      8.455
REMARK  Name = 
REMARK  7 active torsions:
REMARK  status: ('A' for Active; 'I' for Inactive)
REMARK    1  A    between atoms: C_1  and  O_2
REMARK    2  A    between atoms: O_2  and  C_3
REMARK    3  A    between atoms: C_7  and  C_8
REMARK    4  A    between atoms: N_16  and  C_17
REMARK    5  A    between atoms: C_17  and  C_18
REMARK    6  A    between atoms: N_20  and  C_21
REMARK    7  A    between atoms: C_21  and  C_22
REMARK                            x       y       z     vdW  Elec       q    Type
REMARK                         _______ _______ _______ _____ _____    ______ ____
ROOT
ATOM      1  C   UNL     1       5.568   3.958  16.240  0.00  0.00    +0.000 C 
ATOM      2  N   UNL     1       4.463   3.324  16.483  0.00  0.00    +0.000 NA
ATOM      3  C   UNL     1       3.948   3.231  17.796  0.00  0.00    +0.000 A 
ATOM      4  C   UNL     1       3.292   2.033  18.095  0.00  0.00    +0.000 A 
ATOM      5  C   UNL     1       2.703   1.831  19.338  0.00  0.00    +0.000 A 
ATOM      6  C   UNL     1       2.767   2.856  20.258  0.00  0.00    +0.000 A 
ATOM      7  N   UNL     1       3.341   4.051  20.010  0.00  0.00    +0.000 NA
ATOM      8  C   UNL     1       3.923   4.241  18.793  0.00  0.00    +0.000 A 
ATOM      9  N   UNL     1       4.482   5.539  18.597  0.00  0.00    +0.000 N 
ATOM     10  C   UNL     1       5.611   5.793  17.846  0.00  0.00    +0.000 C 
ATOM     11  O   UNL     1       6.041   6.926  17.615  0.00  0.00    +0.000 OA
ATOM     12  C   UNL     1       6.364   4.595  17.343  0.00  0.00    +0.000 C 
ENDROOT
BRANCH   1  17
ATOM     13  C   UNL     1       5.897   3.514  12.486  0.00  0.00    +0.000 A 
ATOM     14  C   UNL     1       6.993   4.338  12.224  0.00  0.00    +0.000 A 
ATOM     15  C   UNL     1       7.625   5.035  13.258  0.00  0.00    +0.000 A 
ATOM     16  C   UNL     1       7.154   4.914  14.566  0.00  0.00    +0.000 A 
ATOM     17  C   UNL     1       6.047   4.102  14.836  0.00  0.00    +0.000 A 
ATOM     18  C   UNL     1       5.430   3.395  13.795  0.00  0.00    +0.000 A 
BRANCH  13  20
ATOM     19  C   UNL     1       4.013   3.117  11.088  0.00  0.00    +0.000 C 
ATOM     20  O   UNL     1       5.383   2.868  11.395  0.00  0.00    +0.000 OA
ENDBRANCH  13  20
ENDBRANCH   1  17
BRANCH   9  21
ATOM     21  C   UNL     1       3.774   6.654  19.230  0.00  0.00    +0.000 C 
BRANCH  21  22
ATOM     22  C   UNL     1       2.567   7.163  18.416  0.00  0.00    +0.000 C 
ATOM     23  O   UNL     1       1.881   6.453  17.684  0.00  0.00    +0.000 OA
ATOM     24  N   UNL     1       2.325   8.511  18.576  0.00  0.00    +0.000 N 
ATOM     25  H   UNL     1       2.956   9.075  19.130  0.00  0.00    +0.000 HD
BRANCH  24  26
ATOM     26  C   UNL     1       1.244   9.188  17.886  0.00  0.00    +0.000 C 
BRANCH  26  27
ATOM     27  C   UNL     1       0.382   9.977  18.840  0.00  0.00    +0.000 A 
ATOM     28  C   UNL     1       0.660   9.971  20.217  0.00  0.00    +0.000 A 
ATOM     29  C   UNL     1      -0.122  10.713  21.103  0.00  0.00    +0.000 A 
ATOM     30  C   UNL     1      -1.179  11.471  20.615  0.00  0.00    +0.000 A 
ATOM     31  F   UNL     1      -1.928  12.186  21.463  0.00  0.00    +0.000 F 
ATOM     32  C   UNL     1      -1.469  11.499  19.256  0.00  0.00    +0.000 A 
ATOM     33  C   UNL     1      -0.688  10.755  18.368  0.00  0.00    +0.000 A 
ENDBRANCH  26  27
ENDBRANCH  24  26
ENDBRANCH  21  22
ENDBRANCH   9  21
TORSDOF 6
ENDMDL
MODEL 7
REMARK VINA RESULT:      -8.3      4.428      7.977
REMARK  Name = 
REMARK  7 active torsions:
REMARK  status: ('A' for Active; 'I' for Inactive)
REMARK    1  A    between atoms: C_1  and  O_2
REMARK    2  A    between atoms: O_2  and  C_3
REMARK    3  A    between atoms: C_7  and  C_8
REMARK    4  A    between atoms: N_16  and  C_17
REMARK    5  A    between atoms: C_17  and  C_18
REMARK    6  A    between atoms: N_20  and  C_21
REMARK    7  A    between atoms: C_21  and  C_22
REMARK                            x       y       z     vdW  Elec       q    Type
REMARK                         _______ _______ _______ _____ _____    ______ ____
ROOT
ATOM      1  C   UNL     1      -1.071  12.463  21.262  0.00  0.00    +0.000 C 
ATOM      2  N   UNL     1      -0.732  13.359  20.388  0.00  0.00    +0.000 NA
ATOM      3  C   UNL     1       0.478  13.252  19.665  0.00  0.00    +0.000 A 
ATOM      4  C   UNL     1       1.105  14.468  19.372  0.00  0.00    +0.000 A 
ATOM      5  C   UNL     1       2.280  14.506  18.630  0.00  0.00    +0.000 A 
ATOM      6  C   UNL     1       2.796  13.311  18.175  0.00  0.00    +0.000 A 
ATOM      7  N   UNL     1       2.210  12.115  18.382  0.00  0.00    +0.000 NA
ATOM      8  C   UNL     1       1.063  12.082  19.116  0.00  0.00    +0.000 A 
ATOM      9  N   UNL     1       0.489  10.784  19.267  0.00  0.00    +0.000 N 
ATOM     10  C   UNL     1      -0.192  10.362  20.389  0.00  0.00    +0.000 C 
ATOM     11  O   UNL     1      -0.755   9.267  20.479  0.00  0.00    +0.000 OA
ATOM     12  C   UNL     1      -0.181  11.291  21.569  0.00  0.00    +0.000 C 
ENDROOT
BRANCH   1  17
ATOM     13  C   UNL     1      -4.777  12.986  21.891  0.00  0.00    +0.000 A 
ATOM     14  C   UNL     1      -4.831  12.801  23.273  0.00  0.00    +0.000 A 
ATOM     15  C   UNL     1      -3.674  12.510  24.001  0.00  0.00    +0.000 A 
ATOM     16  C   UNL     1      -2.450  12.394  23.342  0.00  0.00    +0.000 A 
ATOM     17  C   UNL     1      -2.387  12.562  21.954  0.00  0.00    +0.000 A 
ATOM     18  C   UNL     1      -3.551  12.869  21.235  0.00  0.00    +0.000 A 
BRANCH  13  20
ATOM     19  C   UNL     1      -7.125  12.615  21.795  0.00  0.00    +0.000 C 
ATOM     20  O   UNL     1      -5.972  13.290  21.297  0.00  0.00    +0.000 OA
ENDBRANCH  13  20
ENDBRANCH   1  17
BRANCH   9  21
ATOM     21  C   UNL     1       0.632   9.874  18.128  0.00  0.00    +0.000 C 
BRANCH  21  22
ATOM     22  C   UNL     1       1.799   8.877  18.274  0.00  0.00    +0.000 C 
ATOM     23  O   UNL     1       2.754   8.816  17.502  0.00  0.00    +0.000 OA
ATOM     24  N   UNL     1       1.673   8.037  19.361  0.00  0.00    +0.000 N 
ATOM     25  H   UNL     1       0.838   8.071  19.930  0.00  0.00    +0.000 HD
BRANCH  24  26
ATOM     26  C   UNL     1       2.657   7.017  19.665  0.00  0.00    +0.000 C 
BRANCH  26  27
ATOM     27  C   UNL     1       2.123   5.631  19.399  0.00  0.00    +0.000 A 
ATOM     28  C   UNL     1       1.534   4.887  20.436  0.00  0.00    +0.000 A 
ATOM     29  C   UNL     1       1.021   3.612  20.192  0.00  0.00    +0.000 A 
ATOM     30  C   UNL     1       1.088   3.079  18.911  0.00  0.00    +0.000 A 
ATOM     31  F   UNL     1       0.593   1.858  18.676  0.00  0.00    +0.000 F 
ATOM     32  C   UNL     1       1.659   3.799  17.868  0.00  0.00    +0.000 A 
ATOM     33  C   UNL     1       2.174   5.075  18.110  0.00  0.00    +0.000 A 
ENDBRANCH  26  27
ENDBRANCH  24  26
ENDBRANCH  21  22
ENDBRANCH   9  21
TORSDOF 6
ENDMDL
MODEL 8
REMARK VINA RESULT:      -8.3      1.397      1.691
REMARK  Name = 
REMARK  7 active torsions:
REMARK  status: ('A' for Active; 'I' for Inactive)
REMARK    1  A    between atoms: C_1  and  O_2
REMARK    2  A    between atoms: O_2  and  C_3
REMARK    3  A    between atoms: C_7  and  C_8
REMARK    4  A    between atoms: N_16  and  C_17
REMARK    5  A    between atoms: C_17  and  C_18
REMARK    6  A    between atoms: N_20  and  C_21
REMARK    7  A    between atoms: C_21  and  C_22
REMARK                            x       y       z     vdW  Elec       q    Type
REMARK                         _______ _______ _______ _____ _____    ______ ____
ROOT
ATOM      1  C   UNL     1       2.028   7.103  19.631  0.00  0.00    +0.000 C 
ATOM      2  N   UNL     1       2.206   6.232  20.576  0.00  0.00    +0.000 NA
ATOM      3  C   UNL     1       2.843   4.996  20.319  0.00  0.00    +0.000 A 
ATOM      4  C   UNL     1       2.360   3.913  21.061  0.00  0.00    +0.000 A 
ATOM      5  C   UNL     1       2.928   2.651  20.935  0.00  0.00    +0.000 A 
ATOM      6  C   UNL     1       3.994   2.505  20.073  0.00  0.00    +0.000 A 
ATOM      7  N   UNL     1       4.535   3.521  19.371  0.00  0.00    +0.000 NA
ATOM      8  C   UNL     1       3.970   4.754  19.492  0.00  0.00    +0.000 A 
ATOM      9  N   UNL     1       4.616   5.781  18.741  0.00  0.00    +0.000 N 
ATOM     10  C   UNL     1       3.962   6.851  18.166  0.00  0.00    +0.000 C 
ATOM     11  O   UNL     1       4.537   7.777  17.588  0.00  0.00    +0.000 OA
ATOM     12  C   UNL     1       2.461   6.826  18.219  0.00  0.00    +0.000 C 
ENDROOT
BRANCH   1  17
ATOM     13  C   UNL     1       0.547  10.015  21.562  0.00  0.00    +0.000 A 
ATOM     14  C   UNL     1       0.230  10.882  20.515  0.00  0.00    +0.000 A 
ATOM     15  C   UNL     1       0.494  10.527  19.189  0.00  0.00    +0.000 A 
ATOM     16  C   UNL     1       1.086   9.297  18.904  0.00  0.00    +0.000 A 
ATOM     17  C   UNL     1       1.420   8.426  19.946  0.00  0.00    +0.000 A 
ATOM     18  C   UNL     1       1.139   8.785  21.272  0.00  0.00    +0.000 A 
BRANCH  13  20
ATOM     19  C   UNL     1      -1.112  10.945  22.990  0.00  0.00    +0.000 C 
ATOM     20  O   UNL     1       0.218  10.466  22.811  0.00  0.00    +0.000 OA
ENDBRANCH  13  20
ENDBRANCH   1  17
BRANCH   9  21
ATOM     21  C   UNL     1       6.070   5.675  18.611  0.00  0.00    +0.000 C 
BRANCH  21  22
ATOM     22  C   UNL     1       6.526   4.551  17.657  0.00  0.00    +0.000 C 
ATOM     23  O   UNL     1       7.579   3.928  17.780  0.00  0.00    +0.000 OA
ATOM     24  N   UNL     1       5.640   4.309  16.629  0.00  0.00    +0.000 N 
ATOM     25  H   UNL     1       4.821   4.892  16.521  0.00  0.00    +0.000 HD
BRANCH  24  26
ATOM     26  C   UNL     1       5.891   3.302  15.616  0.00  0.00    +0.000 C 
BRANCH  26  27
ATOM     27  C   UNL     1       6.362   3.920  14.322  0.00  0.00    +0.000 A 
ATOM     28  C   UNL     1       7.341   4.928  14.334  0.00  0.00    +0.000 A 
ATOM     29  C   UNL     1       7.795   5.491  13.140  0.00  0.00    +0.000 A 
ATOM     30  C   UNL     1       7.279   5.042  11.931  0.00  0.00    +0.000 A 
ATOM     31  F   UNL     1       7.717   5.578  10.785  0.00  0.00    +0.000 F 
ATOM     32  C   UNL     1       6.317   4.040  11.894  0.00  0.00    +0.000 A 
ATOM     33  C   UNL     1       5.859   3.477  13.088  0.00  0.00    +0.000 A 
ENDBRANCH  26  27
ENDBRANCH  24  26
ENDBRANCH  21  22
ENDBRANCH   9  21
TORSDOF 6
ENDMDL
MODEL 9
REMARK VINA RESULT:      -8.2      3.313      8.260
REMARK  Name = 
REMARK  7 active torsions:
REMARK  status: ('A' for Active; 'I' for Inactive)
REMARK    1  A    between atoms: C_1  and  O_2
REMARK    2  A    between atoms: O_2  and  C_3
REMARK    3  A    between atoms: C_7  and  C_8
REMARK    4  A    between atoms: N_16  and  C_17
REMARK    5  A    between atoms: C_17  and  C_18
REMARK    6  A    between atoms: N_20  and  C_21
REMARK    7  A    between atoms: C_21  and  C_22
REMARK                            x       y       z     vdW  Elec       q    Type
REMARK                         _______ _______ _______ _____ _____    ______ ____
ROOT
ATOM      1  C   UNL     1       4.741   4.077  16.832  0.00  0.00    +0.000 C 
ATOM      2  N   UNL     1       3.543   3.585  16.762  0.00  0.00    +0.000 NA
ATOM      3  C   UNL     1       2.726   3.487  17.912  0.00  0.00    +0.000 A 
ATOM      4  C   UNL     1       1.881   2.373  17.947  0.00  0.00    +0.000 A 
ATOM      5  C   UNL     1       0.996   2.181  19.002  0.00  0.00    +0.000 A 
ATOM      6  C   UNL     1       0.962   3.133  19.999  0.00  0.00    +0.000 A 
ATOM      7  N   UNL     1       1.715   4.251  19.993  0.00  0.00    +0.000 NA
ATOM      8  C   UNL     1       2.585   4.431  18.962  0.00  0.00    +0.000 A 
ATOM      9  N   UNL     1       3.324   5.651  19.012  0.00  0.00    +0.000 N 
ATOM     10  C   UNL     1       4.620   5.793  18.561  0.00  0.00    +0.000 C 
ATOM     11  O   UNL     1       5.223   6.870  18.534  0.00  0.00    +0.000 OA
ATOM     12  C   UNL     1       5.324   4.536  18.139  0.00  0.00    +0.000 C 
ENDROOT
BRANCH   1  17
ATOM     13  C   UNL     1       5.987   3.672  13.271  0.00  0.00    +0.000 A 
ATOM     14  C   UNL     1       7.111   4.500  13.296  0.00  0.00    +0.000 A 
ATOM     15  C   UNL     1       7.466   5.186  14.461  0.00  0.00    +0.000 A 
ATOM     16  C   UNL     1       6.688   5.052  15.611  0.00  0.00    +0.000 A 
ATOM     17  C   UNL     1       5.551   4.236  15.592  0.00  0.00    +0.000 A 
ATOM     18  C   UNL     1       5.212   3.540  14.423  0.00  0.00    +0.000 A 
BRANCH  13  20
ATOM     19  C   UNL     1       4.495   3.266  11.463  0.00  0.00    +0.000 C 
ATOM     20  O   UNL     1       5.760   3.038  12.080  0.00  0.00    +0.000 OA
ENDBRANCH  13  20
ENDBRANCH   1  17
BRANCH   9  21
ATOM     21  C   UNL     1       2.624   6.813  19.563  0.00  0.00    +0.000 C 
BRANCH  21  22
ATOM     22  C   UNL     1       2.255   7.873  18.506  0.00  0.00    +0.000 C 
ATOM     23  O   UNL     1       2.342   7.696  17.292  0.00  0.00    +0.000 OA
ATOM     24  N   UNL     1       1.820   9.064  19.049  0.00  0.00    +0.000 N 
ATOM     25  H   UNL     1       1.832   9.195  20.052  0.00  0.00    +0.000 HD
BRANCH  24  26
ATOM     26  C   UNL     1       1.440  10.195  18.225  0.00  0.00    +0.000 C 
BRANCH  26  27
ATOM     27  C   UNL     1      -0.023  10.532  18.383  0.00  0.00    +0.000 A 
ATOM     28  C   UNL     1      -0.429  11.512  19.304  0.00  0.00    +0.000 A 
ATOM     29  C   UNL     1      -1.778  11.842  19.441  0.00  0.00    +0.000 A 
ATOM     30  C   UNL     1      -2.725  11.198  18.654  0.00  0.00    +0.000 A 
ATOM     31  F   UNL     1      -4.019  11.516  18.782  0.00  0.00    +0.000 F 
ATOM     32  C   UNL     1      -2.346  10.231  17.731  0.00  0.00    +0.000 A 
ATOM     33  C   UNL     1      -0.996   9.898  17.592  0.00  0.00    +0.000 A 
ENDBRANCH  26  27
ENDBRANCH  24  26
ENDBRANCH  21  22
ENDBRANCH   9  21
TORSDOF 6
ENDMDL
