MODEL 1
REMARK VINA RESULT:      -7.6      0.000      0.000
REMARK  Name = 
REMARK  6 active torsions:
REMARK  status: ('A' for Active; 'I' for Inactive)
REMARK    1  A    between atoms: C_1  and  O_2
REMARK    2  A    between atoms: O_2  and  C_3
REMARK    3  A    between atoms: C_11  and  C_12
REMARK    4  A    between atoms: N_14  and  C_15
REMARK    5  A    between atoms: N_18  and  C_19
REMARK    6  A    between atoms: C_20  and  C_21
REMARK                            x       y       z     vdW  Elec       q    Type
REMARK                         _______ _______ _______ _____ _____    ______ ____
ROOT
ATOM      1  C   UNL     1       2.517   4.776  19.055  0.00  0.00    +0.000 C 
ATOM      2  O   UNL     1       1.333   4.537  18.809  0.00  0.00    +0.000 OA
ATOM      3  N   UNL     1       2.987   5.978  19.541  0.00  0.00    +0.000 N 
ATOM      4  H   UNL     1       3.978   6.184  19.556  0.00  0.00    +0.000 HD
ENDROOT
BRANCH   1  13
ATOM      5  C   UNL     1       7.318   6.901  17.465  0.00  0.00    +0.000 A 
ATOM      6  C   UNL     1       7.630   6.436  18.744  0.00  0.00    +0.000 A 
ATOM      7  C   UNL     1       6.871   5.428  19.337  0.00  0.00    +0.000 A 
ATOM      8  C   UNL     1       5.779   4.876  18.658  0.00  0.00    +0.000 A 
ATOM      9  C   UNL     1       5.479   5.314  17.356  0.00  0.00    +0.000 A 
ATOM     10  C   UNL     1       6.245   6.338  16.777  0.00  0.00    +0.000 A 
ATOM     11  C   UNL     1       4.304   4.771  16.576  0.00  0.00    +0.000 C 
ATOM     12  C   UNL     1       3.678   3.531  17.207  0.00  0.00    +0.000 C 
ATOM     13  C   UNL     1       3.550   3.686  18.725  0.00  0.00    +0.000 C 
ATOM     14  C   UNL     1       4.943   3.820  19.340  0.00  0.00    +0.000 C 
BRANCH   5  16
ATOM     15  C   UNL     1       8.224   9.064  17.824  0.00  0.00    +0.000 C 
ATOM     16  O   UNL     1       8.124   7.905  17.004  0.00  0.00    +0.000 OA
ENDBRANCH   5  16
ENDBRANCH   1  13
BRANCH   3  17
ATOM     17  C   UNL     1       2.143   6.981  19.979  0.00  0.00    +0.000 A 
ATOM     18  N   UNL     1       1.441   6.921  21.148  0.00  0.00    +0.000 NA
ATOM     19  N   UNL     1       0.765   8.051  21.288  0.00  0.00    +0.000 NA
ATOM     20  N   UNL     1       1.038   8.817  20.224  0.00  0.00    +0.000 N 
ATOM     21  C   UNL     1       0.431  10.121  20.135  0.00  0.00    +0.000 C 
ATOM     22  C   UNL     1       1.883   8.179  19.351  0.00  0.00    +0.000 A 
BRANCH  22  23
ATOM     23  C   UNL     1       2.295   8.735  18.057  0.00  0.00    +0.000 C 
ATOM     24  F   UNL     1       3.186   7.934  17.420  0.00  0.00    +0.000 F 
ATOM     25  F   UNL     1       1.228   8.850  17.222  0.00  0.00    +0.000 F 
ENDBRANCH  22  23
ENDBRANCH   3  17
TORSDOF 4
ENDMDL
MODEL 2
REMARK VINA RESULT:      -7.6      1.490      1.981
REMARK  Name = 
REMARK  6 active torsions:
REMARK  status: ('A' for Active; 'I' for Inactive)
REMARK    1  A    between atoms: C_1  and  O_2
REMARK    2  A    between atoms: O_2  and  C_3
REMARK    3  A    between atoms: C_11  and  C_12
REMARK    4  A    between atoms: N_14  and  C_15
REMARK    5  A    between atoms: N_18  and  C_19
REMARK    6  A    between atoms: C_20  and  C_21
REMARK                            x       y       z     vdW  Elec       q    Type
REMARK                         _______ _______ _______ _____ _____    ______ ____
ROOT
ATOM      1  C   UNL     1       1.988   4.635  20.068  0.00  0.00    +0.000 C 
ATOM      2  O   UNL     1       0.761   4.506  20.070  0.00  0.00    +0.000 OA
ATOM      3  N   UNL     1       2.645   5.847  20.081  0.00  0.00    +0.000 N 
ATOM      4  H   UNL     1       3.639   5.904  19.898  0.00  0.00    +0.000 HD
ENDROOT
BRANCH   1  13
ATOM      5  C   UNL     1       5.811   5.025  16.154  0.00  0.00    +0.000 A 
ATOM      6  C   UNL     1       6.586   5.131  17.310  0.00  0.00    +0.000 A 
ATOM      7  C   UNL     1       6.120   4.629  18.525  0.00  0.00    +0.000 A 
ATOM      8  C   UNL     1       4.863   4.018  18.600  0.00  0.00    +0.000 A 
ATOM      9  C   UNL     1       4.091   3.876  17.433  0.00  0.00    +0.000 A 
ATOM     10  C   UNL     1       4.569   4.397  16.220  0.00  0.00    +0.000 A 
ATOM     11  C   UNL     1       2.720   3.242  17.449  0.00  0.00    +0.000 C 
ATOM     12  C   UNL     1       2.396   2.529  18.758  0.00  0.00    +0.000 C 
ATOM     13  C   UNL     1       2.841   3.361  19.965  0.00  0.00    +0.000 C 
ATOM     14  C   UNL     1       4.360   3.525  19.934  0.00  0.00    +0.000 C 
BRANCH   5  16
ATOM     15  C   UNL     1       6.789   4.667  14.023  0.00  0.00    +0.000 C 
ATOM     16  O   UNL     1       6.370   5.576  15.033  0.00  0.00    +0.000 OA
ENDBRANCH   5  16
ENDBRANCH   1  13
BRANCH   3  17
ATOM     17  C   UNL     1       1.987   7.045  20.288  0.00  0.00    +0.000 A 
ATOM     18  N   UNL     1       1.298   7.342  21.428  0.00  0.00    +0.000 NA
ATOM     19  N   UNL     1       0.825   8.573  21.322  0.00  0.00    +0.000 NA
ATOM     20  N   UNL     1       1.210   9.050  20.131  0.00  0.00    +0.000 N 
ATOM     21  C   UNL     1       0.831  10.392  19.766  0.00  0.00    +0.000 C 
ATOM     22  C   UNL     1       1.925   8.116  19.425  0.00  0.00    +0.000 A 
BRANCH  22  23
ATOM     23  C   UNL     1       2.410   8.320  18.055  0.00  0.00    +0.000 C 
ATOM     24  F   UNL     1       3.114   7.252  17.600  0.00  0.00    +0.000 F 
ATOM     25  F   UNL     1       1.368   8.479  17.195  0.00  0.00    +0.000 F 
ENDBRANCH  22  23
ENDBRANCH   3  17
TORSDOF 4
ENDMDL
MODEL 3
REMARK VINA RESULT:      -7.5      2.135      2.649
REMARK  Name = 
REMARK  6 active torsions:
REMARK  status: ('A' for Active; 'I' for Inactive)
REMARK    1  A    between atoms: C_1  and  O_2
REMARK    2  A    between atoms: O_2  and  C_3
REMARK    3  A    between atoms: C_11  and  C_12
REMARK    4  A    between atoms: N_14  and  C_15
REMARK    5  A    between atoms: N_18  and  C_19
REMARK    6  A    between atoms: C_20  and  C_21
REMARK                            x       y       z     vdW  Elec       q    Type
REMARK                         _______ _______ _______ _____ _____    ______ ____
ROOT
ATOM      1  C   UNL     1       2.403   5.369  18.976  0.00  0.00    +0.000 C 
ATOM      2  O   UNL     1       1.317   5.178  18.425  0.00  0.00    +0.000 OA
ATOM      3  N   UNL     1       2.958   6.612  19.197  0.00  0.00    +0.000 N 
ATOM      4  H   UNL     1       3.923   6.709  19.487  0.00  0.00    +0.000 HD
ENDROOT
BRANCH   1  13
ATOM      5  C   UNL     1       6.931   4.855  15.922  0.00  0.00    +0.000 A 
ATOM      6  C   UNL     1       7.465   5.276  17.142  0.00  0.00    +0.000 A 
ATOM      7  C   UNL     1       6.758   5.088  18.328  0.00  0.00    +0.000 A 
ATOM      8  C   UNL     1       5.497   4.481  18.309  0.00  0.00    +0.000 A 
ATOM      9  C   UNL     1       4.968   4.022  17.090  0.00  0.00    +0.000 A 
ATOM     10  C   UNL     1       5.686   4.229  15.902  0.00  0.00    +0.000 A 
ATOM     11  C   UNL     1       3.606   3.374  16.999  0.00  0.00    +0.000 C 
ATOM     12  C   UNL     1       3.014   3.012  18.357  0.00  0.00    +0.000 C 
ATOM     13  C   UNL     1       3.231   4.137  19.373  0.00  0.00    +0.000 C 
ATOM     14  C   UNL     1       4.730   4.331  19.600  0.00  0.00    +0.000 C 
BRANCH   5  16
ATOM     15  C   UNL     1       7.123   4.878  13.558  0.00  0.00    +0.000 C 
ATOM     16  O   UNL     1       7.712   5.116  14.830  0.00  0.00    +0.000 OA
ENDBRANCH   5  16
ENDBRANCH   1  13
BRANCH   3  17
ATOM     17  C   UNL     1       2.258   7.785  18.988  0.00  0.00    +0.000 A 
ATOM     18  N   UNL     1       2.251   8.460  17.802  0.00  0.00    +0.000 NA
ATOM     19  N   UNL     1       1.457   9.512  17.924  0.00  0.00    +0.000 NA
ATOM     20  N   UNL     1       0.966   9.502  19.170  0.00  0.00    +0.000 N 
ATOM     21  C   UNL     1       0.054  10.547  19.563  0.00  0.00    +0.000 C 
ATOM     22  C   UNL     1       1.460   8.448  19.894  0.00  0.00    +0.000 A 
BRANCH  22  23
ATOM     23  C   UNL     1       1.168   8.221  21.314  0.00  0.00    +0.000 C 
ATOM     24  F   UNL     1       1.551   9.269  22.087  0.00  0.00    +0.000 F 
ATOM     25  F   UNL     1      -0.170   8.077  21.512  0.00  0.00    +0.000 F 
ENDBRANCH  22  23
ENDBRANCH   3  17
TORSDOF 4
ENDMDL
MODEL 4
REMARK VINA RESULT:      -7.4      2.357      3.075
REMARK  Name = 
REMARK  6 active torsions:
REMARK  status: ('A' for Active; 'I' for Inactive)
REMARK    1  A    between atoms: C_1  and  O_2
REMARK    2  A    between atoms: O_2  and  C_3
REMARK    3  A    between atoms: C_11  and  C_12
REMARK    4  A    between atoms: N_14  and  C_15
REMARK    5  A    between atoms: N_18  and  C_19
REMARK    6  A    between atoms: C_20  and  C_21
REMARK                            x       y       z     vdW  Elec       q    Type
REMARK                         _______ _______ _______ _____ _____    ______ ____
ROOT
ATOM      1  C   UNL     1       2.797   5.589  18.783  0.00  0.00    +0.000 C 
ATOM      2  O   UNL     1       1.717   5.265  18.284  0.00  0.00    +0.000 OA
ATOM      3  N   UNL     1       3.232   6.890  18.927  0.00  0.00    +0.000 N 
ATOM      4  H   UNL     1       4.191   7.095  19.174  0.00  0.00    +0.000 HD
ENDROOT
BRANCH   1  13
ATOM      5  C   UNL     1       6.489   4.470  14.883  0.00  0.00    +0.000 A 
ATOM      6  C   UNL     1       7.275   5.132  15.828  0.00  0.00    +0.000 A 
ATOM      7  C   UNL     1       6.881   5.189  17.164  0.00  0.00    +0.000 A 
ATOM      8  C   UNL     1       5.684   4.588  17.573  0.00  0.00    +0.000 A 
ATOM      9  C   UNL     1       4.904   3.890  16.634  0.00  0.00    +0.000 A 
ATOM     10  C   UNL     1       5.308   3.851  15.290  0.00  0.00    +0.000 A 
ATOM     11  C   UNL     1       3.595   3.234  17.007  0.00  0.00    +0.000 C 
ATOM     12  C   UNL     1       3.362   3.156  18.512  0.00  0.00    +0.000 C 
ATOM     13  C   UNL     1       3.757   4.465  19.203  0.00  0.00    +0.000 C 
ATOM     14  C   UNL     1       5.255   4.704  19.015  0.00  0.00    +0.000 C 
BRANCH   5  16
ATOM     15  C   UNL     1       6.344   3.640  12.665  0.00  0.00    +0.000 C 
ATOM     16  O   UNL     1       6.973   4.504  13.604  0.00  0.00    +0.000 OA
ENDBRANCH   5  16
ENDBRANCH   1  13
BRANCH   3  17
ATOM     17  C   UNL     1       2.410   7.976  18.693  0.00  0.00    +0.000 A 
ATOM     18  N   UNL     1       2.394   8.673  17.519  0.00  0.00    +0.000 NA
ATOM     19  N   UNL     1       1.474   9.621  17.608  0.00  0.00    +0.000 NA
ATOM     20  N   UNL     1       0.914   9.524  18.821  0.00  0.00    +0.000 N 
ATOM     21  C   UNL     1      -0.138  10.445  19.174  0.00  0.00    +0.000 C 
ATOM     22  C   UNL     1       1.486   8.519  19.559  0.00  0.00    +0.000 A 
BRANCH  22  23
ATOM     23  C   UNL     1       1.139   8.227  20.954  0.00  0.00    +0.000 C 
ATOM     24  F   UNL     1       1.338   6.921  21.266  0.00  0.00    +0.000 F 
ATOM     25  F   UNL     1       1.923   8.941  21.804  0.00  0.00    +0.000 F 
ENDBRANCH  22  23
ENDBRANCH   3  17
TORSDOF 4
ENDMDL
MODEL 5
REMARK VINA RESULT:      -7.4      4.038      6.989
REMARK  Name = 
REMARK  6 active torsions:
REMARK  status: ('A' for Active; 'I' for Inactive)
REMARK    1  A    between atoms: C_1  and  O_2
REMARK    2  A    between atoms: O_2  and  C_3
REMARK    3  A    between atoms: C_11  and  C_12
REMARK    4  A    between atoms: N_14  and  C_15
REMARK    5  A    between atoms: N_18  and  C_19
REMARK    6  A    between atoms: C_20  and  C_21
REMARK                            x       y       z     vdW  Elec       q    Type
REMARK                         _______ _______ _______ _____ _____    ______ ____
ROOT
ATOM      1  C   UNL     1       7.461   5.326  16.780  0.00  0.00    +0.000 C 
ATOM      2  O   UNL     1       8.017   4.227  16.855  0.00  0.00    +0.000 OA
ATOM      3  N   UNL     1       7.098   5.937  15.598  0.00  0.00    +0.000 N 
ATOM      4  H   UNL     1       6.812   6.908  15.579  0.00  0.00    +0.000 HD
ENDROOT
BRANCH   1  13
ATOM      5  C   UNL     1       2.468   4.407  18.858  0.00  0.00    +0.000 A 
ATOM      6  C   UNL     1       3.274   3.687  19.742  0.00  0.00    +0.000 A 
ATOM      7  C   UNL     1       4.625   4.000  19.887  0.00  0.00    +0.000 A 
ATOM      8  C   UNL     1       5.192   5.039  19.140  0.00  0.00    +0.000 A 
ATOM      9  C   UNL     1       4.380   5.793  18.274  0.00  0.00    +0.000 A 
ATOM     10  C   UNL     1       3.024   5.457  18.130  0.00  0.00    +0.000 A 
ATOM     11  C   UNL     1       4.934   6.915  17.428  0.00  0.00    +0.000 C 
ATOM     12  C   UNL     1       6.350   7.327  17.816  0.00  0.00    +0.000 C 
ATOM     13  C   UNL     1       7.228   6.101  18.086  0.00  0.00    +0.000 C 
ATOM     14  C   UNL     1       6.667   5.329  19.279  0.00  0.00    +0.000 C 
BRANCH   5  16
ATOM     15  C   UNL     1       0.955   2.582  18.779  0.00  0.00    +0.000 C 
ATOM     16  O   UNL     1       1.168   3.989  18.791  0.00  0.00    +0.000 OA
ENDBRANCH   5  16
ENDBRANCH   1  13
BRANCH   3  17
ATOM     17  C   UNL     1       7.154   5.288  14.380  0.00  0.00    +0.000 A 
ATOM     18  N   UNL     1       8.009   5.637  13.375  0.00  0.00    +0.000 NA
ATOM     19  N   UNL     1       7.836   4.796  12.367  0.00  0.00    +0.000 NA
ATOM     20  N   UNL     1       6.884   3.926  12.729  0.00  0.00    +0.000 N 
ATOM     21  C   UNL     1       6.509   2.885  11.805  0.00  0.00    +0.000 C 
ATOM     22  C   UNL     1       6.399   4.206  13.981  0.00  0.00    +0.000 A 
BRANCH  22  23
ATOM     23  C   UNL     1       5.295   3.476  14.614  0.00  0.00    +0.000 C 
ATOM     24  F   UNL     1       5.728   2.652  15.602  0.00  0.00    +0.000 F 
ATOM     25  F   UNL     1       4.422   4.339  15.199  0.00  0.00    +0.000 F 
ENDBRANCH  22  23
ENDBRANCH   3  17
TORSDOF 4
ENDMDL
MODEL 6
REMARK VINA RESULT:      -7.0      2.495      3.285
REMARK  Name = 
REMARK  6 active torsions:
REMARK  status: ('A' for Active; 'I' for Inactive)
REMARK    1  A    between atoms: C_1  and  O_2
REMARK    2  A    between atoms: O_2  and  C_3
REMARK    3  A    between atoms: C_11  and  C_12
REMARK    4  A    between atoms: N_14  and  C_15
REMARK    5  A    between atoms: N_18  and  C_19
REMARK    6  A    between atoms: C_20  and  C_21
REMARK                            x       y       z     vdW  Elec       q    Type
REMARK                         _______ _______ _______ _____ _____    ______ ____
ROOT
ATOM      1  C   UNL     1       3.004   6.662  19.151  0.00  0.00    +0.000 C 
ATOM      2  O   UNL     1       3.467   7.109  18.099  0.00  0.00    +0.000 OA
ATOM      3  N   UNL     1       2.139   7.348  19.977  0.00  0.00    +0.000 N 
ATOM      4  H   UNL     1       1.931   7.013  20.909  0.00  0.00    +0.000 HD
ENDROOT
BRANCH   1  13
ATOM      5  C   UNL     1       6.365   4.323  15.501  0.00  0.00    +0.000 A 
ATOM      6  C   UNL     1       7.258   4.676  16.514  0.00  0.00    +0.000 A 
ATOM      7  C   UNL     1       6.809   4.870  17.820  0.00  0.00    +0.000 A 
ATOM      8  C   UNL     1       5.452   4.721  18.128  0.00  0.00    +0.000 A 
ATOM      9  C   UNL     1       4.552   4.331  17.121  0.00  0.00    +0.000 A 
ATOM     10  C   UNL     1       5.017   4.151  15.809  0.00  0.00    +0.000 A 
ATOM     11  C   UNL     1       3.073   4.170  17.384  0.00  0.00    +0.000 C 
ATOM     12  C   UNL     1       2.715   4.182  18.867  0.00  0.00    +0.000 C 
ATOM     13  C   UNL     1       3.484   5.277  19.613  0.00  0.00    +0.000 C 
ATOM     14  C   UNL     1       4.982   4.983  19.538  0.00  0.00    +0.000 C 
BRANCH   5  16
ATOM     15  C   UNL     1       6.068   3.715  13.227  0.00  0.00    +0.000 C 
ATOM     16  O   UNL     1       6.926   4.183  14.261  0.00  0.00    +0.000 OA
ENDBRANCH   5  16
ENDBRANCH   1  13
BRANCH   3  17
ATOM     17  C   UNL     1       1.555   8.545  19.608  0.00  0.00    +0.000 A 
ATOM     18  N   UNL     1       1.802   9.173  18.422  0.00  0.00    +0.000 NA
ATOM     19  N   UNL     1       1.058  10.267  18.365  0.00  0.00    +0.000 NA
ATOM     20  N   UNL     1       0.348  10.329  19.499  0.00  0.00    +0.000 N 
ATOM     21  C   UNL     1      -0.562  11.432  19.687  0.00  0.00    +0.000 C 
ATOM     22  C   UNL     1       0.642   9.280  20.332  0.00  0.00    +0.000 A 
BRANCH  22  23
ATOM     23  C   UNL     1       0.084   9.123  21.680  0.00  0.00    +0.000 C 
ATOM     24  F   UNL     1      -0.743   8.050  21.767  0.00  0.00    +0.000 F 
ATOM     25  F   UNL     1       1.072   8.912  22.589  0.00  0.00    +0.000 F 
ENDBRANCH  22  23
ENDBRANCH   3  17
TORSDOF 4
ENDMDL
MODEL 7
REMARK VINA RESULT:      -6.9      3.152      4.825
REMARK  Name = 
REMARK  6 active torsions:
REMARK  status: ('A' for Active; 'I' for Inactive)
REMARK    1  A    between atoms: C_1  and  O_2
REMARK    2  A    between atoms: O_2  and  C_3
REMARK    3  A    between atoms: C_11  and  C_12
REMARK    4  A    between atoms: N_14  and  C_15
REMARK    5  A    between atoms: N_18  and  C_19
REMARK    6  A    between atoms: C_20  and  C_21
REMARK                            x       y       z     vdW  Elec       q    Type
REMARK                         _______ _______ _______ _____ _____    ______ ____
ROOT
ATOM      1  C   UNL     1       5.338   5.320  19.210  0.00  0.00    +0.000 C 
ATOM      2  O   UNL     1       5.752   4.449  19.978  0.00  0.00    +0.000 OA
ATOM      3  N   UNL     1       4.023   5.454  18.817  0.00  0.00    +0.000 N 
ATOM      4  H   UNL     1       3.765   6.065  18.053  0.00  0.00    +0.000 HD
ENDROOT
BRANCH   1  13
ATOM      5  C   UNL     1       6.295   4.156  13.935  0.00  0.00    +0.000 A 
ATOM      6  C   UNL     1       5.543   5.328  13.829  0.00  0.00    +0.000 A 
ATOM      7  C   UNL     1       5.473   6.224  14.894  0.00  0.00    +0.000 A 
ATOM      8  C   UNL     1       6.151   5.956  16.089  0.00  0.00    +0.000 A 
ATOM      9  C   UNL     1       6.939   4.795  16.192  0.00  0.00    +0.000 A 
ATOM     10  C   UNL     1       6.990   3.896  15.115  0.00  0.00    +0.000 A 
ATOM     11  C   UNL     1       7.681   4.439  17.459  0.00  0.00    +0.000 C 
ATOM     12  C   UNL     1       7.728   5.575  18.475  0.00  0.00    +0.000 C 
ATOM     13  C   UNL     1       6.369   6.274  18.586  0.00  0.00    +0.000 C 
ATOM     14  C   UNL     1       6.021   6.917  17.245  0.00  0.00    +0.000 C 
BRANCH   5  16
ATOM     15  C   UNL     1       5.040   3.305  12.111  0.00  0.00    +0.000 C 
ATOM     16  O   UNL     1       6.266   3.351  12.831  0.00  0.00    +0.000 OA
ENDBRANCH   5  16
ENDBRANCH   1  13
BRANCH   3  17
ATOM     17  C   UNL     1       2.999   4.731  19.399  0.00  0.00    +0.000 A 
ATOM     18  N   UNL     1       2.432   5.053  20.599  0.00  0.00    +0.000 NA
ATOM     19  N   UNL     1       1.461   4.189  20.848  0.00  0.00    +0.000 NA
ATOM     20  N   UNL     1       1.412   3.332  19.820  0.00  0.00    +0.000 N 
ATOM     21  C   UNL     1       0.421   2.285  19.837  0.00  0.00    +0.000 C 
ATOM     22  C   UNL     1       2.379   3.612  18.888  0.00  0.00    +0.000 A 
BRANCH  22  23
ATOM     23  C   UNL     1       2.624   2.797  17.693  0.00  0.00    +0.000 C 
ATOM     24  F   UNL     1       3.334   3.473  16.753  0.00  0.00    +0.000 F 
ATOM     25  F   UNL     1       3.362   1.698  18.003  0.00  0.00    +0.000 F 
ENDBRANCH  22  23
ENDBRANCH   3  17
TORSDOF 4
ENDMDL
MODEL 8
REMARK VINA RESULT:      -6.9      2.160      4.720
REMARK  Name = 
REMARK  6 active torsions:
REMARK  status: ('A' for Active; 'I' for Inactive)
REMARK    1  A    between atoms: C_1  and  O_2
REMARK    2  A    between atoms: O_2  and  C_3
REMARK    3  A    between atoms: C_11  and  C_12
REMARK    4  A    between atoms: N_14  and  C_15
REMARK    5  A    between atoms: N_18  and  C_19
REMARK    6  A    between atoms: C_20  and  C_21
REMARK                            x       y       z     vdW  Elec       q    Type
REMARK                         _______ _______ _______ _____ _____    ______ ____
ROOT
ATOM      1  C   UNL     1       4.654   6.850  17.301  0.00  0.00    +0.000 C 
ATOM      2  O   UNL     1       5.388   7.836  17.405  0.00  0.00    +0.000 OA
ATOM      3  N   UNL     1       3.328   6.822  17.677  0.00  0.00    +0.000 N 
ATOM      4  H   UNL     1       2.821   5.948  17.740  0.00  0.00    +0.000 HD
ENDROOT
BRANCH   1  13
ATOM      5  C   UNL     1       2.440   2.437  19.690  0.00  0.00    +0.000 A 
ATOM      6  C   UNL     1       1.892   2.363  18.408  0.00  0.00    +0.000 A 
ATOM      7  C   UNL     1       2.517   2.992  17.332  0.00  0.00    +0.000 A 
ATOM      8  C   UNL     1       3.700   3.713  17.527  0.00  0.00    +0.000 A 
ATOM      9  C   UNL     1       4.277   3.763  18.809  0.00  0.00    +0.000 A 
ATOM     10  C   UNL     1       3.630   3.135  19.884  0.00  0.00    +0.000 A 
ATOM     11  C   UNL     1       5.544   4.538  19.089  0.00  0.00    +0.000 C 
ATOM     12  C   UNL     1       6.267   4.997  17.827  0.00  0.00    +0.000 C 
ATOM     13  C   UNL     1       5.280   5.542  16.791  0.00  0.00    +0.000 C 
ATOM     14  C   UNL     1       4.333   4.425  16.357  0.00  0.00    +0.000 C 
BRANCH   5  16
ATOM     15  C   UNL     1       1.495   2.523  21.865  0.00  0.00    +0.000 C 
ATOM     16  O   UNL     1       1.721   1.797  20.662  0.00  0.00    +0.000 OA
ENDBRANCH   5  16
ENDBRANCH   1  13
BRANCH   3  17
ATOM     17  C   UNL     1       2.634   7.962  18.037  0.00  0.00    +0.000 A 
ATOM     18  N   UNL     1       2.473   9.040  17.216  0.00  0.00    +0.000 NA
ATOM     19  N   UNL     1       1.733   9.938  17.846  0.00  0.00    +0.000 NA
ATOM     20  N   UNL     1       1.427   9.435  19.048  0.00  0.00    +0.000 N 
ATOM     21  C   UNL     1       0.608  10.218  19.940  0.00  0.00    +0.000 C 
ATOM     22  C   UNL     1       1.993   8.199  19.233  0.00  0.00    +0.000 A 
BRANCH  22  23
ATOM     23  C   UNL     1       1.904   7.436  20.483  0.00  0.00    +0.000 C 
ATOM     24  F   UNL     1       0.683   7.552  21.064  0.00  0.00    +0.000 F 
ATOM     25  F   UNL     1       2.085   6.109  20.249  0.00  0.00    +0.000 F 
ENDBRANCH  22  23
ENDBRANCH   3  17
TORSDOF 4
ENDMDL
MODEL 9
REMARK VINA RESULT:      -6.9      2.022      2.581
REMARK  Name = 
REMARK  6 active torsions:
REMARK  status: ('A' for Active; 'I' for Inactive)
REMARK    1  A    between atoms: C_1  and  O_2
REMARK    2  A    between atoms: O_2  and  C_3
REMARK    3  A    between atoms: C_11  and  C_12
REMARK    4  A    between atoms: N_14  and  C_15
REMARK    5  A    between atoms: N_18  and  C_19
REMARK    6  A    between atoms: C_20  and  C_21
REMARK                            x       y       z     vdW  Elec       q    Type
REMARK                         _______ _______ _______ _____ _____    ______ ____
ROOT
ATOM      1  C   UNL     1       1.516   5.131  20.645  0.00  0.00    +0.000 C 
ATOM      2  O   UNL     1       0.296   5.123  20.466  0.00  0.00    +0.000 OA
ATOM      3  N   UNL     1       2.302   6.264  20.614  0.00  0.00    +0.000 N 
ATOM      4  H   UNL     1       3.311   6.198  20.588  0.00  0.00    +0.000 HD
ENDROOT
BRANCH   1  13
ATOM      5  C   UNL     1       4.959   3.991  16.530  0.00  0.00    +0.000 A 
ATOM      6  C   UNL     1       5.849   4.300  17.559  0.00  0.00    +0.000 A 
ATOM      7  C   UNL     1       5.455   4.199  18.893  0.00  0.00    +0.000 A 
ATOM      8  C   UNL     1       4.155   3.793  19.215  0.00  0.00    +0.000 A 
ATOM      9  C   UNL     1       3.263   3.446  18.185  0.00  0.00    +0.000 A 
ATOM     10  C   UNL     1       3.671   3.564  16.847  0.00  0.00    +0.000 A 
ATOM     11  C   UNL     1       1.841   3.016  18.465  0.00  0.00    +0.000 C 
ATOM     12  C   UNL     1       1.575   2.721  19.938  0.00  0.00    +0.000 C 
ATOM     13  C   UNL     1       2.219   3.779  20.839  0.00  0.00    +0.000 C 
ATOM     14  C   UNL     1       3.737   3.737  20.664  0.00  0.00    +0.000 C 
BRANCH   5  16
ATOM     15  C   UNL     1       5.683   5.489  14.839  0.00  0.00    +0.000 C 
ATOM     16  O   UNL     1       5.459   4.151  15.267  0.00  0.00    +0.000 OA
ENDBRANCH   5  16
ENDBRANCH   1  13
BRANCH   3  17
ATOM     17  C   UNL     1       1.767   7.537  20.564  0.00  0.00    +0.000 A 
ATOM     18  N   UNL     1       1.160   8.145  21.624  0.00  0.00    +0.000 NA
ATOM     19  N   UNL     1       0.796   9.363  21.256  0.00  0.00    +0.000 NA
ATOM     20  N   UNL     1       1.170   9.525  19.980  0.00  0.00    +0.000 N 
ATOM     21  C   UNL     1       0.898  10.785  19.334  0.00  0.00    +0.000 C 
ATOM     22  C   UNL     1       1.763   8.393  19.484  0.00  0.00    +0.000 A 
BRANCH  22  23
ATOM     23  C   UNL     1       2.202   8.241  18.093  0.00  0.00    +0.000 C 
ATOM     24  F   UNL     1       2.704   7.003  17.849  0.00  0.00    +0.000 F 
ATOM     25  F   UNL     1       1.156   8.397  17.239  0.00  0.00    +0.000 F 
ENDBRANCH  22  23
ENDBRANCH   3  17
TORSDOF 4
ENDMDL
