MODEL 1
REMARK VINA RESULT:      -6.6      0.000      0.000
REMARK  Name = 
REMARK  11 active torsions:
REMARK  status: ('A' for Active; 'I' for Inactive)
REMARK    1  A    between atoms: C_1  and  C_2
REMARK    2  A    between atoms: C_4  and  S_5
REMARK    3  A    between atoms: S_5  and  C_6
REMARK    4  A    between atoms: C_6  and  C_7
REMARK    5  A    between atoms: N_9  and  C_10
REMARK    6  A    between atoms: C_10  and  C_11
REMARK    7  A    between atoms: N_17  and  C_18
REMARK    8  A    between atoms: C_18  and  C_19
REMARK    9  A    between atoms: C_19  and  C_20
REMARK   10  A    between atoms: C_19  and  C_21
REMARK   11  A    between atoms: C_22  and  C_23
REMARK                            x       y       z     vdW  Elec       q    Type
REMARK                         _______ _______ _______ _____ _____    ______ ____
ROOT
ATOM      1  S   UNL     1       9.126   9.989  19.386  0.00  0.00    +0.000 S 
ENDROOT
BRANCH   1   5
ATOM      2  C   UNL     1      11.570  13.507  16.449  0.00  0.00    +0.000 C 
ATOM      3  C   UNL     1      11.101  12.813  17.673  0.00  0.00    +0.000 A 
ATOM      4  N   UNL     1      10.342  11.667  17.620  0.00  0.00    +0.000 NA
ATOM      5  C   UNL     1      10.063  11.366  18.870  0.00  0.00    +0.000 A 
ATOM      6  N   UNL     1      10.607  12.291  19.745  0.00  0.00    +0.000 N 
ATOM      7  C   UNL     1      11.325  13.195  18.984  0.00  0.00    +0.000 A 
ATOM      8  C   UNL     1      12.130  14.341  19.488  0.00  0.00    +0.000 C 
BRANCH   6   9
ATOM      9  C   UNL     1      10.340  12.409  21.170  0.00  0.00    +0.000 C 
BRANCH   9  10
ATOM     10  C   UNL     1       9.075  13.199  21.546  0.00  0.00    +0.000 C 
ATOM     11  C   UNL     1       8.130  12.424  22.468  0.00  0.00    +0.000 C 
ATOM     12  C   UNL     1       9.476  14.509  22.234  0.00  0.00    +0.000 C 
ENDBRANCH   9  10
ENDBRANCH   6   9
ENDBRANCH   1   5
BRANCH   1  13
ATOM     13  C   UNL     1       8.344   9.452  17.831  0.00  0.00    +0.000 C 
BRANCH  13  14
ATOM     14  C   UNL     1       7.873   7.997  17.907  0.00  0.00    +0.000 C 
ATOM     15  O   UNL     1       8.381   7.188  18.681  0.00  0.00    +0.000 OA
ATOM     16  N   UNL     1       6.779   7.680  17.126  0.00  0.00    +0.000 N 
ATOM     17  H   UNL     1       6.503   8.369  16.436  0.00  0.00    +0.000 HD
BRANCH  16  18
ATOM     18  C   UNL     1       6.101   6.368  17.095  0.00  0.00    +0.000 C 
ATOM     19  C   UNL     1       4.639   6.436  16.571  0.00  0.00    +0.000 C 
ATOM     20  C   UNL     1       3.759   5.796  17.648  0.00  0.00    +0.000 C 
ATOM     21  C   UNL     1       4.699   4.895  18.429  0.00  0.00    +0.000 C 
ATOM     22  C   UNL     1       5.988   5.706  18.489  0.00  0.00    +0.000 C 
BRANCH  18  23
ATOM     23  C   UNL     1       6.882   5.460  16.202  0.00  0.00    +0.000 C 
ATOM     24  N   UNL     1       7.513   4.777  15.503  0.00  0.00    +0.000 NA
ENDBRANCH  18  23
ENDBRANCH  16  18
ENDBRANCH  13  14
ENDBRANCH   1  13
TORSDOF 7
ENDMDL
MODEL 2
REMARK VINA RESULT:      -6.6      1.957      8.430
REMARK  Name = 
REMARK  11 active torsions:
REMARK  status: ('A' for Active; 'I' for Inactive)
REMARK    1  A    between atoms: C_1  and  C_2
REMARK    2  A    between atoms: C_4  and  S_5
REMARK    3  A    between atoms: S_5  and  C_6
REMARK    4  A    between atoms: C_6  and  C_7
REMARK    5  A    between atoms: N_9  and  C_10
REMARK    6  A    between atoms: C_10  and  C_11
REMARK    7  A    between atoms: N_17  and  C_18
REMARK    8  A    between atoms: C_18  and  C_19
REMARK    9  A    between atoms: C_19  and  C_20
REMARK   10  A    between atoms: C_19  and  C_21
REMARK   11  A    between atoms: C_22  and  C_23
REMARK                            x       y       z     vdW  Elec       q    Type
REMARK                         _______ _______ _______ _____ _____    ______ ____
ROOT
ATOM      1  S   UNL     1       7.821   6.805  18.442  0.00  0.00    +0.000 S 
ENDROOT
BRANCH   1   5
ATOM      2  C   UNL     1       6.494   4.298  14.091  0.00  0.00    +0.000 C 
ATOM      3  C   UNL     1       6.418   4.763  15.497  0.00  0.00    +0.000 A 
ATOM      4  N   UNL     1       7.332   5.643  16.028  0.00  0.00    +0.000 NA
ATOM      5  C   UNL     1       6.997   5.785  17.293  0.00  0.00    +0.000 A 
ATOM      6  N   UNL     1       5.895   5.010  17.613  0.00  0.00    +0.000 N 
ATOM      7  C   UNL     1       5.482   4.392  16.446  0.00  0.00    +0.000 A 
ATOM      8  C   UNL     1       4.302   3.501  16.282  0.00  0.00    +0.000 C 
BRANCH   6   9
ATOM      9  C   UNL     1       5.368   4.745  18.942  0.00  0.00    +0.000 C 
BRANCH   9  10
ATOM     10  C   UNL     1       4.209   5.652  19.391  0.00  0.00    +0.000 C 
ATOM     11  C   UNL     1       3.625   6.494  18.254  0.00  0.00    +0.000 C 
ATOM     12  C   UNL     1       3.093   4.793  19.997  0.00  0.00    +0.000 C 
ENDBRANCH   9  10
ENDBRANCH   6   9
ENDBRANCH   1   5
BRANCH   1  13
ATOM     13  C   UNL     1       7.719   8.440  17.645  0.00  0.00    +0.000 C 
BRANCH  13  14
ATOM     14  C   UNL     1       8.565   9.483  18.383  0.00  0.00    +0.000 C 
ATOM     15  O   UNL     1       9.296   9.181  19.324  0.00  0.00    +0.000 OA
ATOM     16  N   UNL     1       8.531  10.760  17.859  0.00  0.00    +0.000 N 
ATOM     17  H   UNL     1       7.816  10.944  17.164  0.00  0.00    +0.000 HD
BRANCH  16  18
ATOM     18  C   UNL     1       9.322  11.907  18.350  0.00  0.00    +0.000 C 
ATOM     19  C   UNL     1      10.744  11.993  17.728  0.00  0.00    +0.000 C 
ATOM     20  C   UNL     1      11.730  12.035  18.899  0.00  0.00    +0.000 C 
ATOM     21  C   UNL     1      10.915  12.549  20.072  0.00  0.00    +0.000 C 
ATOM     22  C   UNL     1       9.562  11.873  19.878  0.00  0.00    +0.000 C 
BRANCH  18  23
ATOM     23  C   UNL     1       8.582  13.162  18.015  0.00  0.00    +0.000 C 
ATOM     24  N   UNL     1       7.982  14.120  17.743  0.00  0.00    +0.000 NA
ENDBRANCH  18  23
ENDBRANCH  16  18
ENDBRANCH  13  14
ENDBRANCH   1  13
TORSDOF 7
ENDMDL
MODEL 3
REMARK VINA RESULT:      -6.6      5.897      8.697
REMARK  Name = 
REMARK  11 active torsions:
REMARK  status: ('A' for Active; 'I' for Inactive)
REMARK    1  A    between atoms: C_1  and  C_2
REMARK    2  A    between atoms: C_4  and  S_5
REMARK    3  A    between atoms: S_5  and  C_6
REMARK    4  A    between atoms: C_6  and  C_7
REMARK    5  A    between atoms: N_9  and  C_10
REMARK    6  A    between atoms: C_10  and  C_11
REMARK    7  A    between atoms: N_17  and  C_18
REMARK    8  A    between atoms: C_18  and  C_19
REMARK    9  A    between atoms: C_19  and  C_20
REMARK   10  A    between atoms: C_19  and  C_21
REMARK   11  A    between atoms: C_22  and  C_23
REMARK                            x       y       z     vdW  Elec       q    Type
REMARK                         _______ _______ _______ _____ _____    ______ ____
ROOT
ATOM      1  S   UNL     1       2.306   3.084  17.547  0.00  0.00    +0.000 S 
ENDROOT
BRANCH   1   5
ATOM      2  C   UNL     1       2.931   8.219  18.024  0.00  0.00    +0.000 C 
ATOM      3  C   UNL     1       2.541   6.834  18.384  0.00  0.00    +0.000 A 
ATOM      4  N   UNL     1       2.793   5.764  17.557  0.00  0.00    +0.000 NA
ATOM      5  C   UNL     1       2.268   4.718  18.157  0.00  0.00    +0.000 A 
ATOM      6  N   UNL     1       1.663   5.072  19.352  0.00  0.00    +0.000 N 
ATOM      7  C   UNL     1       1.885   6.425  19.532  0.00  0.00    +0.000 A 
ATOM      8  C   UNL     1       1.470   7.247  20.700  0.00  0.00    +0.000 C 
BRANCH   6   9
ATOM      9  C   UNL     1       0.807   4.239  20.180  0.00  0.00    +0.000 C 
BRANCH   9  10
ATOM     10  C   UNL     1       1.513   3.492  21.326  0.00  0.00    +0.000 C 
ATOM     11  C   UNL     1       1.776   2.017  21.014  0.00  0.00    +0.000 C 
ATOM     12  C   UNL     1       2.847   4.180  21.638  0.00  0.00    +0.000 C 
ENDBRANCH   9  10
ENDBRANCH   6   9
ENDBRANCH   1   5
BRANCH   1  13
ATOM     13  C   UNL     1       3.869   2.454  18.240  0.00  0.00    +0.000 C 
BRANCH  13  14
ATOM     14  C   UNL     1       4.922   3.560  18.359  0.00  0.00    +0.000 C 
ATOM     15  O   UNL     1       5.309   3.976  19.448  0.00  0.00    +0.000 OA
ATOM     16  N   UNL     1       5.479   3.986  17.169  0.00  0.00    +0.000 N 
ATOM     17  H   UNL     1       5.019   3.678  16.320  0.00  0.00    +0.000 HD
BRANCH  16  18
ATOM     18  C   UNL     1       6.563   4.980  17.040  0.00  0.00    +0.000 C 
ATOM     19  C   UNL     1       7.798   4.672  17.932  0.00  0.00    +0.000 C 
ATOM     20  C   UNL     1       8.046   5.923  18.781  0.00  0.00    +0.000 C 
ATOM     21  C   UNL     1       7.396   7.053  18.003  0.00  0.00    +0.000 C 
ATOM     22  C   UNL     1       6.132   6.409  17.447  0.00  0.00    +0.000 C 
BRANCH  18  23
ATOM     23  C   UNL     1       7.005   5.008  15.613  0.00  0.00    +0.000 C 
ATOM     24  N   UNL     1       7.371   5.005  14.509  0.00  0.00    +0.000 NA
ENDBRANCH  18  23
ENDBRANCH  16  18
ENDBRANCH  13  14
ENDBRANCH   1  13
TORSDOF 7
ENDMDL
MODEL 4
REMARK VINA RESULT:      -6.5      6.420      7.709
REMARK  Name = 
REMARK  11 active torsions:
REMARK  status: ('A' for Active; 'I' for Inactive)
REMARK    1  A    between atoms: C_1  and  C_2
REMARK    2  A    between atoms: C_4  and  S_5
REMARK    3  A    between atoms: S_5  and  C_6
REMARK    4  A    between atoms: C_6  and  C_7
REMARK    5  A    between atoms: N_9  and  C_10
REMARK    6  A    between atoms: C_10  and  C_11
REMARK    7  A    between atoms: N_17  and  C_18
REMARK    8  A    between atoms: C_18  and  C_19
REMARK    9  A    between atoms: C_19  and  C_20
REMARK   10  A    between atoms: C_19  and  C_21
REMARK   11  A    between atoms: C_22  and  C_23
REMARK                            x       y       z     vdW  Elec       q    Type
REMARK                         _______ _______ _______ _____ _____    ______ ____
ROOT
ATOM      1  S   UNL     1       0.838   9.364  18.068  0.00  0.00    +0.000 S 
ENDROOT
BRANCH   1   5
ATOM      2  C   UNL     1       3.182  13.964  18.640  0.00  0.00    +0.000 C 
ATOM      3  C   UNL     1       2.299  12.814  18.951  0.00  0.00    +0.000 A 
ATOM      4  N   UNL     1       2.233  11.702  18.144  0.00  0.00    +0.000 NA
ATOM      5  C   UNL     1       1.321  10.923  18.684  0.00  0.00    +0.000 A 
ATOM      6  N   UNL     1       0.773  11.498  19.818  0.00  0.00    +0.000 N 
ATOM      7  C   UNL     1       1.439  12.692  20.028  0.00  0.00    +0.000 A 
ATOM      8  C   UNL     1       1.234  13.638  21.158  0.00  0.00    +0.000 C 
BRANCH   6   9
ATOM      9  C   UNL     1      -0.394  11.040  20.555  0.00  0.00    +0.000 C 
BRANCH   9  10
ATOM     10  C   UNL     1      -0.100  10.313  21.879  0.00  0.00    +0.000 C 
ATOM     11  C   UNL     1      -1.005  10.763  23.030  0.00  0.00    +0.000 C 
ATOM     12  C   UNL     1      -0.266   8.802  21.680  0.00  0.00    +0.000 C 
ENDBRANCH   9  10
ENDBRANCH   6   9
ENDBRANCH   1   5
BRANCH   1  13
ATOM     13  C   UNL     1       2.436   8.502  17.913  0.00  0.00    +0.000 C 
BRANCH  13  14
ATOM     14  C   UNL     1       2.494   7.256  18.802  0.00  0.00    +0.000 C 
ATOM     15  O   UNL     1       2.372   7.320  20.023  0.00  0.00    +0.000 OA
ATOM     16  N   UNL     1       2.592   6.050  18.136  0.00  0.00    +0.000 N 
ATOM     17  H   UNL     1       2.807   6.098  17.146  0.00  0.00    +0.000 HD
BRANCH  16  18
ATOM     18  C   UNL     1       2.585   4.717  18.773  0.00  0.00    +0.000 C 
ATOM     19  C   UNL     1       1.997   3.599  17.867  0.00  0.00    +0.000 C 
ATOM     20  C   UNL     1       0.873   2.935  18.668  0.00  0.00    +0.000 C 
ATOM     21  C   UNL     1       1.201   3.237  20.118  0.00  0.00    +0.000 C 
ATOM     22  C   UNL     1       1.735   4.664  20.065  0.00  0.00    +0.000 C 
BRANCH  18  23
ATOM     23  C   UNL     1       3.993   4.357  19.118  0.00  0.00    +0.000 C 
ATOM     24  N   UNL     1       5.100   4.100  19.366  0.00  0.00    +0.000 NA
ENDBRANCH  18  23
ENDBRANCH  16  18
ENDBRANCH  13  14
ENDBRANCH   1  13
TORSDOF 7
ENDMDL
MODEL 5
REMARK VINA RESULT:      -6.5      1.007      1.828
REMARK  Name = 
REMARK  11 active torsions:
REMARK  status: ('A' for Active; 'I' for Inactive)
REMARK    1  A    between atoms: C_1  and  C_2
REMARK    2  A    between atoms: C_4  and  S_5
REMARK    3  A    between atoms: S_5  and  C_6
REMARK    4  A    between atoms: C_6  and  C_7
REMARK    5  A    between atoms: N_9  and  C_10
REMARK    6  A    between atoms: C_10  and  C_11
REMARK    7  A    between atoms: N_17  and  C_18
REMARK    8  A    between atoms: C_18  and  C_19
REMARK    9  A    between atoms: C_19  and  C_20
REMARK   10  A    between atoms: C_19  and  C_21
REMARK   11  A    between atoms: C_22  and  C_23
REMARK                            x       y       z     vdW  Elec       q    Type
REMARK                         _______ _______ _______ _____ _____    ______ ____
ROOT
ATOM      1  S   UNL     1       9.100   9.873  19.409  0.00  0.00    +0.000 S 
ENDROOT
BRANCH   1   5
ATOM      2  C   UNL     1      11.541  13.407  16.488  0.00  0.00    +0.000 C 
ATOM      3  C   UNL     1      11.054  12.720  17.708  0.00  0.00    +0.000 A 
ATOM      4  N   UNL     1      10.324  11.555  17.652  0.00  0.00    +0.000 NA
ATOM      5  C   UNL     1      10.018  11.265  18.898  0.00  0.00    +0.000 A 
ATOM      6  N   UNL     1      10.513  12.216  19.774  0.00  0.00    +0.000 N 
ATOM      7  C   UNL     1      11.231  13.127  19.019  0.00  0.00    +0.000 A 
ATOM      8  C   UNL     1      11.992  14.299  19.527  0.00  0.00    +0.000 C 
BRANCH   6   9
ATOM      9  C   UNL     1      10.203  12.350  21.188  0.00  0.00    +0.000 C 
BRANCH   9  10
ATOM     10  C   UNL     1       8.787  12.855  21.513  0.00  0.00    +0.000 C 
ATOM     11  C   UNL     1       8.663  13.442  22.922  0.00  0.00    +0.000 C 
ATOM     12  C   UNL     1       8.379  13.924  20.493  0.00  0.00    +0.000 C 
ENDBRANCH   9  10
ENDBRANCH   6   9
ENDBRANCH   1   5
BRANCH   1  13
ATOM     13  C   UNL     1       8.264   9.378  17.868  0.00  0.00    +0.000 C 
BRANCH  13  14
ATOM     14  C   UNL     1       7.877   7.896  17.886  0.00  0.00    +0.000 C 
ATOM     15  O   UNL     1       8.345   7.110  18.707  0.00  0.00    +0.000 OA
ATOM     16  N   UNL     1       6.896   7.523  16.988  0.00  0.00    +0.000 N 
ATOM     17  H   UNL     1       6.656   8.202  16.275  0.00  0.00    +0.000 HD
BRANCH  16  18
ATOM     18  C   UNL     1       6.307   6.173  16.877  0.00  0.00    +0.000 C 
ATOM     19  C   UNL     1       7.343   5.070  16.523  0.00  0.00    +0.000 C 
ATOM     20  C   UNL     1       6.818   4.364  15.269  0.00  0.00    +0.000 C 
ATOM     21  C   UNL     1       5.324   4.631  15.273  0.00  0.00    +0.000 C 
ATOM     22  C   UNL     1       5.229   6.068  15.772  0.00  0.00    +0.000 C 
BRANCH  18  23
ATOM     23  C   UNL     1       5.677   5.829  18.186  0.00  0.00    +0.000 C 
ATOM     24  N   UNL     1       5.179   5.592  19.211  0.00  0.00    +0.000 NA
ENDBRANCH  18  23
ENDBRANCH  16  18
ENDBRANCH  13  14
ENDBRANCH   1  13
TORSDOF 7
ENDMDL
MODEL 6
REMARK VINA RESULT:      -6.5      7.941      9.745
REMARK  Name = 
REMARK  11 active torsions:
REMARK  status: ('A' for Active; 'I' for Inactive)
REMARK    1  A    between atoms: C_1  and  C_2
REMARK    2  A    between atoms: C_4  and  S_5
REMARK    3  A    between atoms: S_5  and  C_6
REMARK    4  A    between atoms: C_6  and  C_7
REMARK    5  A    between atoms: N_9  and  C_10
REMARK    6  A    between atoms: C_10  and  C_11
REMARK    7  A    between atoms: N_17  and  C_18
REMARK    8  A    between atoms: C_18  and  C_19
REMARK    9  A    between atoms: C_19  and  C_20
REMARK   10  A    between atoms: C_19  and  C_21
REMARK   11  A    between atoms: C_22  and  C_23
REMARK                            x       y       z     vdW  Elec       q    Type
REMARK                         _______ _______ _______ _____ _____    ______ ____
ROOT
ATOM      1  S   UNL     1       1.070   9.270  18.450  0.00  0.00    +0.000 S 
ENDROOT
BRANCH   1   5
ATOM      2  C   UNL     1      -0.848  11.839  22.536  0.00  0.00    +0.000 C 
ATOM      3  C   UNL     1      -0.737  11.341  21.144  0.00  0.00    +0.000 A 
ATOM      4  N   UNL     1       0.256  10.474  20.753  0.00  0.00    +0.000 NA
ATOM      5  C   UNL     1       0.085  10.294  19.461  0.00  0.00    +0.000 A 
ATOM      6  N   UNL     1      -0.987  11.031  18.987  0.00  0.00    +0.000 N 
ATOM      7  C   UNL     1      -1.557  11.664  20.077  0.00  0.00    +0.000 A 
ATOM      8  C   UNL     1      -2.769  12.527  20.071  0.00  0.00    +0.000 C 
BRANCH   6   9
ATOM      9  C   UNL     1      -1.351  11.251  17.596  0.00  0.00    +0.000 C 
BRANCH   9  10
ATOM     10  C   UNL     1      -2.139  10.112  16.926  0.00  0.00    +0.000 C 
ATOM     11  C   UNL     1      -3.316   9.615  17.770  0.00  0.00    +0.000 C 
ATOM     12  C   UNL     1      -2.668  10.587  15.568  0.00  0.00    +0.000 C 
ENDBRANCH   9  10
ENDBRANCH   6   9
ENDBRANCH   1   5
BRANCH   1  13
ATOM     13  C   UNL     1       1.923   8.227  19.675  0.00  0.00    +0.000 C 
BRANCH  13  14
ATOM     14  C   UNL     1       2.214   6.828  19.123  0.00  0.00    +0.000 C 
ATOM     15  O   UNL     1       2.594   6.650  17.968  0.00  0.00    +0.000 OA
ATOM     16  N   UNL     1       2.118   5.794  20.033  0.00  0.00    +0.000 N 
ATOM     17  H   UNL     1       1.686   6.014  20.923  0.00  0.00    +0.000 HD
BRANCH  16  18
ATOM     18  C   UNL     1       2.428   4.377  19.753  0.00  0.00    +0.000 C 
ATOM     19  C   UNL     1       3.859   4.153  19.189  0.00  0.00    +0.000 C 
ATOM     20  C   UNL     1       3.694   3.387  17.873  0.00  0.00    +0.000 C 
ATOM     21  C   UNL     1       2.344   2.702  17.991  0.00  0.00    +0.000 C 
ATOM     22  C   UNL     1       1.487   3.744  18.700  0.00  0.00    +0.000 C 
BRANCH  18  23
ATOM     23  C   UNL     1       2.296   3.609  21.028  0.00  0.00    +0.000 C 
ATOM     24  N   UNL     1       2.225   3.015  22.026  0.00  0.00    +0.000 NA
ENDBRANCH  18  23
ENDBRANCH  16  18
ENDBRANCH  13  14
ENDBRANCH   1  13
TORSDOF 7
ENDMDL
MODEL 7
REMARK VINA RESULT:      -6.4      7.518      9.806
REMARK  Name = 
REMARK  11 active torsions:
REMARK  status: ('A' for Active; 'I' for Inactive)
REMARK    1  A    between atoms: C_1  and  C_2
REMARK    2  A    between atoms: C_4  and  S_5
REMARK    3  A    between atoms: S_5  and  C_6
REMARK    4  A    between atoms: C_6  and  C_7
REMARK    5  A    between atoms: N_9  and  C_10
REMARK    6  A    between atoms: C_10  and  C_11
REMARK    7  A    between atoms: N_17  and  C_18
REMARK    8  A    between atoms: C_18  and  C_19
REMARK    9  A    between atoms: C_19  and  C_20
REMARK   10  A    between atoms: C_19  and  C_21
REMARK   11  A    between atoms: C_22  and  C_23
REMARK                            x       y       z     vdW  Elec       q    Type
REMARK                         _______ _______ _______ _____ _____    ______ ____
ROOT
ATOM      1  S   UNL     1       0.701   9.657  18.384  0.00  0.00    +0.000 S 
ENDROOT
BRANCH   1   5
ATOM      2  C   UNL     1      -0.956  12.204  22.596  0.00  0.00    +0.000 C 
ATOM      3  C   UNL     1      -0.943  11.697  21.203  0.00  0.00    +0.000 A 
ATOM      4  N   UNL     1       0.041  10.856  20.738  0.00  0.00    +0.000 NA
ATOM      5  C   UNL     1      -0.229  10.660  19.466  0.00  0.00    +0.000 A 
ATOM      6  N   UNL     1      -1.358  11.361  19.075  0.00  0.00    +0.000 N 
ATOM      7  C   UNL     1      -1.856  11.987  20.204  0.00  0.00    +0.000 A 
ATOM      8  C   UNL     1      -3.090  12.814  20.291  0.00  0.00    +0.000 C 
BRANCH   6   9
ATOM      9  C   UNL     1      -1.840  11.559  17.717  0.00  0.00    +0.000 C 
BRANCH   9  10
ATOM     10  C   UNL     1      -2.723  10.432  17.155  0.00  0.00    +0.000 C 
ATOM     11  C   UNL     1      -4.174  10.502  17.639  0.00  0.00    +0.000 C 
ATOM     12  C   UNL     1      -2.708  10.488  15.623  0.00  0.00    +0.000 C 
ENDBRANCH   9  10
ENDBRANCH   6   9
ENDBRANCH   1   5
BRANCH   1  13
ATOM     13  C   UNL     1       1.896   8.878  19.516  0.00  0.00    +0.000 C 
BRANCH  13  14
ATOM     14  C   UNL     1       2.189   7.428  19.119  0.00  0.00    +0.000 C 
ATOM     15  O   UNL     1       2.529   7.121  17.978  0.00  0.00    +0.000 OA
ATOM     16  N   UNL     1       2.145   6.505  20.145  0.00  0.00    +0.000 N 
ATOM     17  H   UNL     1       1.742   6.822  21.020  0.00  0.00    +0.000 HD
BRANCH  16  18
ATOM     18  C   UNL     1       2.467   5.069  20.019  0.00  0.00    +0.000 C 
ATOM     19  C   UNL     1       1.582   4.322  18.982  0.00  0.00    +0.000 C 
ATOM     20  C   UNL     1       0.949   3.139  19.720  0.00  0.00    +0.000 C 
ATOM     21  C   UNL     1       1.870   2.881  20.898  0.00  0.00    +0.000 C 
ATOM     22  C   UNL     1       2.273   4.283  21.338  0.00  0.00    +0.000 C 
BRANCH  18  23
ATOM     23  C   UNL     1       3.895   4.945  19.600  0.00  0.00    +0.000 C 
ATOM     24  N   UNL     1       5.009   4.819  19.288  0.00  0.00    +0.000 NA
ENDBRANCH  18  23
ENDBRANCH  16  18
ENDBRANCH  13  14
ENDBRANCH   1  13
TORSDOF 7
ENDMDL
MODEL 8
REMARK VINA RESULT:      -6.4      7.118      8.606
REMARK  Name = 
REMARK  11 active torsions:
REMARK  status: ('A' for Active; 'I' for Inactive)
REMARK    1  A    between atoms: C_1  and  C_2
REMARK    2  A    between atoms: C_4  and  S_5
REMARK    3  A    between atoms: S_5  and  C_6
REMARK    4  A    between atoms: C_6  and  C_7
REMARK    5  A    between atoms: N_9  and  C_10
REMARK    6  A    between atoms: C_10  and  C_11
REMARK    7  A    between atoms: N_17  and  C_18
REMARK    8  A    between atoms: C_18  and  C_19
REMARK    9  A    between atoms: C_19  and  C_20
REMARK   10  A    between atoms: C_19  and  C_21
REMARK   11  A    between atoms: C_22  and  C_23
REMARK                            x       y       z     vdW  Elec       q    Type
REMARK                         _______ _______ _______ _____ _____    ______ ____
ROOT
ATOM      1  S   UNL     1       1.574   8.733  19.516  0.00  0.00    +0.000 S 
ENDROOT
BRANCH   1   5
ATOM      2  C   UNL     1      -2.269  11.212  17.054  0.00  0.00    +0.000 C 
ATOM      3  C   UNL     1      -1.272  10.909  18.108  0.00  0.00    +0.000 A 
ATOM      4  N   UNL     1      -0.385   9.863  17.998  0.00  0.00    +0.000 NA
ATOM      5  C   UNL     1       0.299   9.856  19.122  0.00  0.00    +0.000 A 
ATOM      6  N   UNL     1      -0.123  10.861  19.976  0.00  0.00    +0.000 N 
ATOM      7  C   UNL     1      -1.097  11.579  19.305  0.00  0.00    +0.000 A 
ATOM      8  C   UNL     1      -1.809  12.788  19.800  0.00  0.00    +0.000 C 
BRANCH   6   9
ATOM      9  C   UNL     1       0.245  11.035  21.372  0.00  0.00    +0.000 C 
BRANCH   9  10
ATOM     10  C   UNL     1      -0.683  10.353  22.394  0.00  0.00    +0.000 C 
ATOM     11  C   UNL     1       0.068   9.475  23.399  0.00  0.00    +0.000 C 
ATOM     12  C   UNL     1      -1.472  11.422  23.159  0.00  0.00    +0.000 C 
ENDBRANCH   9  10
ENDBRANCH   6   9
ENDBRANCH   1   5
BRANCH   1  13
ATOM     13  C   UNL     1       2.445   8.569  17.924  0.00  0.00    +0.000 C 
BRANCH  13  14
ATOM     14  C   UNL     1       3.189   7.233  17.822  0.00  0.00    +0.000 C 
ATOM     15  O   UNL     1       4.215   7.109  17.158  0.00  0.00    +0.000 OA
ATOM     16  N   UNL     1       2.689   6.209  18.602  0.00  0.00    +0.000 N 
ATOM     17  H   UNL     1       1.778   6.363  19.020  0.00  0.00    +0.000 HD
BRANCH  16  18
ATOM     18  C   UNL     1       3.282   4.862  18.728  0.00  0.00    +0.000 C 
ATOM     19  C   UNL     1       3.299   4.063  17.395  0.00  0.00    +0.000 C 
ATOM     20  C   UNL     1       2.589   2.735  17.673  0.00  0.00    +0.000 C 
ATOM     21  C   UNL     1       2.706   2.541  19.174  0.00  0.00    +0.000 C 
ATOM     22  C   UNL     1       2.522   3.952  19.722  0.00  0.00    +0.000 C 
BRANCH  18  23
ATOM     23  C   UNL     1       4.689   5.014  19.207  0.00  0.00    +0.000 C 
ATOM     24  N   UNL     1       5.784   5.164  19.570  0.00  0.00    +0.000 NA
ENDBRANCH  18  23
ENDBRANCH  16  18
ENDBRANCH  13  14
ENDBRANCH   1  13
TORSDOF 7
ENDMDL
MODEL 9
REMARK VINA RESULT:      -6.4      7.299      9.424
REMARK  Name = 
REMARK  11 active torsions:
REMARK  status: ('A' for Active; 'I' for Inactive)
REMARK    1  A    between atoms: C_1  and  C_2
REMARK    2  A    between atoms: C_4  and  S_5
REMARK    3  A    between atoms: S_5  and  C_6
REMARK    4  A    between atoms: C_6  and  C_7
REMARK    5  A    between atoms: N_9  and  C_10
REMARK    6  A    between atoms: C_10  and  C_11
REMARK    7  A    between atoms: N_17  and  C_18
REMARK    8  A    between atoms: C_18  and  C_19
REMARK    9  A    between atoms: C_19  and  C_20
REMARK   10  A    between atoms: C_19  and  C_21
REMARK   11  A    between atoms: C_22  and  C_23
REMARK                            x       y       z     vdW  Elec       q    Type
REMARK                         _______ _______ _______ _____ _____    ______ ____
ROOT
ATOM      1  S   UNL     1       1.159   9.459  18.371  0.00  0.00    +0.000 S 
ENDROOT
BRANCH   1   5
ATOM      2  C   UNL     1      -0.798  11.948  22.489  0.00  0.00    +0.000 C 
ATOM      3  C   UNL     1      -0.695  11.444  21.098  0.00  0.00    +0.000 A 
ATOM      4  N   UNL     1       0.337  10.633  20.686  0.00  0.00    +0.000 NA
ATOM      5  C   UNL     1       0.142  10.432  19.401  0.00  0.00    +0.000 A 
ATOM      6  N   UNL     1      -0.984  11.100  18.950  0.00  0.00    +0.000 N 
ATOM      7  C   UNL     1      -1.560  11.709  20.051  0.00  0.00    +0.000 A 
ATOM      8  C   UNL     1      -2.821  12.498  20.071  0.00  0.00    +0.000 C 
BRANCH   6   9
ATOM      9  C   UNL     1      -1.397  11.286  17.569  0.00  0.00    +0.000 C 
BRANCH   9  10
ATOM     10  C   UNL     1      -2.135  10.097  16.929  0.00  0.00    +0.000 C 
ATOM     11  C   UNL     1      -3.293   9.574  17.784  0.00  0.00    +0.000 C 
ATOM     12  C   UNL     1      -2.678  10.511  15.557  0.00  0.00    +0.000 C 
ENDBRANCH   9  10
ENDBRANCH   6   9
ENDBRANCH   1   5
BRANCH   1  13
ATOM     13  C   UNL     1       1.838   8.241  19.543  0.00  0.00    +0.000 C 
BRANCH  13  14
ATOM     14  C   UNL     1       2.631   7.145  18.824  0.00  0.00    +0.000 C 
ATOM     15  O   UNL     1       3.239   7.361  17.777  0.00  0.00    +0.000 OA
ATOM     16  N   UNL     1       2.702   5.931  19.478  0.00  0.00    +0.000 N 
ATOM     17  H   UNL     1       2.078   5.806  20.267  0.00  0.00    +0.000 HD
BRANCH  16  18
ATOM     18  C   UNL     1       3.472   4.756  19.020  0.00  0.00    +0.000 C 
ATOM     19  C   UNL     1       3.310   4.461  17.502  0.00  0.00    +0.000 C 
ATOM     20  C   UNL     1       2.844   3.007  17.388  0.00  0.00    +0.000 C 
ATOM     21  C   UNL     1       3.294   2.354  18.682  0.00  0.00    +0.000 C 
ATOM     22  C   UNL     1       3.054   3.442  19.722  0.00  0.00    +0.000 C 
BRANCH  18  23
ATOM     23  C   UNL     1       4.917   5.005  19.303  0.00  0.00    +0.000 C 
ATOM     24  N   UNL     1       6.034   5.219  19.548  0.00  0.00    +0.000 NA
ENDBRANCH  18  23
ENDBRANCH  16  18
ENDBRANCH  13  14
ENDBRANCH   1  13
TORSDOF 7
ENDMDL
