MODEL 1
REMARK VINA RESULT:      -6.9      0.000      0.000
REMARK  Name = 
REMARK  4 active torsions:
REMARK  status: ('A' for Active; 'I' for Inactive)
REMARK    1  A    between atoms: C_2  and  C_4
REMARK    2  A    between atoms: N_10  and  C_11
REMARK    3  A    between atoms: C_11  and  C_12
REMARK    4  A    between atoms: C_12  and  O_14
REMARK                            x       y       z     vdW  Elec       q    Type
REMARK                         _______ _______ _______ _____ _____    ______ ____
ROOT
ATOM      1  C   UNL     1       6.761   4.522  15.769  0.00  0.00    +0.000 A 
ATOM      2  N   UNL     1       7.837   4.734  16.627  0.00  0.00    +0.000 NA
ATOM      3  C   UNL     1       7.334   4.621  17.838  0.00  0.00    +0.000 A 
ATOM      4  N   UNL     1       5.996   4.339  17.807  0.00  0.00    +0.000 N 
ATOM      5  C   UNL     1       5.131   4.128  18.862  0.00  0.00    +0.000 A 
ATOM      6  O   UNL     1       5.538   4.192  20.012  0.00  0.00    +0.000 OA
ATOM      7  N   UNL     1       3.856   3.828  18.413  0.00  0.00    +0.000 N 
ATOM      8  N   UNL     1       3.487   3.767  17.090  0.00  0.00    +0.000 NA
ATOM      9  N   UNL     1       4.329   3.983  16.190  0.00  0.00    +0.000 NA
ATOM     10  C   UNL     1       5.611   4.269  16.498  0.00  0.00    +0.000 A 
ENDROOT
BRANCH   1  12
ATOM     11  N   UNL     1       6.242   3.522  13.689  0.00  0.00    +0.000 N 
ATOM     12  C   UNL     1       6.883   4.553  14.315  0.00  0.00    +0.000 C 
ATOM     13  O   UNL     1       7.486   5.414  13.687  0.00  0.00    +0.000 OA
ATOM     14  H   UNL     1       6.253   3.475  12.682  0.00  0.00    +0.000 HD
ATOM     15  H   UNL     1       5.734   2.837  14.235  0.00  0.00    +0.000 HD
ENDBRANCH   1  12
BRANCH   7  16
ATOM     16  C   UNL     1       2.783   3.634  19.383  0.00  0.00    +0.000 C 
BRANCH  16  17
ATOM     17  C   UNL     1       1.818   2.516  19.017  0.00  0.00    +0.000 C 
ATOM     18  O   UNL     1       0.603   2.637  19.108  0.00  0.00    +0.000 OA
BRANCH  17  19
ATOM     19  O   UNL     1       2.386   1.381  18.553  0.00  0.00    +0.000 OA
ATOM     20  H   UNL     1       1.997   0.569  18.928  0.00  0.00    +0.000 HD
ENDBRANCH  17  19
ENDBRANCH  16  17
ENDBRANCH   7  16
TORSDOF 4
ENDMDL
MODEL 2
REMARK VINA RESULT:      -6.7      2.367      6.039
REMARK  Name = 
REMARK  4 active torsions:
REMARK  status: ('A' for Active; 'I' for Inactive)
REMARK    1  A    between atoms: C_2  and  C_4
REMARK    2  A    between atoms: N_10  and  C_11
REMARK    3  A    between atoms: C_11  and  C_12
REMARK    4  A    between atoms: C_12  and  O_14
REMARK                            x       y       z     vdW  Elec       q    Type
REMARK                         _______ _______ _______ _____ _____    ______ ____
ROOT
ATOM      1  C   UNL     1       2.718   3.062  19.539  0.00  0.00    +0.000 A 
ATOM      2  N   UNL     1       1.966   2.798  18.396  0.00  0.00    +0.000 NA
ATOM      3  C   UNL     1       2.731   3.170  17.392  0.00  0.00    +0.000 A 
ATOM      4  N   UNL     1       3.937   3.651  17.825  0.00  0.00    +0.000 N 
ATOM      5  C   UNL     1       5.003   4.111  17.078  0.00  0.00    +0.000 A 
ATOM      6  O   UNL     1       4.936   4.131  15.859  0.00  0.00    +0.000 OA
ATOM      7  N   UNL     1       6.063   4.475  17.890  0.00  0.00    +0.000 N 
ATOM      8  N   UNL     1       6.056   4.409  19.264  0.00  0.00    +0.000 NA
ATOM      9  N   UNL     1       5.043   3.990  19.869  0.00  0.00    +0.000 NA
ATOM     10  C   UNL     1       3.950   3.588  19.189  0.00  0.00    +0.000 A 
ENDROOT
BRANCH   1  12
ATOM     11  N   UNL     1       0.887   2.937  21.032  0.00  0.00    +0.000 N 
ATOM     12  C   UNL     1       2.238   2.788  20.889  0.00  0.00    +0.000 C 
ATOM     13  O   UNL     1       2.950   2.445  21.824  0.00  0.00    +0.000 OA
ATOM     14  H   UNL     1       0.462   2.746  21.926  0.00  0.00    +0.000 HD
ATOM     15  H   UNL     1       0.321   3.203  20.235  0.00  0.00    +0.000 HD
ENDBRANCH   1  12
BRANCH   7  16
ATOM     16  C   UNL     1       7.263   5.047  17.287  0.00  0.00    +0.000 C 
BRANCH  16  17
ATOM     17  C   UNL     1       7.534   6.485  17.701  0.00  0.00    +0.000 C 
ATOM     18  O   UNL     1       7.204   7.444  17.015  0.00  0.00    +0.000 OA
BRANCH  17  19
ATOM     19  O   UNL     1       8.141   6.645  18.899  0.00  0.00    +0.000 OA
ATOM     20  H   UNL     1       7.606   7.146  19.543  0.00  0.00    +0.000 HD
ENDBRANCH  17  19
ENDBRANCH  16  17
ENDBRANCH   7  16
TORSDOF 4
ENDMDL
MODEL 3
REMARK VINA RESULT:      -6.7      2.467      5.952
REMARK  Name = 
REMARK  4 active torsions:
REMARK  status: ('A' for Active; 'I' for Inactive)
REMARK    1  A    between atoms: C_2  and  C_4
REMARK    2  A    between atoms: N_10  and  C_11
REMARK    3  A    between atoms: C_11  and  C_12
REMARK    4  A    between atoms: C_12  and  O_14
REMARK                            x       y       z     vdW  Elec       q    Type
REMARK                         _______ _______ _______ _____ _____    ______ ____
ROOT
ATOM      1  C   UNL     1       2.443   4.382  20.311  0.00  0.00    +0.000 A 
ATOM      2  N   UNL     1       2.054   5.713  20.445  0.00  0.00    +0.000 NA
ATOM      3  C   UNL     1       2.667   6.347  19.469  0.00  0.00    +0.000 A 
ATOM      4  N   UNL     1       3.421   5.497  18.707  0.00  0.00    +0.000 N 
ATOM      5  C   UNL     1       4.184   5.781  17.592  0.00  0.00    +0.000 A 
ATOM      6  O   UNL     1       4.252   6.924  17.169  0.00  0.00    +0.000 OA
ATOM      7  N   UNL     1       4.768   4.635  17.079  0.00  0.00    +0.000 N 
ATOM      8  N   UNL     1       4.627   3.377  17.618  0.00  0.00    +0.000 NA
ATOM      9  N   UNL     1       3.926   3.204  18.640  0.00  0.00    +0.000 NA
ATOM     10  C   UNL     1       3.290   4.240  19.225  0.00  0.00    +0.000 A 
ENDROOT
BRANCH   1  12
ATOM     11  N   UNL     1       0.714   2.890  20.925  0.00  0.00    +0.000 N 
ATOM     12  C   UNL     1       1.979   3.322  21.200  0.00  0.00    +0.000 C 
ATOM     13  O   UNL     1       2.642   2.840  22.109  0.00  0.00    +0.000 OA
ATOM     14  H   UNL     1       0.318   2.142  21.475  0.00  0.00    +0.000 HD
ATOM     15  H   UNL     1       0.197   3.295  20.153  0.00  0.00    +0.000 HD
ENDBRANCH   1  12
BRANCH   7  16
ATOM     16  C   UNL     1       5.665   4.740  15.933  0.00  0.00    +0.000 C 
BRANCH  16  17
ATOM     17  C   UNL     1       7.095   5.101  16.302  0.00  0.00    +0.000 C 
ATOM     18  O   UNL     1       7.578   6.202  16.073  0.00  0.00    +0.000 OA
BRANCH  17  19
ATOM     19  O   UNL     1       7.799   4.135  16.933  0.00  0.00    +0.000 OA
ATOM     20  H   UNL     1       7.456   3.919  17.821  0.00  0.00    +0.000 HD
ENDBRANCH  17  19
ENDBRANCH  16  17
ENDBRANCH   7  16
TORSDOF 4
ENDMDL
MODEL 4
REMARK VINA RESULT:      -6.7      2.273      2.823
REMARK  Name = 
REMARK  4 active torsions:
REMARK  status: ('A' for Active; 'I' for Inactive)
REMARK    1  A    between atoms: C_2  and  C_4
REMARK    2  A    between atoms: N_10  and  C_11
REMARK    3  A    between atoms: C_11  and  C_12
REMARK    4  A    between atoms: C_12  and  O_14
REMARK                            x       y       z     vdW  Elec       q    Type
REMARK                         _______ _______ _______ _____ _____    ______ ____
ROOT
ATOM      1  C   UNL     1       6.018   5.489  17.203  0.00  0.00    +0.000 A 
ATOM      2  N   UNL     1       5.662   6.749  16.727  0.00  0.00    +0.000 NA
ATOM      3  C   UNL     1       4.551   7.053  17.364  0.00  0.00    +0.000 A 
ATOM      4  N   UNL     1       4.177   6.062  18.230  0.00  0.00    +0.000 N 
ATOM      5  C   UNL     1       3.092   6.022  19.083  0.00  0.00    +0.000 A 
ATOM      6  O   UNL     1       2.308   6.958  19.123  0.00  0.00    +0.000 OA
ATOM      7  N   UNL     1       3.084   4.857  19.830  0.00  0.00    +0.000 N 
ATOM      8  N   UNL     1       4.020   3.855  19.726  0.00  0.00    +0.000 NA
ATOM      9  N   UNL     1       4.970   3.961  18.918  0.00  0.00    +0.000 NA
ATOM     10  C   UNL     1       5.100   5.058  18.145  0.00  0.00    +0.000 A 
ENDROOT
BRANCH   1  12
ATOM     11  N   UNL     1       7.959   4.266  17.776  0.00  0.00    +0.000 N 
ATOM     12  C   UNL     1       7.209   4.776  16.755  0.00  0.00    +0.000 C 
ATOM     13  O   UNL     1       7.528   4.623  15.583  0.00  0.00    +0.000 OA
ATOM     14  H   UNL     1       8.789   3.737  17.560  0.00  0.00    +0.000 HD
ATOM     15  H   UNL     1       7.658   4.391  18.736  0.00  0.00    +0.000 HD
ENDBRANCH   1  12
BRANCH   7  16
ATOM     16  C   UNL     1       1.977   4.601  20.746  0.00  0.00    +0.000 C 
BRANCH  16  17
ATOM     17  C   UNL     1       1.781   3.131  21.080  0.00  0.00    +0.000 C 
ATOM     18  O   UNL     1       1.860   2.696  22.221  0.00  0.00    +0.000 OA
BRANCH  17  19
ATOM     19  O   UNL     1       1.480   2.329  20.034  0.00  0.00    +0.000 OA
ATOM     20  H   UNL     1       0.804   2.702  19.438  0.00  0.00    +0.000 HD
ENDBRANCH  17  19
ENDBRANCH  16  17
ENDBRANCH   7  16
TORSDOF 4
ENDMDL
MODEL 5
REMARK VINA RESULT:      -6.7      1.689      1.879
REMARK  Name = 
REMARK  4 active torsions:
REMARK  status: ('A' for Active; 'I' for Inactive)
REMARK    1  A    between atoms: C_2  and  C_4
REMARK    2  A    between atoms: N_10  and  C_11
REMARK    3  A    between atoms: C_11  and  C_12
REMARK    4  A    between atoms: C_12  and  O_14
REMARK                            x       y       z     vdW  Elec       q    Type
REMARK                         _______ _______ _______ _____ _____    ______ ____
ROOT
ATOM      1  C   UNL     1       5.648   5.415  15.681  0.00  0.00    +0.000 A 
ATOM      2  N   UNL     1       5.389   6.782  15.758  0.00  0.00    +0.000 NA
ATOM      3  C   UNL     1       4.463   6.901  16.685  0.00  0.00    +0.000 A 
ATOM      4  N   UNL     1       4.117   5.689  17.214  0.00  0.00    +0.000 N 
ATOM      5  C   UNL     1       3.206   5.409  18.214  0.00  0.00    +0.000 A 
ATOM      6  O   UNL     1       2.578   6.313  18.743  0.00  0.00    +0.000 OA
ATOM      7  N   UNL     1       3.170   4.054  18.495  0.00  0.00    +0.000 N 
ATOM      8  N   UNL     1       3.926   3.102  17.852  0.00  0.00    +0.000 NA
ATOM      9  N   UNL     1       4.722   3.435  16.946  0.00  0.00    +0.000 NA
ATOM     10  C   UNL     1       4.862   4.729  16.590  0.00  0.00    +0.000 A 
ENDROOT
BRANCH   1  12
ATOM     11  N   UNL     1       6.263   3.627  14.261  0.00  0.00    +0.000 N 
ATOM     12  C   UNL     1       6.630   4.840  14.768  0.00  0.00    +0.000 C 
ATOM     13  O   UNL     1       7.687   5.375  14.459  0.00  0.00    +0.000 OA
ATOM     14  H   UNL     1       6.870   3.164  13.602  0.00  0.00    +0.000 HD
ATOM     15  H   UNL     1       5.372   3.219  14.520  0.00  0.00    +0.000 HD
ENDBRANCH   1  12
BRANCH   7  16
ATOM     16  C   UNL     1       2.221   3.552  19.483  0.00  0.00    +0.000 C 
BRANCH  16  17
ATOM     17  C   UNL     1       1.392   2.373  18.997  0.00  0.00    +0.000 C 
ATOM     18  O   UNL     1       0.191   2.457  18.775  0.00  0.00    +0.000 OA
BRANCH  17  19
ATOM     19  O   UNL     1       2.072   1.223  18.794  0.00  0.00    +0.000 OA
ATOM     20  H   UNL     1       2.069   0.927  17.865  0.00  0.00    +0.000 HD
ENDBRANCH  17  19
ENDBRANCH  16  17
ENDBRANCH   7  16
TORSDOF 4
ENDMDL
MODEL 6
REMARK VINA RESULT:      -6.6      2.503      5.942
REMARK  Name = 
REMARK  4 active torsions:
REMARK  status: ('A' for Active; 'I' for Inactive)
REMARK    1  A    between atoms: C_2  and  C_4
REMARK    2  A    between atoms: N_10  and  C_11
REMARK    3  A    between atoms: C_11  and  C_12
REMARK    4  A    between atoms: C_12  and  O_14
REMARK                            x       y       z     vdW  Elec       q    Type
REMARK                         _______ _______ _______ _____ _____    ______ ____
ROOT
ATOM      1  C   UNL     1       2.521   4.412  20.396  0.00  0.00    +0.000 A 
ATOM      2  N   UNL     1       1.851   5.606  20.139  0.00  0.00    +0.000 NA
ATOM      3  C   UNL     1       2.644   6.273  19.327  0.00  0.00    +0.000 A 
ATOM      4  N   UNL     1       3.782   5.571  19.040  0.00  0.00    +0.000 N 
ATOM      5  C   UNL     1       4.832   5.925  18.217  0.00  0.00    +0.000 A 
ATOM      6  O   UNL     1       4.822   6.999  17.635  0.00  0.00    +0.000 OA
ATOM      7  N   UNL     1       5.783   4.920  18.157  0.00  0.00    +0.000 N 
ATOM      8  N   UNL     1       5.707   3.730  18.842  0.00  0.00    +0.000 NA
ATOM      9  N   UNL     1       4.726   3.489  19.579  0.00  0.00    +0.000 NA
ATOM     10  C   UNL     1       3.722   4.381  19.709  0.00  0.00    +0.000 A 
ENDROOT
BRANCH   1  12
ATOM     11  N   UNL     1       0.726   2.961  20.909  0.00  0.00    +0.000 N 
ATOM     12  C   UNL     1       1.982   3.366  21.258  0.00  0.00    +0.000 C 
ATOM     13  O   UNL     1       2.579   2.871  22.205  0.00  0.00    +0.000 OA
ATOM     14  H   UNL     1       0.281   2.224  21.435  0.00  0.00    +0.000 HD
ATOM     15  H   UNL     1       0.265   3.375  20.107  0.00  0.00    +0.000 HD
ENDBRANCH   1  12
BRANCH   7  16
ATOM     16  C   UNL     1       7.003   5.134  17.384  0.00  0.00    +0.000 C 
BRANCH  16  17
ATOM     17  C   UNL     1       6.963   4.525  15.991  0.00  0.00    +0.000 C 
ATOM     18  O   UNL     1       7.649   4.944  15.068  0.00  0.00    +0.000 OA
BRANCH  17  19
ATOM     19  O   UNL     1       6.140   3.465  15.838  0.00  0.00    +0.000 OA
ATOM     20  H   UNL     1       5.407   3.626  15.215  0.00  0.00    +0.000 HD
ENDBRANCH  17  19
ENDBRANCH  16  17
ENDBRANCH   7  16
TORSDOF 4
ENDMDL
MODEL 7
REMARK VINA RESULT:      -6.6      2.085      3.040
REMARK  Name = 
REMARK  4 active torsions:
REMARK  status: ('A' for Active; 'I' for Inactive)
REMARK    1  A    between atoms: C_2  and  C_4
REMARK    2  A    between atoms: N_10  and  C_11
REMARK    3  A    between atoms: C_11  and  C_12
REMARK    4  A    between atoms: C_12  and  O_14
REMARK                            x       y       z     vdW  Elec       q    Type
REMARK                         _______ _______ _______ _____ _____    ______ ____
ROOT
ATOM      1  C   UNL     1       6.032   4.779  17.182  0.00  0.00    +0.000 A 
ATOM      2  N   UNL     1       5.421   5.013  15.952  0.00  0.00    +0.000 NA
ATOM      3  C   UNL     1       4.227   4.469  16.056  0.00  0.00    +0.000 A 
ATOM      4  N   UNL     1       4.033   3.906  17.287  0.00  0.00    +0.000 N 
ATOM      5  C   UNL     1       2.912   3.266  17.778  0.00  0.00    +0.000 A 
ATOM      6  O   UNL     1       1.920   3.140  17.076  0.00  0.00    +0.000 OA
ATOM      7  N   UNL     1       3.097   2.869  19.091  0.00  0.00    +0.000 N 
ATOM      8  N   UNL     1       4.251   3.064  19.812  0.00  0.00    +0.000 NA
ATOM      9  N   UNL     1       5.230   3.643  19.291  0.00  0.00    +0.000 NA
ATOM     10  C   UNL     1       5.169   4.094  18.020  0.00  0.00    +0.000 A 
ENDROOT
BRANCH   1  12
ATOM     11  N   UNL     1       8.207   4.227  17.929  0.00  0.00    +0.000 N 
ATOM     12  C   UNL     1       7.384   5.228  17.499  0.00  0.00    +0.000 C 
ATOM     13  O   UNL     1       7.775   6.383  17.390  0.00  0.00    +0.000 OA
ATOM     14  H   UNL     1       9.168   4.440  18.149  0.00  0.00    +0.000 HD
ATOM     15  H   UNL     1       7.860   3.277  17.989  0.00  0.00    +0.000 HD
ENDBRANCH   1  12
BRANCH   7  16
ATOM     16  C   UNL     1       2.043   2.118  19.767  0.00  0.00    +0.000 C 
BRANCH  16  17
ATOM     17  C   UNL     1       1.355   2.891  20.882  0.00  0.00    +0.000 C 
ATOM     18  O   UNL     1       1.548   2.653  22.067  0.00  0.00    +0.000 OA
BRANCH  17  19
ATOM     19  O   UNL     1       0.533   3.886  20.483  0.00  0.00    +0.000 OA
ATOM     20  H   UNL     1       0.398   3.917  19.517  0.00  0.00    +0.000 HD
ENDBRANCH  17  19
ENDBRANCH  16  17
ENDBRANCH   7  16
TORSDOF 4
ENDMDL
MODEL 8
REMARK VINA RESULT:      -6.6      2.384      3.183
REMARK  Name = 
REMARK  4 active torsions:
REMARK  status: ('A' for Active; 'I' for Inactive)
REMARK    1  A    between atoms: C_2  and  C_4
REMARK    2  A    between atoms: N_10  and  C_11
REMARK    3  A    between atoms: C_11  and  C_12
REMARK    4  A    between atoms: C_12  and  O_14
REMARK                            x       y       z     vdW  Elec       q    Type
REMARK                         _______ _______ _______ _____ _____    ______ ____
ROOT
ATOM      1  C   UNL     1       6.455   6.291  17.391  0.00  0.00    +0.000 A 
ATOM      2  N   UNL     1       5.836   6.459  16.155  0.00  0.00    +0.000 NA
ATOM      3  C   UNL     1       4.879   5.556  16.127  0.00  0.00    +0.000 A 
ATOM      4  N   UNL     1       4.842   4.822  17.280  0.00  0.00    +0.000 N 
ATOM      5  C   UNL     1       3.974   3.807  17.633  0.00  0.00    +0.000 A 
ATOM      6  O   UNL     1       3.096   3.454  16.861  0.00  0.00    +0.000 OA
ATOM      7  N   UNL     1       4.240   3.341  18.909  0.00  0.00    +0.000 N 
ATOM      8  N   UNL     1       5.250   3.808  19.718  0.00  0.00    +0.000 NA
ATOM      9  N   UNL     1       6.003   4.724  19.320  0.00  0.00    +0.000 NA
ATOM     10  C   UNL     1       5.836   5.276  18.100  0.00  0.00    +0.000 A 
ENDROOT
BRANCH   1  12
ATOM     11  N   UNL     1       8.185   6.635  18.967  0.00  0.00    +0.000 N 
ATOM     12  C   UNL     1       7.580   7.106  17.837  0.00  0.00    +0.000 C 
ATOM     13  O   UNL     1       7.974   8.115  17.268  0.00  0.00    +0.000 OA
ATOM     14  H   UNL     1       8.987   7.122  19.335  0.00  0.00    +0.000 HD
ATOM     15  H   UNL     1       7.848   5.785  19.404  0.00  0.00    +0.000 HD
ENDBRANCH   1  12
BRANCH   7  16
ATOM     16  C   UNL     1       3.467   2.222  19.438  0.00  0.00    +0.000 C 
BRANCH  16  17
ATOM     17  C   UNL     1       2.493   2.613  20.538  0.00  0.00    +0.000 C 
ATOM     18  O   UNL     1       1.325   2.902  20.314  0.00  0.00    +0.000 OA
BRANCH  17  19
ATOM     19  O   UNL     1       2.990   2.591  21.795  0.00  0.00    +0.000 OA
ATOM     20  H   UNL     1       3.122   3.479  22.177  0.00  0.00    +0.000 HD
ENDBRANCH  17  19
ENDBRANCH  16  17
ENDBRANCH   7  16
TORSDOF 4
ENDMDL
MODEL 9
REMARK VINA RESULT:      -6.6      2.234      2.550
REMARK  Name = 
REMARK  4 active torsions:
REMARK  status: ('A' for Active; 'I' for Inactive)
REMARK    1  A    between atoms: C_2  and  C_4
REMARK    2  A    between atoms: N_10  and  C_11
REMARK    3  A    between atoms: C_11  and  C_12
REMARK    4  A    between atoms: C_12  and  O_14
REMARK                            x       y       z     vdW  Elec       q    Type
REMARK                         _______ _______ _______ _____ _____    ______ ____
ROOT
ATOM      1  C   UNL     1       5.592   5.285  16.579  0.00  0.00    +0.000 A 
ATOM      2  N   UNL     1       5.313   6.602  16.224  0.00  0.00    +0.000 NA
ATOM      3  C   UNL     1       4.415   7.008  17.096  0.00  0.00    +0.000 A 
ATOM      4  N   UNL     1       4.107   6.028  17.999  0.00  0.00    +0.000 N 
ATOM      5  C   UNL     1       3.235   6.079  19.068  0.00  0.00    +0.000 A 
ATOM      6  O   UNL     1       2.610   7.102  19.302  0.00  0.00    +0.000 OA
ATOM      7  N   UNL     1       3.232   4.886  19.771  0.00  0.00    +0.000 N 
ATOM      8  N   UNL     1       3.983   3.782  19.440  0.00  0.00    +0.000 NA
ATOM      9  N   UNL     1       4.743   3.811  18.447  0.00  0.00    +0.000 NA
ATOM     10  C   UNL     1       4.848   4.923  17.690  0.00  0.00    +0.000 A 
ENDROOT
BRANCH   1  12
ATOM     11  N   UNL     1       6.126   3.172  15.662  0.00  0.00    +0.000 N 
ATOM     12  C   UNL     1       6.554   4.453  15.864  0.00  0.00    +0.000 C 
ATOM     13  O   UNL     1       7.643   4.840  15.462  0.00  0.00    +0.000 OA
ATOM     14  H   UNL     1       6.716   2.530  15.155  0.00  0.00    +0.000 HD
ATOM     15  H   UNL     1       5.211   2.886  15.989  0.00  0.00    +0.000 HD
ENDBRANCH   1  12
BRANCH   7  16
ATOM     16  C   UNL     1       2.324   4.723  20.902  0.00  0.00    +0.000 C 
BRANCH  16  17
ATOM     17  C   UNL     1       1.910   3.282  21.156  0.00  0.00    +0.000 C 
ATOM     18  O   UNL     1       0.947   2.765  20.605  0.00  0.00    +0.000 OA
BRANCH  17  19
ATOM     19  O   UNL     1       2.694   2.590  22.012  0.00  0.00    +0.000 OA
ATOM     20  H   UNL     1       2.591   1.623  21.939  0.00  0.00    +0.000 HD
ENDBRANCH  17  19
ENDBRANCH  16  17
ENDBRANCH   7  16
TORSDOF 4
ENDMDL
