MODEL 1
REMARK VINA RESULT:      -7.5      0.000      0.000
REMARK  Name = 
REMARK  10 active torsions:
REMARK  status: ('A' for Active; 'I' for Inactive)
REMARK    1  A    between atoms: C_1  and  O_2
REMARK    2  A    between atoms: O_2  and  C_3
REMARK    3  A    between atoms: C_7  and  C_8
REMARK    4  A    between atoms: N_9  and  N_10
REMARK    5  A    between atoms: C_11  and  C_13
REMARK    6  A    between atoms: C_13  and  C_14
REMARK    7  A    between atoms: C_14  and  N_15
REMARK    8  A    between atoms: C_19  and  C_21
REMARK    9  A    between atoms: C_32  and  O_33
REMARK   10  A    between atoms: O_33  and  C_34
REMARK                            x       y       z     vdW  Elec       q    Type
REMARK                         _______ _______ _______ _____ _____    ______ ____
ROOT
ATOM      1  N   UNL     1       0.316  10.754  19.290  0.00  0.00    +0.000 N 
ATOM      2  C   UNL     1       0.845  12.031  19.338  0.00  0.00    +0.000 C 
ATOM      3  O   UNL     1       1.948  12.345  19.769  0.00  0.00    +0.000 OA
ATOM      4  H   UNL     1      -0.281  10.608  18.463  0.00  0.00    +0.000 HD
ENDROOT
BRANCH   1  11
ATOM      5  C   UNL     1       3.687   5.317  18.984  0.00  0.00    +0.000 A 
ATOM      6  C   UNL     1       2.884   5.880  19.980  0.00  0.00    +0.000 A 
ATOM      7  C   UNL     1       2.271   7.115  19.791  0.00  0.00    +0.000 A 
ATOM      8  N   UNL     1       1.497   7.629  20.828  0.00  0.00    +0.000 NA
ATOM      9  C   UNL     1       0.926   8.785  20.688  0.00  0.00    +0.000 A 
ATOM     10  C   UNL     1       0.094   9.233  21.860  0.00  0.00    +0.000 C 
ATOM     11  N   UNL     1       1.087   9.574  19.554  0.00  0.00    +0.000 N 
ATOM     12  C   UNL     1       1.770   9.087  18.433  0.00  0.00    +0.000 A 
ATOM     13  O   UNL     1       1.785   9.662  17.344  0.00  0.00    +0.000 OA
ATOM     14  C   UNL     1       2.443   7.777  18.581  0.00  0.00    +0.000 A 
ATOM     15  C   UNL     1       3.196   7.199  17.545  0.00  0.00    +0.000 A 
ATOM     16  C   UNL     1       3.829   5.964  17.743  0.00  0.00    +0.000 A 
BRANCH   5  18
ATOM     17  C   UNL     1       3.397   2.970  19.105  0.00  0.00    +0.000 C 
ATOM     18  O   UNL     1       4.228   4.104  19.335  0.00  0.00    +0.000 OA
ENDBRANCH   5  18
BRANCH  16  19
ATOM     19  O   UNL     1       4.567   5.312  16.795  0.00  0.00    +0.000 OA
ATOM     20  C   UNL     1       5.404   6.062  15.930  0.00  0.00    +0.000 C 
ENDBRANCH  16  19
ENDBRANCH   1  11
BRANCH   2  21
ATOM     21  C   UNL     1      -0.097  13.097  18.808  0.00  0.00    +0.000 C 
BRANCH  21  22
ATOM     22  C   UNL     1      -0.877  13.736  19.949  0.00  0.00    +0.000 C 
BRANCH  22  23
ATOM     23  N   UNL     1      -1.313  12.764  20.966  0.00  0.00    +0.000 NA
ATOM     24  C   UNL     1      -0.936  13.130  22.353  0.00  0.00    +0.000 C 
ATOM     25  C   UNL     1      -1.671  14.360  22.909  0.00  0.00    +0.000 C 
ATOM     26  N   UNL     1      -3.120  14.177  22.824  0.00  0.00    +0.000 N 
ATOM     27  C   UNL     1      -3.874  14.259  24.000  0.00  0.00    +0.000 C 
ATOM     28  O   UNL     1      -3.312  14.447  25.083  0.00  0.00    +0.000 OA
ATOM     29  C   UNL     1      -3.602  13.773  21.495  0.00  0.00    +0.000 C 
ATOM     30  C   UNL     1      -2.786  12.595  20.916  0.00  0.00    +0.000 C 
BRANCH  27  31
ATOM     31  C   UNL     1      -5.313  14.074  23.951  0.00  0.00    +0.000 A 
ATOM     32  C   UNL     1      -6.051  12.904  24.002  0.00  0.00    +0.000 A 
ATOM     33  C   UNL     1      -7.412  13.269  23.882  0.00  0.00    +0.000 A 
ATOM     34  C   UNL     1      -7.432  14.640  23.818  0.00  0.00    +0.000 A 
ATOM     35  O   UNL     1      -6.172  15.138  23.898  0.00  0.00    +0.000 OA
ENDBRANCH  27  31
ENDBRANCH  22  23
ENDBRANCH  21  22
ENDBRANCH   2  21
TORSDOF 7
ENDMDL
MODEL 2
REMARK VINA RESULT:      -7.5      0.957      1.111
REMARK  Name = 
REMARK  10 active torsions:
REMARK  status: ('A' for Active; 'I' for Inactive)
REMARK    1  A    between atoms: C_1  and  O_2
REMARK    2  A    between atoms: O_2  and  C_3
REMARK    3  A    between atoms: C_7  and  C_8
REMARK    4  A    between atoms: N_9  and  N_10
REMARK    5  A    between atoms: C_11  and  C_13
REMARK    6  A    between atoms: C_13  and  C_14
REMARK    7  A    between atoms: C_14  and  N_15
REMARK    8  A    between atoms: C_19  and  C_21
REMARK    9  A    between atoms: C_32  and  O_33
REMARK   10  A    between atoms: O_33  and  C_34
REMARK                            x       y       z     vdW  Elec       q    Type
REMARK                         _______ _______ _______ _____ _____    ______ ____
ROOT
ATOM      1  N   UNL     1       0.670  10.761  19.361  0.00  0.00    +0.000 N 
ATOM      2  C   UNL     1      -0.558  10.868  18.735  0.00  0.00    +0.000 C 
ATOM      3  O   UNL     1      -1.157   9.973  18.150  0.00  0.00    +0.000 OA
ATOM      4  H   UNL     1       0.735  11.354  20.200  0.00  0.00    +0.000 HD
ENDROOT
BRANCH   1  11
ATOM      5  C   UNL     1       3.573   5.070  18.906  0.00  0.00    +0.000 A 
ATOM      6  C   UNL     1       2.780   5.653  19.897  0.00  0.00    +0.000 A 
ATOM      7  C   UNL     1       2.284   6.945  19.749  0.00  0.00    +0.000 A 
ATOM      8  N   UNL     1       1.513   7.474  20.781  0.00  0.00    +0.000 NA
ATOM      9  C   UNL     1       1.050   8.681  20.678  0.00  0.00    +0.000 A 
ATOM     10  C   UNL     1       0.209   9.144  21.839  0.00  0.00    +0.000 C 
ATOM     11  N   UNL     1       1.326   9.506  19.594  0.00  0.00    +0.000 N 
ATOM     12  C   UNL     1       2.012   9.016  18.477  0.00  0.00    +0.000 A 
ATOM     13  O   UNL     1       2.123   9.639  17.420  0.00  0.00    +0.000 OA
ATOM     14  C   UNL     1       2.563   7.646  18.583  0.00  0.00    +0.000 A 
ATOM     15  C   UNL     1       3.308   7.055  17.548  0.00  0.00    +0.000 A 
ATOM     16  C   UNL     1       3.824   5.761  17.706  0.00  0.00    +0.000 A 
BRANCH   5  18
ATOM     17  C   UNL     1       3.079   2.755  18.894  0.00  0.00    +0.000 C 
ATOM     18  O   UNL     1       3.994   3.799  19.215  0.00  0.00    +0.000 OA
ENDBRANCH   5  18
BRANCH  16  19
ATOM     19  O   UNL     1       4.543   5.093  16.756  0.00  0.00    +0.000 OA
ATOM     20  C   UNL     1       5.327   5.831  15.833  0.00  0.00    +0.000 C 
ENDBRANCH  16  19
ENDBRANCH   1  11
BRANCH   2  21
ATOM     21  C   UNL     1      -1.151  12.264  18.799  0.00  0.00    +0.000 C 
BRANCH  21  22
ATOM     22  C   UNL     1      -0.752  12.955  20.096  0.00  0.00    +0.000 C 
BRANCH  22  23
ATOM     23  N   UNL     1      -1.152  12.204  21.299  0.00  0.00    +0.000 NA
ATOM     24  C   UNL     1      -0.842  12.893  22.574  0.00  0.00    +0.000 C 
ATOM     25  C   UNL     1      -1.673  14.160  22.831  0.00  0.00    +0.000 C 
ATOM     26  N   UNL     1      -3.103  13.859  22.769  0.00  0.00    +0.000 N 
ATOM     27  C   UNL     1      -3.896  14.145  23.886  0.00  0.00    +0.000 C 
ATOM     28  O   UNL     1      -3.380  14.608  24.907  0.00  0.00    +0.000 OA
ATOM     29  C   UNL     1      -3.518  13.137  21.557  0.00  0.00    +0.000 C 
ATOM     30  C   UNL     1      -2.608  11.922  21.267  0.00  0.00    +0.000 C 
BRANCH  27  31
ATOM     31  C   UNL     1      -5.317  13.851  23.859  0.00  0.00    +0.000 A 
ATOM     32  C   UNL     1      -6.390  14.709  23.695  0.00  0.00    +0.000 A 
ATOM     33  C   UNL     1      -7.563  13.925  23.781  0.00  0.00    +0.000 A 
ATOM     34  C   UNL     1      -7.141  12.628  23.938  0.00  0.00    +0.000 A 
ATOM     35  O   UNL     1      -5.786  12.568  23.948  0.00  0.00    +0.000 OA
ENDBRANCH  27  31
ENDBRANCH  22  23
ENDBRANCH  21  22
ENDBRANCH   2  21
TORSDOF 7
ENDMDL
MODEL 3
REMARK VINA RESULT:      -7.4      3.774      6.308
REMARK  Name = 
REMARK  10 active torsions:
REMARK  status: ('A' for Active; 'I' for Inactive)
REMARK    1  A    between atoms: C_1  and  O_2
REMARK    2  A    between atoms: O_2  and  C_3
REMARK    3  A    between atoms: C_7  and  C_8
REMARK    4  A    between atoms: N_9  and  N_10
REMARK    5  A    between atoms: C_11  and  C_13
REMARK    6  A    between atoms: C_13  and  C_14
REMARK    7  A    between atoms: C_14  and  N_15
REMARK    8  A    between atoms: C_19  and  C_21
REMARK    9  A    between atoms: C_32  and  O_33
REMARK   10  A    between atoms: O_33  and  C_34
REMARK                            x       y       z     vdW  Elec       q    Type
REMARK                         _______ _______ _______ _____ _____    ______ ____
ROOT
ATOM      1  N   UNL     1       0.595  10.670  19.578  0.00  0.00    +0.000 N 
ATOM      2  C   UNL     1      -0.725  10.769  19.181  0.00  0.00    +0.000 C 
ATOM      3  O   UNL     1      -1.428   9.859  18.756  0.00  0.00    +0.000 OA
ATOM      4  H   UNL     1       0.817  11.298  20.363  0.00  0.00    +0.000 HD
ENDROOT
BRANCH   1  11
ATOM      5  C   UNL     1       3.559   5.042  18.828  0.00  0.00    +0.000 A 
ATOM      6  C   UNL     1       2.783   5.575  19.860  0.00  0.00    +0.000 A 
ATOM      7  C   UNL     1       2.267   6.864  19.775  0.00  0.00    +0.000 A 
ATOM      8  N   UNL     1       1.515   7.342  20.846  0.00  0.00    +0.000 NA
ATOM      9  C   UNL     1       1.034   8.545  20.802  0.00  0.00    +0.000 A 
ATOM     10  C   UNL     1       0.217   8.951  22.001  0.00  0.00    +0.000 C 
ATOM     11  N   UNL     1       1.273   9.416  19.744  0.00  0.00    +0.000 N 
ATOM     12  C   UNL     1       1.937   8.980  18.593  0.00  0.00    +0.000 A 
ATOM     13  O   UNL     1       2.014   9.645  17.559  0.00  0.00    +0.000 OA
ATOM     14  C   UNL     1       2.508   7.615  18.631  0.00  0.00    +0.000 A 
ATOM     15  C   UNL     1       3.234   7.075  17.556  0.00  0.00    +0.000 A 
ATOM     16  C   UNL     1       3.771   5.782  17.650  0.00  0.00    +0.000 A 
BRANCH   5  18
ATOM     17  C   UNL     1       3.165   2.976  19.914  0.00  0.00    +0.000 C 
ATOM     18  O   UNL     1       4.003   3.766  19.076  0.00  0.00    +0.000 OA
ENDBRANCH   5  18
BRANCH  16  19
ATOM     19  O   UNL     1       4.474   5.162  16.657  0.00  0.00    +0.000 OA
ATOM     20  C   UNL     1       5.345   5.928  15.841  0.00  0.00    +0.000 C 
ENDBRANCH  16  19
ENDBRANCH   1  11
BRANCH   2  21
ATOM     21  C   UNL     1      -1.286  12.176  19.288  0.00  0.00    +0.000 C 
BRANCH  21  22
ATOM     22  C   UNL     1      -0.194  13.158  19.690  0.00  0.00    +0.000 C 
BRANCH  22  23
ATOM     23  N   UNL     1       0.376  13.890  18.546  0.00  0.00    +0.000 NA
ATOM     24  C   UNL     1       0.476  15.354  18.753  0.00  0.00    +0.000 C 
ATOM     25  C   UNL     1       1.511  15.777  19.809  0.00  0.00    +0.000 C 
ATOM     26  N   UNL     1       2.829  15.234  19.484  0.00  0.00    +0.000 N 
ATOM     27  C   UNL     1       3.897  16.123  19.322  0.00  0.00    +0.000 C 
ATOM     28  O   UNL     1       3.709  17.339  19.417  0.00  0.00    +0.000 OA
ATOM     29  C   UNL     1       2.840  13.788  19.219  0.00  0.00    +0.000 C 
ATOM     30  C   UNL     1       1.729  13.373  18.227  0.00  0.00    +0.000 C 
BRANCH  27  31
ATOM     31  C   UNL     1       5.217  15.616  18.991  0.00  0.00    +0.000 A 
ATOM     32  C   UNL     1       6.357  15.556  19.774  0.00  0.00    +0.000 A 
ATOM     33  C   UNL     1       7.381  15.007  18.969  0.00  0.00    +0.000 A 
ATOM     34  C   UNL     1       6.798  14.714  17.762  0.00  0.00    +0.000 A 
ATOM     35  O   UNL     1       5.482  15.042  17.778  0.00  0.00    +0.000 OA
ENDBRANCH  27  31
ENDBRANCH  22  23
ENDBRANCH  21  22
ENDBRANCH   2  21
TORSDOF 7
ENDMDL
MODEL 4
REMARK VINA RESULT:      -7.4      8.540     12.098
REMARK  Name = 
REMARK  10 active torsions:
REMARK  status: ('A' for Active; 'I' for Inactive)
REMARK    1  A    between atoms: C_1  and  O_2
REMARK    2  A    between atoms: O_2  and  C_3
REMARK    3  A    between atoms: C_7  and  C_8
REMARK    4  A    between atoms: N_9  and  N_10
REMARK    5  A    between atoms: C_11  and  C_13
REMARK    6  A    between atoms: C_13  and  C_14
REMARK    7  A    between atoms: C_14  and  N_15
REMARK    8  A    between atoms: C_19  and  C_21
REMARK    9  A    between atoms: C_32  and  O_33
REMARK   10  A    between atoms: O_33  and  C_34
REMARK                            x       y       z     vdW  Elec       q    Type
REMARK                         _______ _______ _______ _____ _____    ______ ____
ROOT
ATOM      1  N   UNL     1       9.533  10.160  19.436  0.00  0.00    +0.000 N 
ATOM      2  C   UNL     1       8.640   9.993  18.393  0.00  0.00    +0.000 C 
ATOM      3  O   UNL     1       8.018  10.880  17.819  0.00  0.00    +0.000 OA
ATOM      4  H   UNL     1      10.309   9.485  19.399  0.00  0.00    +0.000 HD
ENDROOT
BRANCH   1  11
ATOM      5  C   UNL     1      10.383  15.951  22.037  0.00  0.00    +0.000 A 
ATOM      6  C   UNL     1      10.868  15.355  20.870  0.00  0.00    +0.000 A 
ATOM      7  C   UNL     1      10.538  14.043  20.546  0.00  0.00    +0.000 A 
ATOM      8  N   UNL     1      11.068  13.502  19.378  0.00  0.00    +0.000 NA
ATOM      9  C   UNL     1      10.791  12.277  19.057  0.00  0.00    +0.000 A 
ATOM     10  C   UNL     1      11.397  11.802  17.762  0.00  0.00    +0.000 C 
ATOM     11  N   UNL     1      10.017  11.443  19.857  0.00  0.00    +0.000 N 
ATOM     12  C   UNL     1       9.372  11.940  20.995  0.00  0.00    +0.000 A 
ATOM     13  O   UNL     1       8.532  11.303  21.633  0.00  0.00    +0.000 OA
ATOM     14  C   UNL     1       9.690  13.332  21.386  0.00  0.00    +0.000 A 
ATOM     15  C   UNL     1       9.142  13.933  22.532  0.00  0.00    +0.000 A 
ATOM     16  C   UNL     1       9.491  15.249  22.869  0.00  0.00    +0.000 A 
BRANCH   5  18
ATOM     17  C   UNL     1      11.446  17.841  21.088  0.00  0.00    +0.000 C 
ATOM     18  O   UNL     1      10.815  17.242  22.216  0.00  0.00    +0.000 OA
ENDBRANCH   5  18
BRANCH  16  19
ATOM     19  O   UNL     1       9.000  15.928  23.948  0.00  0.00    +0.000 OA
ATOM     20  C   UNL     1       9.091  15.341  25.236  0.00  0.00    +0.000 C 
ENDBRANCH  16  19
ENDBRANCH   1  11
BRANCH   2  21
ATOM     21  C   UNL     1       8.447   8.543  17.987  0.00  0.00    +0.000 C 
BRANCH  21  22
ATOM     22  C   UNL     1       6.986   8.273  17.649  0.00  0.00    +0.000 C 
BRANCH  22  23
ATOM     23  N   UNL     1       6.780   6.983  16.970  0.00  0.00    +0.000 NA
ATOM     24  C   UNL     1       7.356   5.821  17.690  0.00  0.00    +0.000 C 
ATOM     25  C   UNL     1       6.651   5.479  19.013  0.00  0.00    +0.000 C 
ATOM     26  N   UNL     1       5.221   5.262  18.793  0.00  0.00    +0.000 N 
ATOM     27  C   UNL     1       4.666   4.035  19.169  0.00  0.00    +0.000 C 
ATOM     28  O   UNL     1       5.385   3.150  19.641  0.00  0.00    +0.000 OA
ATOM     29  C   UNL     1       4.553   6.341  18.049  0.00  0.00    +0.000 C 
ATOM     30  C   UNL     1       5.331   6.733  16.773  0.00  0.00    +0.000 C 
BRANCH  27  31
ATOM     31  C   UNL     1       3.251   3.786  18.957  0.00  0.00    +0.000 A 
ATOM     32  C   UNL     1       2.599   3.324  17.826  0.00  0.00    +0.000 A 
ATOM     33  C   UNL     1       1.219   3.290  18.131  0.00  0.00    +0.000 A 
ATOM     34  C   UNL     1       1.111   3.681  19.442  0.00  0.00    +0.000 A 
ATOM     35  O   UNL     1       2.336   3.945  19.962  0.00  0.00    +0.000 OA
ENDBRANCH  27  31
ENDBRANCH  22  23
ENDBRANCH  21  22
ENDBRANCH   2  21
TORSDOF 7
ENDMDL
MODEL 5
REMARK VINA RESULT:      -7.3      3.850      6.907
REMARK  Name = 
REMARK  10 active torsions:
REMARK  status: ('A' for Active; 'I' for Inactive)
REMARK    1  A    between atoms: C_1  and  O_2
REMARK    2  A    between atoms: O_2  and  C_3
REMARK    3  A    between atoms: C_7  and  C_8
REMARK    4  A    between atoms: N_9  and  N_10
REMARK    5  A    between atoms: C_11  and  C_13
REMARK    6  A    between atoms: C_13  and  C_14
REMARK    7  A    between atoms: C_14  and  N_15
REMARK    8  A    between atoms: C_19  and  C_21
REMARK    9  A    between atoms: C_32  and  O_33
REMARK   10  A    between atoms: O_33  and  C_34
REMARK                            x       y       z     vdW  Elec       q    Type
REMARK                         _______ _______ _______ _____ _____    ______ ____
ROOT
ATOM      1  N   UNL     1       0.364  10.779  19.537  0.00  0.00    +0.000 N 
ATOM      2  C   UNL     1       0.708  11.979  20.132  0.00  0.00    +0.000 C 
ATOM      3  O   UNL     1       1.534  12.138  21.023  0.00  0.00    +0.000 OA
ATOM      4  H   UNL     1       0.136  10.887  18.539  0.00  0.00    +0.000 HD
ENDROOT
BRANCH   1  11
ATOM      5  C   UNL     1       3.554   5.254  18.974  0.00  0.00    +0.000 A 
ATOM      6  C   UNL     1       2.763   5.793  19.993  0.00  0.00    +0.000 A 
ATOM      7  C   UNL     1       2.194   7.055  19.863  0.00  0.00    +0.000 A 
ATOM      8  N   UNL     1       1.430   7.541  20.921  0.00  0.00    +0.000 NA
ATOM      9  C   UNL     1       0.899   8.722  20.837  0.00  0.00    +0.000 A 
ATOM     10  C   UNL     1       0.073   9.138  22.026  0.00  0.00    +0.000 C 
ATOM     11  N   UNL     1       1.094   9.561  19.745  0.00  0.00    +0.000 N 
ATOM     12  C   UNL     1       1.768   9.109  18.605  0.00  0.00    +0.000 A 
ATOM     13  O   UNL     1       1.810   9.738  17.547  0.00  0.00    +0.000 OA
ATOM     14  C   UNL     1       2.395   7.772  18.690  0.00  0.00    +0.000 A 
ATOM     15  C   UNL     1       3.136   7.222  17.630  0.00  0.00    +0.000 A 
ATOM     16  C   UNL     1       3.727   5.957  17.768  0.00  0.00    +0.000 A 
BRANCH   5  18
ATOM     17  C   UNL     1       3.106   3.070  19.771  0.00  0.00    +0.000 C 
ATOM     18  O   UNL     1       4.052   4.007  19.266  0.00  0.00    +0.000 OA
ENDBRANCH   5  18
BRANCH  16  19
ATOM     19  O   UNL     1       4.449   5.329  16.793  0.00  0.00    +0.000 OA
ATOM     20  C   UNL     1       5.435   6.060  16.081  0.00  0.00    +0.000 C 
ENDBRANCH  16  19
ENDBRANCH   1  11
BRANCH   2  21
ATOM     21  C   UNL     1      -0.069  13.167  19.593  0.00  0.00    +0.000 C 
BRANCH  21  22
ATOM     22  C   UNL     1       0.703  14.459  19.824  0.00  0.00    +0.000 C 
BRANCH  22  23
ATOM     23  N   UNL     1       1.383  14.950  18.613  0.00  0.00    +0.000 NA
ATOM     24  C   UNL     1       1.807  16.369  18.691  0.00  0.00    +0.000 C 
ATOM     25  C   UNL     1       2.941  16.640  19.693  0.00  0.00    +0.000 C 
ATOM     26  N   UNL     1       4.099  15.795  19.402  0.00  0.00    +0.000 N 
ATOM     27  C   UNL     1       5.329  16.410  19.150  0.00  0.00    +0.000 C 
ATOM     28  O   UNL     1       5.414  17.642  19.141  0.00  0.00    +0.000 OA
ATOM     29  C   UNL     1       3.785  14.365  19.265  0.00  0.00    +0.000 C 
ATOM     30  C   UNL     1       2.581  14.124  18.326  0.00  0.00    +0.000 C 
BRANCH  27  31
ATOM     31  C   UNL     1       6.496  15.600  18.851  0.00  0.00    +0.000 A 
ATOM     32  C   UNL     1       6.734  14.767  17.771  0.00  0.00    +0.000 A 
ATOM     33  C   UNL     1       8.006  14.183  17.973  0.00  0.00    +0.000 A 
ATOM     34  C   UNL     1       8.494  14.730  19.133  0.00  0.00    +0.000 A 
ATOM     35  O   UNL     1       7.606  15.616  19.651  0.00  0.00    +0.000 OA
ENDBRANCH  27  31
ENDBRANCH  22  23
ENDBRANCH  21  22
ENDBRANCH   2  21
TORSDOF 7
ENDMDL
MODEL 6
REMARK VINA RESULT:      -7.2      3.303     10.812
REMARK  Name = 
REMARK  10 active torsions:
REMARK  status: ('A' for Active; 'I' for Inactive)
REMARK    1  A    between atoms: C_1  and  O_2
REMARK    2  A    between atoms: O_2  and  C_3
REMARK    3  A    between atoms: C_7  and  C_8
REMARK    4  A    between atoms: N_9  and  N_10
REMARK    5  A    between atoms: C_11  and  C_13
REMARK    6  A    between atoms: C_13  and  C_14
REMARK    7  A    between atoms: C_14  and  N_15
REMARK    8  A    between atoms: C_19  and  C_21
REMARK    9  A    between atoms: C_32  and  O_33
REMARK   10  A    between atoms: O_33  and  C_34
REMARK                            x       y       z     vdW  Elec       q    Type
REMARK                         _______ _______ _______ _____ _____    ______ ____
ROOT
ATOM      1  N   UNL     1       2.257   6.511  20.735  0.00  0.00    +0.000 N 
ATOM      2  C   UNL     1       1.527   5.350  20.555  0.00  0.00    +0.000 C 
ATOM      3  O   UNL     1       0.372   5.272  20.154  0.00  0.00    +0.000 OA
ATOM      4  H   UNL     1       3.256   6.382  20.524  0.00  0.00    +0.000 HD
ENDROOT
BRANCH   1  11
ATOM      5  C   UNL     1      -0.725  12.091  19.741  0.00  0.00    +0.000 A 
ATOM      6  C   UNL     1      -0.010  11.235  18.900  0.00  0.00    +0.000 A 
ATOM      7  C   UNL     1       0.569  10.069  19.390  0.00  0.00    +0.000 A 
ATOM      8  N   UNL     1       1.282   9.268  18.503  0.00  0.00    +0.000 NA
ATOM      9  C   UNL     1       1.847   8.183  18.934  0.00  0.00    +0.000 A 
ATOM     10  C   UNL     1       2.572   7.379  17.886  0.00  0.00    +0.000 C 
ATOM     11  N   UNL     1       1.817   7.795  20.269  0.00  0.00    +0.000 N 
ATOM     12  C   UNL     1       1.043   8.494  21.201  0.00  0.00    +0.000 A 
ATOM     13  O   UNL     1       0.831   8.094  22.347  0.00  0.00    +0.000 OA
ATOM     14  C   UNL     1       0.405   9.745  20.732  0.00  0.00    +0.000 A 
ATOM     15  C   UNL     1      -0.361  10.561  21.581  0.00  0.00    +0.000 A 
ATOM     16  C   UNL     1      -0.929  11.746  21.090  0.00  0.00    +0.000 A 
BRANCH   5  18
ATOM     17  C   UNL     1      -0.247  14.173  18.720  0.00  0.00    +0.000 C 
ATOM     18  O   UNL     1      -1.218  13.204  19.104  0.00  0.00    +0.000 OA
ENDBRANCH   5  18
BRANCH  16  19
ATOM     19  O   UNL     1      -1.703  12.597  21.828  0.00  0.00    +0.000 OA
ATOM     20  C   UNL     1      -1.080  13.507  22.719  0.00  0.00    +0.000 C 
ENDBRANCH  16  19
ENDBRANCH   1  11
BRANCH   2  21
ATOM     21  C   UNL     1       2.289   4.091  20.930  0.00  0.00    +0.000 C 
BRANCH  21  22
ATOM     22  C   UNL     1       2.266   3.090  19.783  0.00  0.00    +0.000 C 
BRANCH  22  23
ATOM     23  N   UNL     1       3.612   2.679  19.348  0.00  0.00    +0.000 NA
ATOM     24  C   UNL     1       3.772   2.594  17.876  0.00  0.00    +0.000 C 
ATOM     25  C   UNL     1       3.721   3.949  17.151  0.00  0.00    +0.000 C 
ATOM     26  N   UNL     1       4.718   4.866  17.703  0.00  0.00    +0.000 N 
ATOM     27  C   UNL     1       5.678   5.407  16.842  0.00  0.00    +0.000 C 
ATOM     28  O   UNL     1       5.694   5.082  15.651  0.00  0.00    +0.000 OA
ATOM     29  C   UNL     1       4.675   4.997  19.167  0.00  0.00    +0.000 C 
ATOM     30  C   UNL     1       4.631   3.622  19.871  0.00  0.00    +0.000 C 
BRANCH  27  31
ATOM     31  C   UNL     1       6.685   6.315  17.360  0.00  0.00    +0.000 A 
ATOM     32  C   UNL     1       7.643   6.101  18.337  0.00  0.00    +0.000 A 
ATOM     33  C   UNL     1       8.352   7.314  18.493  0.00  0.00    +0.000 A 
ATOM     34  C   UNL     1       7.825   8.182  17.569  0.00  0.00    +0.000 A 
ATOM     35  O   UNL     1       6.844   7.576  16.853  0.00  0.00    +0.000 OA
ENDBRANCH  27  31
ENDBRANCH  22  23
ENDBRANCH  21  22
ENDBRANCH   2  21
TORSDOF 7
ENDMDL
MODEL 7
REMARK VINA RESULT:      -7.2      3.571      5.531
REMARK  Name = 
REMARK  10 active torsions:
REMARK  status: ('A' for Active; 'I' for Inactive)
REMARK    1  A    between atoms: C_1  and  O_2
REMARK    2  A    between atoms: O_2  and  C_3
REMARK    3  A    between atoms: C_7  and  C_8
REMARK    4  A    between atoms: N_9  and  N_10
REMARK    5  A    between atoms: C_11  and  C_13
REMARK    6  A    between atoms: C_13  and  C_14
REMARK    7  A    between atoms: C_14  and  N_15
REMARK    8  A    between atoms: C_19  and  C_21
REMARK    9  A    between atoms: C_32  and  O_33
REMARK   10  A    between atoms: O_33  and  C_34
REMARK                            x       y       z     vdW  Elec       q    Type
REMARK                         _______ _______ _______ _____ _____    ______ ____
ROOT
ATOM      1  N   UNL     1       0.453  10.632  19.363  0.00  0.00    +0.000 N 
ATOM      2  C   UNL     1      -0.865  10.659  18.948  0.00  0.00    +0.000 C 
ATOM      3  O   UNL     1      -1.524   9.703  18.558  0.00  0.00    +0.000 OA
ATOM      4  H   UNL     1       0.639  11.303  20.122  0.00  0.00    +0.000 HD
ENDROOT
BRANCH   1  11
ATOM      5  C   UNL     1       3.646   5.099  18.902  0.00  0.00    +0.000 A 
ATOM      6  C   UNL     1       2.841   5.649  19.903  0.00  0.00    +0.000 A 
ATOM      7  C   UNL     1       2.275   6.911  19.753  0.00  0.00    +0.000 A 
ATOM      8  N   UNL     1       1.496   7.408  20.795  0.00  0.00    +0.000 NA
ATOM      9  C   UNL     1       0.967   8.588  20.691  0.00  0.00    +0.000 A 
ATOM     10  C   UNL     1       0.125   9.017  21.864  0.00  0.00    +0.000 C 
ATOM     11  N   UNL     1       1.179   9.417  19.594  0.00  0.00    +0.000 N 
ATOM     12  C   UNL     1       1.869   8.953  18.469  0.00  0.00    +0.000 A 
ATOM     13  O   UNL     1       1.928   9.571  17.405  0.00  0.00    +0.000 OA
ATOM     14  C   UNL     1       2.494   7.615  18.576  0.00  0.00    +0.000 A 
ATOM     15  C   UNL     1       3.250   7.055  17.532  0.00  0.00    +0.000 A 
ATOM     16  C   UNL     1       3.838   5.791  17.692  0.00  0.00    +0.000 A 
BRANCH   5  18
ATOM     17  C   UNL     1       3.276   2.761  18.919  0.00  0.00    +0.000 C 
ATOM     18  O   UNL     1       4.139   3.856  19.214  0.00  0.00    +0.000 OA
ENDBRANCH   5  18
BRANCH  16  19
ATOM     19  O   UNL     1       4.573   5.153  16.733  0.00  0.00    +0.000 OA
ATOM     20  C   UNL     1       5.438   5.911  15.904  0.00  0.00    +0.000 C 
ENDBRANCH  16  19
ENDBRANCH   1  11
BRANCH   2  21
ATOM     21  C   UNL     1      -1.484  12.045  18.986  0.00  0.00    +0.000 C 
BRANCH  21  22
ATOM     22  C   UNL     1      -0.497  13.086  18.474  0.00  0.00    +0.000 C 
BRANCH  22  23
ATOM     23  N   UNL     1      -0.442  14.293  19.316  0.00  0.00    +0.000 NA
ATOM     24  C   UNL     1      -0.153  14.022  20.745  0.00  0.00    +0.000 C 
ATOM     25  C   UNL     1       1.270  13.509  21.020  0.00  0.00    +0.000 C 
ATOM     26  N   UNL     1       2.264  14.438  20.483  0.00  0.00    +0.000 N 
ATOM     27  C   UNL     1       3.211  14.981  21.358  0.00  0.00    +0.000 C 
ATOM     28  O   UNL     1       3.174  14.703  22.560  0.00  0.00    +0.000 OA
ATOM     29  C   UNL     1       2.051  14.808  19.076  0.00  0.00    +0.000 C 
ATOM     30  C   UNL     1       0.588  15.229  18.804  0.00  0.00    +0.000 C 
BRANCH  27  31
ATOM     31  C   UNL     1       4.207  15.912  20.858  0.00  0.00    +0.000 A 
ATOM     32  C   UNL     1       4.209  17.296  20.884  0.00  0.00    +0.000 A 
ATOM     33  C   UNL     1       5.392  17.720  20.237  0.00  0.00    +0.000 A 
ATOM     34  C   UNL     1       6.071  16.574  19.901  0.00  0.00    +0.000 A 
ATOM     35  O   UNL     1       5.382  15.478  20.307  0.00  0.00    +0.000 OA
ENDBRANCH  27  31
ENDBRANCH  22  23
ENDBRANCH  21  22
ENDBRANCH   2  21
TORSDOF 7
ENDMDL
MODEL 8
REMARK VINA RESULT:      -7.2      3.035     11.834
REMARK  Name = 
REMARK  10 active torsions:
REMARK  status: ('A' for Active; 'I' for Inactive)
REMARK    1  A    between atoms: C_1  and  O_2
REMARK    2  A    between atoms: O_2  and  C_3
REMARK    3  A    between atoms: C_7  and  C_8
REMARK    4  A    between atoms: N_9  and  N_10
REMARK    5  A    between atoms: C_11  and  C_13
REMARK    6  A    between atoms: C_13  and  C_14
REMARK    7  A    between atoms: C_14  and  N_15
REMARK    8  A    between atoms: C_19  and  C_21
REMARK    9  A    between atoms: C_32  and  O_33
REMARK   10  A    between atoms: O_33  and  C_34
REMARK                            x       y       z     vdW  Elec       q    Type
REMARK                         _______ _______ _______ _____ _____    ______ ____
ROOT
ATOM      1  N   UNL     1       0.900  10.302  18.264  0.00  0.00    +0.000 N 
ATOM      2  C   UNL     1       1.536   9.164  18.723  0.00  0.00    +0.000 C 
ATOM      3  O   UNL     1       1.336   8.599  19.792  0.00  0.00    +0.000 OA
ATOM      4  H   UNL     1       0.768  10.294  17.244  0.00  0.00    +0.000 HD
ENDROOT
BRANCH   1  11
ATOM      5  C   UNL     1      -4.838  12.733  19.747  0.00  0.00    +0.000 A 
ATOM      6  C   UNL     1      -3.562  12.916  20.288  0.00  0.00    +0.000 A 
ATOM      7  C   UNL     1      -2.464  12.229  19.778  0.00  0.00    +0.000 A 
ATOM      8  N   UNL     1      -1.223  12.444  20.372  0.00  0.00    +0.000 NA
ATOM      9  C   UNL     1      -0.184  11.807  19.929  0.00  0.00    +0.000 A 
ATOM     10  C   UNL     1       1.111  12.132  20.626  0.00  0.00    +0.000 C 
ATOM     11  N   UNL     1      -0.253  10.869  18.904  0.00  0.00    +0.000 N 
ATOM     12  C   UNL     1      -1.443  10.669  18.195  0.00  0.00    +0.000 A 
ATOM     13  O   UNL     1      -1.517   9.994  17.168  0.00  0.00    +0.000 OA
ATOM     14  C   UNL     1      -2.643  11.374  18.698  0.00  0.00    +0.000 A 
ATOM     15  C   UNL     1      -3.907  11.223  18.101  0.00  0.00    +0.000 A 
ATOM     16  C   UNL     1      -5.016  11.900  18.628  0.00  0.00    +0.000 A 
BRANCH   5  18
ATOM     17  C   UNL     1      -5.342  14.443  21.305  0.00  0.00    +0.000 C 
ATOM     18  O   UNL     1      -5.811  13.471  20.375  0.00  0.00    +0.000 OA
ENDBRANCH   5  18
BRANCH  16  19
ATOM     19  O   UNL     1      -6.280  11.835  18.111  0.00  0.00    +0.000 OA
ATOM     20  C   UNL     1      -6.689  12.799  17.155  0.00  0.00    +0.000 C 
ENDBRANCH  16  19
ENDBRANCH   1  11
BRANCH   2  21
ATOM     21  C   UNL     1       2.587   8.630  17.766  0.00  0.00    +0.000 C 
BRANCH  21  22
ATOM     22  C   UNL     1       2.817   7.142  18.000  0.00  0.00    +0.000 C 
BRANCH  22  23
ATOM     23  N   UNL     1       4.238   6.797  18.167  0.00  0.00    +0.000 NA
ATOM     24  C   UNL     1       4.487   5.354  18.399  0.00  0.00    +0.000 C 
ATOM     25  C   UNL     1       4.193   4.454  17.188  0.00  0.00    +0.000 C 
ATOM     26  N   UNL     1       4.949   4.903  16.018  0.00  0.00    +0.000 N 
ATOM     27  C   UNL     1       5.818   4.000  15.398  0.00  0.00    +0.000 C 
ATOM     28  O   UNL     1       5.961   2.864  15.858  0.00  0.00    +0.000 OA
ATOM     29  C   UNL     1       4.806   6.335  15.718  0.00  0.00    +0.000 C 
ATOM     30  C   UNL     1       5.012   7.214  16.973  0.00  0.00    +0.000 C 
BRANCH  27  31
ATOM     31  C   UNL     1       6.588   4.416  14.240  0.00  0.00    +0.000 A 
ATOM     32  C   UNL     1       6.456   4.040  12.914  0.00  0.00    +0.000 A 
ATOM     33  C   UNL     1       7.474   4.706  12.193  0.00  0.00    +0.000 A 
ATOM     34  C   UNL     1       8.135   5.489  13.106  0.00  0.00    +0.000 A 
ATOM     35  O   UNL     1       7.583   5.351  14.338  0.00  0.00    +0.000 OA
ENDBRANCH  27  31
ENDBRANCH  22  23
ENDBRANCH  21  22
ENDBRANCH   2  21
TORSDOF 7
ENDMDL
MODEL 9
REMARK VINA RESULT:      -7.1      4.250      6.386
REMARK  Name = 
REMARK  10 active torsions:
REMARK  status: ('A' for Active; 'I' for Inactive)
REMARK    1  A    between atoms: C_1  and  O_2
REMARK    2  A    between atoms: O_2  and  C_3
REMARK    3  A    between atoms: C_7  and  C_8
REMARK    4  A    between atoms: N_9  and  N_10
REMARK    5  A    between atoms: C_11  and  C_13
REMARK    6  A    between atoms: C_13  and  C_14
REMARK    7  A    between atoms: C_14  and  N_15
REMARK    8  A    between atoms: C_19  and  C_21
REMARK    9  A    between atoms: C_32  and  O_33
REMARK   10  A    between atoms: O_33  and  C_34
REMARK                            x       y       z     vdW  Elec       q    Type
REMARK                         _______ _______ _______ _____ _____    ______ ____
ROOT
ATOM      1  N   UNL     1       1.129  10.538  19.248  0.00  0.00    +0.000 N 
ATOM      2  C   UNL     1      -0.166  10.842  18.868  0.00  0.00    +0.000 C 
ATOM      3  O   UNL     1      -1.060  10.040  18.626  0.00  0.00    +0.000 OA
ATOM      4  H   UNL     1       1.517  11.229  19.905  0.00  0.00    +0.000 HD
ENDROOT
BRANCH   1  11
ATOM      5  C   UNL     1       2.919   4.392  19.430  0.00  0.00    +0.000 A 
ATOM      6  C   UNL     1       2.275   5.220  20.354  0.00  0.00    +0.000 A 
ATOM      7  C   UNL     1       2.022   6.556  20.061  0.00  0.00    +0.000 A 
ATOM      8  N   UNL     1       1.392   7.331  21.031  0.00  0.00    +0.000 NA
ATOM      9  C   UNL     1       1.156   8.584  20.793  0.00  0.00    +0.000 A 
ATOM     10  C   UNL     1       0.449   9.323  21.899  0.00  0.00    +0.000 C 
ATOM     11  N   UNL     1       1.549   9.217  19.619  0.00  0.00    +0.000 N 
ATOM     12  C   UNL     1       2.100   8.486  18.561  0.00  0.00    +0.000 A 
ATOM     13  O   UNL     1       2.294   8.955  17.438  0.00  0.00    +0.000 OA
ATOM     14  C   UNL     1       2.392   7.059  18.820  0.00  0.00    +0.000 A 
ATOM     15  C   UNL     1       2.985   6.227  17.854  0.00  0.00    +0.000 A 
ATOM     16  C   UNL     1       3.259   4.885  18.157  0.00  0.00    +0.000 A 
BRANCH   5  18
ATOM     17  C   UNL     1       2.553   2.818  21.161  0.00  0.00    +0.000 C 
ATOM     18  O   UNL     1       3.107   3.108  19.880  0.00  0.00    +0.000 OA
ENDBRANCH   5  18
BRANCH  16  19
ATOM     19  O   UNL     1       3.815   3.993  17.284  0.00  0.00    +0.000 OA
ATOM     20  C   UNL     1       4.837   4.429  16.404  0.00  0.00    +0.000 C 
ENDBRANCH  16  19
ENDBRANCH   1  11
BRANCH   2  21
ATOM     21  C   UNL     1      -0.425  12.332  18.738  0.00  0.00    +0.000 C 
BRANCH  21  22
ATOM     22  C   UNL     1       0.751  13.130  19.287  0.00  0.00    +0.000 C 
BRANCH  22  23
ATOM     23  N   UNL     1       1.208  14.189  18.371  0.00  0.00    +0.000 NA
ATOM     24  C   UNL     1       0.836  15.560  18.798  0.00  0.00    +0.000 C 
ATOM     25  C   UNL     1       1.557  16.050  20.064  0.00  0.00    +0.000 C 
ATOM     26  N   UNL     1       3.008  15.962  19.897  0.00  0.00    +0.000 N 
ATOM     27  C   UNL     1       3.769  17.126  20.046  0.00  0.00    +0.000 C 
ATOM     28  O   UNL     1       3.212  18.203  20.279  0.00  0.00    +0.000 OA
ATOM     29  C   UNL     1       3.486  14.651  19.436  0.00  0.00    +0.000 C 
ATOM     30  C   UNL     1       2.683  14.136  18.220  0.00  0.00    +0.000 C 
BRANCH  27  31
ATOM     31  C   UNL     1       5.210  17.075  19.879  0.00  0.00    +0.000 A 
ATOM     32  C   UNL     1       6.182  16.630  20.758  0.00  0.00    +0.000 A 
ATOM     33  C   UNL     1       7.432  16.825  20.125  0.00  0.00    +0.000 A 
ATOM     34  C   UNL     1       7.150  17.327  18.878  0.00  0.00    +0.000 A 
ATOM     35  O   UNL     1       5.810  17.444  18.705  0.00  0.00    +0.000 OA
ENDBRANCH  27  31
ENDBRANCH  22  23
ENDBRANCH  21  22
ENDBRANCH   2  21
TORSDOF 7
ENDMDL
