MODEL 1
REMARK VINA RESULT:      -7.9      0.000      0.000
REMARK  Name = 
REMARK  8 active torsions:
REMARK  status: ('A' for Active; 'I' for Inactive)
REMARK    1  A    between atoms: C_1  and  O_2
REMARK    2  A    between atoms: O_2  and  C_3
REMARK    3  A    between atoms: C_5  and  N_6
REMARK    4  A    between atoms: C_7  and  C_9
REMARK    5  A    between atoms: C_9  and  N_10
REMARK    6  A    between atoms: N_13  and  C_14
REMARK    7  A    between atoms: C_24  and  O_25
REMARK    8  A    between atoms: O_25  and  C_26
REMARK                            x       y       z     vdW  Elec       q    Type
REMARK                         _______ _______ _______ _____ _____    ______ ____
ROOT
ATOM      1  N   UNL     1       8.247   9.567  17.941  0.00  0.00    +0.000 N 
ATOM      2  C   UNL     1       8.115   8.213  18.188  0.00  0.00    +0.000 C 
ATOM      3  O   UNL     1       8.754   7.560  19.017  0.00  0.00    +0.000 OA
ATOM      4  H   UNL     1       7.666   9.920  17.187  0.00  0.00    +0.000 HD
ENDROOT
BRANCH   1   7
ATOM      5  C   UNL     1      11.109  11.943  18.428  0.00  0.00    +0.000 A 
ATOM      6  C   UNL     1      10.223  11.056  17.809  0.00  0.00    +0.000 A 
ATOM      7  C   UNL     1       9.189  10.445  18.524  0.00  0.00    +0.000 A 
ATOM      8  C   UNL     1       9.065  10.733  19.889  0.00  0.00    +0.000 A 
ATOM      9  C   UNL     1       9.941  11.627  20.519  0.00  0.00    +0.000 A 
ATOM     10  C   UNL     1      10.964  12.228  19.784  0.00  0.00    +0.000 A 
BRANCH   5  12
ATOM     11  C   UNL     1      11.634  13.425  16.637  0.00  0.00    +0.000 C 
ATOM     12  O   UNL     1      12.063  12.468  17.597  0.00  0.00    +0.000 OA
ENDBRANCH   5  12
BRANCH   9  13
ATOM     13  O   UNL     1       9.696  11.840  21.850  0.00  0.00    +0.000 OA
ATOM     14  C   UNL     1       9.128  13.097  22.204  0.00  0.00    +0.000 C 
ENDBRANCH   9  13
ENDBRANCH   1   7
BRANCH   2  15
ATOM     15  C   UNL     1       7.037   7.508  17.364  0.00  0.00    +0.000 C 
BRANCH  15  16
ATOM     16  N   UNL     1       7.059   6.023  17.442  0.00  0.00    +0.000 NA
ATOM     17  C   UNL     1       6.592   5.498  18.756  0.00  0.00    +0.000 C 
ATOM     18  C   UNL     1       5.135   5.845  19.119  0.00  0.00    +0.000 C 
ATOM     19  N   UNL     1       4.206   5.425  18.061  0.00  0.00    +0.000 N 
ATOM     20  C   UNL     1       4.595   5.743  16.675  0.00  0.00    +0.000 C 
ATOM     21  C   UNL     1       6.110   5.485  16.418  0.00  0.00    +0.000 C 
BRANCH  19  22
ATOM     22  C   UNL     1       3.314   4.380  18.278  0.00  0.00    +0.000 A 
ATOM     23  C   UNL     1       3.550   3.137  17.667  0.00  0.00    +0.000 A 
ATOM     24  C   UNL     1       2.661   2.064  17.810  0.00  0.00    +0.000 A 
ATOM     25  C   UNL     1       1.512   2.207  18.581  0.00  0.00    +0.000 A 
ATOM     26  C   UNL     1       1.253   3.424  19.203  0.00  0.00    +0.000 A 
ATOM     27  C   UNL     1       2.141   4.488  19.049  0.00  0.00    +0.000 A 
ATOM     28  F   UNL     1       1.854   5.628  19.698  0.00  0.00    +0.000 F 
ENDBRANCH  19  22
ENDBRANCH  15  16
ENDBRANCH   2  15
TORSDOF 6
ENDMDL
MODEL 2
REMARK VINA RESULT:      -7.8      0.578      2.380
REMARK  Name = 
REMARK  8 active torsions:
REMARK  status: ('A' for Active; 'I' for Inactive)
REMARK    1  A    between atoms: C_1  and  O_2
REMARK    2  A    between atoms: O_2  and  C_3
REMARK    3  A    between atoms: C_5  and  N_6
REMARK    4  A    between atoms: C_7  and  C_9
REMARK    5  A    between atoms: C_9  and  N_10
REMARK    6  A    between atoms: N_13  and  C_14
REMARK    7  A    between atoms: C_24  and  O_25
REMARK    8  A    between atoms: O_25  and  C_26
REMARK                            x       y       z     vdW  Elec       q    Type
REMARK                         _______ _______ _______ _____ _____    ______ ____
ROOT
ATOM      1  N   UNL     1       8.335   9.663  17.946  0.00  0.00    +0.000 N 
ATOM      2  C   UNL     1       8.220   8.309  18.196  0.00  0.00    +0.000 C 
ATOM      3  O   UNL     1       8.812   7.679  19.077  0.00  0.00    +0.000 OA
ATOM      4  H   UNL     1       7.802   9.995  17.148  0.00  0.00    +0.000 HD
ENDROOT
BRANCH   1   7
ATOM      5  C   UNL     1       9.993  11.826  20.524  0.00  0.00    +0.000 A 
ATOM      6  C   UNL     1       9.082  10.949  19.928  0.00  0.00    +0.000 A 
ATOM      7  C   UNL     1       9.209  10.571  18.589  0.00  0.00    +0.000 A 
ATOM      8  C   UNL     1      10.269  11.102  17.845  0.00  0.00    +0.000 A 
ATOM      9  C   UNL     1      11.195  11.975  18.433  0.00  0.00    +0.000 A 
ATOM     10  C   UNL     1      11.050  12.337  19.774  0.00  0.00    +0.000 A 
BRANCH   5  12
ATOM     11  C   UNL     1       9.325  13.415  22.170  0.00  0.00    +0.000 C 
ATOM     12  O   UNL     1       9.744  12.097  21.844  0.00  0.00    +0.000 OA
ENDBRANCH   5  12
BRANCH   9  13
ATOM     13  O   UNL     1      12.197  12.403  17.604  0.00  0.00    +0.000 OA
ATOM     14  C   UNL     1      11.932  13.565  16.824  0.00  0.00    +0.000 C 
ENDBRANCH   9  13
ENDBRANCH   1   7
BRANCH   2  15
ATOM     15  C   UNL     1       7.224   7.569  17.302  0.00  0.00    +0.000 C 
BRANCH  15  16
ATOM     16  N   UNL     1       7.294   6.086  17.378  0.00  0.00    +0.000 NA
ATOM     17  C   UNL     1       6.774   5.538  18.662  0.00  0.00    +0.000 C 
ATOM     18  C   UNL     1       5.288   5.832  18.944  0.00  0.00    +0.000 C 
ATOM     19  N   UNL     1       4.434   5.384  17.835  0.00  0.00    +0.000 N 
ATOM     20  C   UNL     1       4.888   5.722  16.474  0.00  0.00    +0.000 C 
ATOM     21  C   UNL     1       6.424   5.518  16.301  0.00  0.00    +0.000 C 
BRANCH  19  22
ATOM     22  C   UNL     1       3.570   4.307  18.000  0.00  0.00    +0.000 A 
ATOM     23  C   UNL     1       4.103   3.021  18.192  0.00  0.00    +0.000 A 
ATOM     24  C   UNL     1       3.281   1.893  18.314  0.00  0.00    +0.000 A 
ATOM     25  C   UNL     1       1.898   2.026  18.255  0.00  0.00    +0.000 A 
ATOM     26  C   UNL     1       1.339   3.287  18.072  0.00  0.00    +0.000 A 
ATOM     27  C   UNL     1       2.167   4.403  17.946  0.00  0.00    +0.000 A 
ATOM     28  F   UNL     1       1.570   5.597  17.801  0.00  0.00    +0.000 F 
ENDBRANCH  19  22
ENDBRANCH  15  16
ENDBRANCH   2  15
TORSDOF 6
ENDMDL
MODEL 3
REMARK VINA RESULT:      -7.5      1.470      2.802
REMARK  Name = 
REMARK  8 active torsions:
REMARK  status: ('A' for Active; 'I' for Inactive)
REMARK    1  A    between atoms: C_1  and  O_2
REMARK    2  A    between atoms: O_2  and  C_3
REMARK    3  A    between atoms: C_5  and  N_6
REMARK    4  A    between atoms: C_7  and  C_9
REMARK    5  A    between atoms: C_9  and  N_10
REMARK    6  A    between atoms: N_13  and  C_14
REMARK    7  A    between atoms: C_24  and  O_25
REMARK    8  A    between atoms: O_25  and  C_26
REMARK                            x       y       z     vdW  Elec       q    Type
REMARK                         _______ _______ _______ _____ _____    ______ ____
ROOT
ATOM      1  N   UNL     1       9.042   9.075  19.047  0.00  0.00    +0.000 N 
ATOM      2  C   UNL     1       8.181   8.604  18.075  0.00  0.00    +0.000 C 
ATOM      3  O   UNL     1       7.668   9.271  17.172  0.00  0.00    +0.000 OA
ATOM      4  H   UNL     1       9.326   8.383  19.734  0.00  0.00    +0.000 HD
ENDROOT
BRANCH   1   7
ATOM      5  C   UNL     1       9.777  12.392  20.638  0.00  0.00    +0.000 A 
ATOM      6  C   UNL     1       9.344  11.072  20.483  0.00  0.00    +0.000 A 
ATOM      7  C   UNL     1       9.435  10.418  19.251  0.00  0.00    +0.000 A 
ATOM      8  C   UNL     1       9.962  11.122  18.162  0.00  0.00    +0.000 A 
ATOM      9  C   UNL     1      10.408  12.443  18.306  0.00  0.00    +0.000 A 
ATOM     10  C   UNL     1      10.310  13.075  19.547  0.00  0.00    +0.000 A 
BRANCH   5  12
ATOM     11  C   UNL     1       9.646  14.309  22.048  0.00  0.00    +0.000 C 
ATOM     12  O   UNL     1       9.633  12.894  21.904  0.00  0.00    +0.000 OA
ENDBRANCH   5  12
BRANCH   9  13
ATOM     13  O   UNL     1      10.924  13.009  17.171  0.00  0.00    +0.000 OA
ATOM     14  C   UNL     1      11.048  14.428  17.161  0.00  0.00    +0.000 C 
ENDBRANCH   9  13
ENDBRANCH   1   7
BRANCH   2  15
ATOM     15  C   UNL     1       7.898   7.102  18.134  0.00  0.00    +0.000 C 
BRANCH  15  16
ATOM     16  N   UNL     1       6.961   6.599  17.095  0.00  0.00    +0.000 NA
ATOM     17  C   UNL     1       6.987   5.116  16.949  0.00  0.00    +0.000 C 
ATOM     18  C   UNL     1       6.570   4.328  18.206  0.00  0.00    +0.000 C 
ATOM     19  N   UNL     1       5.250   4.752  18.690  0.00  0.00    +0.000 N 
ATOM     20  C   UNL     1       5.007   6.205  18.757  0.00  0.00    +0.000 C 
ATOM     21  C   UNL     1       5.567   6.951  17.509  0.00  0.00    +0.000 C 
BRANCH  19  22
ATOM     22  C   UNL     1       4.156   3.898  18.599  0.00  0.00    +0.000 A 
ATOM     23  C   UNL     1       3.606   3.356  19.773  0.00  0.00    +0.000 A 
ATOM     24  C   UNL     1       2.537   2.452  19.738  0.00  0.00    +0.000 A 
ATOM     25  C   UNL     1       1.982   2.073  18.520  0.00  0.00    +0.000 A 
ATOM     26  C   UNL     1       2.500   2.596  17.340  0.00  0.00    +0.000 A 
ATOM     27  C   UNL     1       3.570   3.491  17.385  0.00  0.00    +0.000 A 
ATOM     28  F   UNL     1       4.008   3.986  16.216  0.00  0.00    +0.000 F 
ENDBRANCH  19  22
ENDBRANCH  15  16
ENDBRANCH   2  15
TORSDOF 6
ENDMDL
MODEL 4
REMARK VINA RESULT:      -7.4      6.834      9.880
REMARK  Name = 
REMARK  8 active torsions:
REMARK  status: ('A' for Active; 'I' for Inactive)
REMARK    1  A    between atoms: C_1  and  O_2
REMARK    2  A    between atoms: O_2  and  C_3
REMARK    3  A    between atoms: C_5  and  N_6
REMARK    4  A    between atoms: C_7  and  C_9
REMARK    5  A    between atoms: C_9  and  N_10
REMARK    6  A    between atoms: N_13  and  C_14
REMARK    7  A    between atoms: C_24  and  O_25
REMARK    8  A    between atoms: O_25  and  C_26
REMARK                            x       y       z     vdW  Elec       q    Type
REMARK                         _______ _______ _______ _____ _____    ______ ____
ROOT
ATOM      1  N   UNL     1       2.326   7.288  19.089  0.00  0.00    +0.000 N 
ATOM      2  C   UNL     1       2.003   8.524  18.562  0.00  0.00    +0.000 C 
ATOM      3  O   UNL     1       2.046   8.840  17.370  0.00  0.00    +0.000 OA
ATOM      4  H   UNL     1       2.273   7.231  20.101  0.00  0.00    +0.000 HD
ENDROOT
BRANCH   1   7
ATOM      5  C   UNL     1       4.598   5.019  17.150  0.00  0.00    +0.000 A 
ATOM      6  C   UNL     1       4.119   6.155  17.808  0.00  0.00    +0.000 A 
ATOM      7  C   UNL     1       2.846   6.178  18.385  0.00  0.00    +0.000 A 
ATOM      8  C   UNL     1       2.048   5.032  18.279  0.00  0.00    +0.000 A 
ATOM      9  C   UNL     1       2.520   3.883  17.630  0.00  0.00    +0.000 A 
ATOM     10  C   UNL     1       3.796   3.883  17.063  0.00  0.00    +0.000 A 
BRANCH   5  12
ATOM     11  C   UNL     1       6.947   4.849  17.517  0.00  0.00    +0.000 C 
ATOM     12  O   UNL     1       5.865   5.144  16.643  0.00  0.00    +0.000 OA
ENDBRANCH   5  12
BRANCH   9  13
ATOM     13  O   UNL     1       1.651   2.825  17.618  0.00  0.00    +0.000 OA
ATOM     14  C   UNL     1       0.969   2.542  18.836  0.00  0.00    +0.000 C 
ENDBRANCH   9  13
ENDBRANCH   1   7
BRANCH   2  15
ATOM     15  C   UNL     1       1.511   9.553  19.581  0.00  0.00    +0.000 C 
BRANCH  15  16
ATOM     16  N   UNL     1       0.050   9.517  19.853  0.00  0.00    +0.000 NA
ATOM     17  C   UNL     1      -0.274   9.282  21.289  0.00  0.00    +0.000 C 
ATOM     18  C   UNL     1       0.235  10.364  22.260  0.00  0.00    +0.000 C 
ATOM     19  N   UNL     1      -0.228  11.700  21.862  0.00  0.00    +0.000 N 
ATOM     20  C   UNL     1      -0.111  12.042  20.433  0.00  0.00    +0.000 C 
ATOM     21  C   UNL     1      -0.525  10.855  19.511  0.00  0.00    +0.000 C 
BRANCH  19  22
ATOM     22  C   UNL     1      -1.161  12.383  22.635  0.00  0.00    +0.000 A 
ATOM     23  C   UNL     1      -2.365  11.746  22.982  0.00  0.00    +0.000 A 
ATOM     24  C   UNL     1      -3.362  12.402  23.716  0.00  0.00    +0.000 A 
ATOM     25  C   UNL     1      -3.173  13.716  24.131  0.00  0.00    +0.000 A 
ATOM     26  C   UNL     1      -1.990  14.372  23.809  0.00  0.00    +0.000 A 
ATOM     27  C   UNL     1      -1.006  13.712  23.072  0.00  0.00    +0.000 A 
ATOM     28  F   UNL     1       0.127  14.387  22.816  0.00  0.00    +0.000 F 
ENDBRANCH  19  22
ENDBRANCH  15  16
ENDBRANCH   2  15
TORSDOF 6
ENDMDL
MODEL 5
REMARK VINA RESULT:      -7.4      5.827      7.947
REMARK  Name = 
REMARK  8 active torsions:
REMARK  status: ('A' for Active; 'I' for Inactive)
REMARK    1  A    between atoms: C_1  and  O_2
REMARK    2  A    between atoms: O_2  and  C_3
REMARK    3  A    between atoms: C_5  and  N_6
REMARK    4  A    between atoms: C_7  and  C_9
REMARK    5  A    between atoms: C_9  and  N_10
REMARK    6  A    between atoms: N_13  and  C_14
REMARK    7  A    between atoms: C_24  and  O_25
REMARK    8  A    between atoms: O_25  and  C_26
REMARK                            x       y       z     vdW  Elec       q    Type
REMARK                         _______ _______ _______ _____ _____    ______ ____
ROOT
ATOM      1  N   UNL     1       2.213   6.773  20.695  0.00  0.00    +0.000 N 
ATOM      2  C   UNL     1       1.751   5.471  20.657  0.00  0.00    +0.000 C 
ATOM      3  O   UNL     1       0.572   5.119  20.572  0.00  0.00    +0.000 OA
ATOM      4  H   UNL     1       3.217   6.865  20.813  0.00  0.00    +0.000 HD
ENDROOT
BRANCH   1   7
ATOM      5  C   UNL     1      -0.066   9.528  21.830  0.00  0.00    +0.000 A 
ATOM      6  C   UNL     1       0.668   8.339  21.836  0.00  0.00    +0.000 A 
ATOM      7  C   UNL     1       1.427   7.948  20.730  0.00  0.00    +0.000 A 
ATOM      8  C   UNL     1       1.427   8.773  19.599  0.00  0.00    +0.000 A 
ATOM      9  C   UNL     1       0.702   9.973  19.583  0.00  0.00    +0.000 A 
ATOM     10  C   UNL     1      -0.046  10.345  20.701  0.00  0.00    +0.000 A 
BRANCH   5  12
ATOM     11  C   UNL     1      -1.254  11.098  23.173  0.00  0.00    +0.000 C 
ATOM     12  O   UNL     1      -0.752   9.781  22.988  0.00  0.00    +0.000 OA
ENDBRANCH   5  12
BRANCH   9  13
ATOM     13  O   UNL     1       0.807  10.699  18.426  0.00  0.00    +0.000 OA
ATOM     14  C   UNL     1       2.123  11.003  17.976  0.00  0.00    +0.000 C 
ENDBRANCH   9  13
ENDBRANCH   1   7
BRANCH   2  15
ATOM     15  C   UNL     1       2.841   4.398  20.683  0.00  0.00    +0.000 C 
BRANCH  15  16
ATOM     16  N   UNL     1       2.888   3.522  19.483  0.00  0.00    +0.000 NA
ATOM     17  C   UNL     1       2.552   4.238  18.220  0.00  0.00    +0.000 C 
ATOM     18  C   UNL     1       3.505   5.391  17.848  0.00  0.00    +0.000 C 
ATOM     19  N   UNL     1       4.901   4.937  17.801  0.00  0.00    +0.000 N 
ATOM     20  C   UNL     1       5.357   4.087  18.916  0.00  0.00    +0.000 C 
ATOM     21  C   UNL     1       4.290   3.025  19.318  0.00  0.00    +0.000 C 
BRANCH  19  22
ATOM     22  C   UNL     1       5.580   4.865  16.589  0.00  0.00    +0.000 A 
ATOM     23  C   UNL     1       4.930   4.319  15.468  0.00  0.00    +0.000 A 
ATOM     24  C   UNL     1       5.581   4.176  14.236  0.00  0.00    +0.000 A 
ATOM     25  C   UNL     1       6.902   4.587  14.091  0.00  0.00    +0.000 A 
ATOM     26  C   UNL     1       7.570   5.136  15.180  0.00  0.00    +0.000 A 
ATOM     27  C   UNL     1       6.916   5.269  16.405  0.00  0.00    +0.000 A 
ATOM     28  F   UNL     1       7.602   5.834  17.412  0.00  0.00    +0.000 F 
ENDBRANCH  19  22
ENDBRANCH  15  16
ENDBRANCH   2  15
TORSDOF 6
ENDMDL
MODEL 6
REMARK VINA RESULT:      -7.3      5.858      7.568
REMARK  Name = 
REMARK  8 active torsions:
REMARK  status: ('A' for Active; 'I' for Inactive)
REMARK    1  A    between atoms: C_1  and  O_2
REMARK    2  A    between atoms: O_2  and  C_3
REMARK    3  A    between atoms: C_5  and  N_6
REMARK    4  A    between atoms: C_7  and  C_9
REMARK    5  A    between atoms: C_9  and  N_10
REMARK    6  A    between atoms: N_13  and  C_14
REMARK    7  A    between atoms: C_24  and  O_25
REMARK    8  A    between atoms: O_25  and  C_26
REMARK                            x       y       z     vdW  Elec       q    Type
REMARK                         _______ _______ _______ _____ _____    ______ ____
ROOT
ATOM      1  N   UNL     1       2.315   6.809  20.610  0.00  0.00    +0.000 N 
ATOM      2  C   UNL     1       1.806   5.525  20.555  0.00  0.00    +0.000 C 
ATOM      3  O   UNL     1       0.617   5.219  20.437  0.00  0.00    +0.000 OA
ATOM      4  H   UNL     1       3.318   6.863  20.755  0.00  0.00    +0.000 HD
ENDROOT
BRANCH   1   7
ATOM      5  C   UNL     1       0.740  10.064  19.610  0.00  0.00    +0.000 A 
ATOM      6  C   UNL     1       1.515   8.902  19.552  0.00  0.00    +0.000 A 
ATOM      7  C   UNL     1       1.573   8.013  20.628  0.00  0.00    +0.000 A 
ATOM      8  C   UNL     1       0.843   8.319  21.783  0.00  0.00    +0.000 A 
ATOM      9  C   UNL     1       0.054   9.476  21.851  0.00  0.00    +0.000 A 
ATOM     10  C   UNL     1       0.009  10.348  20.761  0.00  0.00    +0.000 A 
BRANCH   5  12
ATOM     11  C   UNL     1       2.034  10.975  17.828  0.00  0.00    +0.000 C 
ATOM     12  O   UNL     1       0.777  10.831  18.475  0.00  0.00    +0.000 OA
ENDBRANCH   5  12
BRANCH   9  13
ATOM     13  O   UNL     1      -0.629   9.645  23.026  0.00  0.00    +0.000 OA
ATOM     14  C   UNL     1      -1.340  10.869  23.183  0.00  0.00    +0.000 C 
ENDBRANCH   9  13
ENDBRANCH   1   7
BRANCH   2  15
ATOM     15  C   UNL     1       2.854   4.412  20.605  0.00  0.00    +0.000 C 
BRANCH  15  16
ATOM     16  N   UNL     1       2.890   3.530  19.409  0.00  0.00    +0.000 NA
ATOM     17  C   UNL     1       2.547   4.241  18.144  0.00  0.00    +0.000 C 
ATOM     18  C   UNL     1       3.499   5.389  17.760  0.00  0.00    +0.000 C 
ATOM     19  N   UNL     1       4.894   4.931  17.705  0.00  0.00    +0.000 N 
ATOM     20  C   UNL     1       5.356   4.086  18.821  0.00  0.00    +0.000 C 
ATOM     21  C   UNL     1       4.289   3.029  19.236  0.00  0.00    +0.000 C 
BRANCH  19  22
ATOM     22  C   UNL     1       5.564   4.852  16.489  0.00  0.00    +0.000 A 
ATOM     23  C   UNL     1       4.916   4.275  15.383  0.00  0.00    +0.000 A 
ATOM     24  C   UNL     1       5.558   4.124  14.148  0.00  0.00    +0.000 A 
ATOM     25  C   UNL     1       6.871   4.556  13.985  0.00  0.00    +0.000 A 
ATOM     26  C   UNL     1       7.538   5.136  15.059  0.00  0.00    +0.000 A 
ATOM     27  C   UNL     1       6.891   5.277  16.287  0.00  0.00    +0.000 A 
ATOM     28  F   UNL     1       7.575   5.871  17.278  0.00  0.00    +0.000 F 
ENDBRANCH  19  22
ENDBRANCH  15  16
ENDBRANCH   2  15
TORSDOF 6
ENDMDL
MODEL 7
REMARK VINA RESULT:      -7.3      6.722     10.067
REMARK  Name = 
REMARK  8 active torsions:
REMARK  status: ('A' for Active; 'I' for Inactive)
REMARK    1  A    between atoms: C_1  and  O_2
REMARK    2  A    between atoms: O_2  and  C_3
REMARK    3  A    between atoms: C_5  and  N_6
REMARK    4  A    between atoms: C_7  and  C_9
REMARK    5  A    between atoms: C_9  and  N_10
REMARK    6  A    between atoms: N_13  and  C_14
REMARK    7  A    between atoms: C_24  and  O_25
REMARK    8  A    between atoms: O_25  and  C_26
REMARK                            x       y       z     vdW  Elec       q    Type
REMARK                         _______ _______ _______ _____ _____    ______ ____
ROOT
ATOM      1  N   UNL     1       2.420   6.861  20.112  0.00  0.00    +0.000 N 
ATOM      2  C   UNL     1       2.074   7.850  19.211  0.00  0.00    +0.000 C 
ATOM      3  O   UNL     1       2.120   7.762  17.981  0.00  0.00    +0.000 OA
ATOM      4  H   UNL     1       2.358   7.134  21.087  0.00  0.00    +0.000 HD
ENDROOT
BRANCH   1   7
ATOM      5  C   UNL     1       2.807   3.194  19.419  0.00  0.00    +0.000 A 
ATOM      6  C   UNL     1       2.219   4.416  19.756  0.00  0.00    +0.000 A 
ATOM      7  C   UNL     1       2.970   5.594  19.807  0.00  0.00    +0.000 A 
ATOM      8  C   UNL     1       4.339   5.522  19.523  0.00  0.00    +0.000 A 
ATOM      9  C   UNL     1       4.939   4.304  19.174  0.00  0.00    +0.000 A 
ATOM     10  C   UNL     1       4.168   3.141  19.127  0.00  0.00    +0.000 A 
BRANCH   5  12
ATOM     11  C   UNL     1       0.638   2.362  18.887  0.00  0.00    +0.000 C 
ATOM     12  O   UNL     1       1.943   2.131  19.402  0.00  0.00    +0.000 OA
ENDBRANCH   5  12
BRANCH   9  13
ATOM     13  O   UNL     1       6.278   4.375  18.897  0.00  0.00    +0.000 OA
ATOM     14  C   UNL     1       6.639   4.715  17.561  0.00  0.00    +0.000 C 
ENDBRANCH   9  13
ENDBRANCH   1   7
BRANCH   2  15
ATOM     15  C   UNL     1       1.551   9.142  19.839  0.00  0.00    +0.000 C 
BRANCH  15  16
ATOM     16  N   UNL     1       0.094   9.152  20.134  0.00  0.00    +0.000 NA
ATOM     17  C   UNL     1      -0.211   9.084  21.591  0.00  0.00    +0.000 C 
ATOM     18  C   UNL     1       0.321  10.265  22.426  0.00  0.00    +0.000 C 
ATOM     19  N   UNL     1      -0.137  11.552  21.885  0.00  0.00    +0.000 N 
ATOM     20  C   UNL     1      -0.039  11.728  20.425  0.00  0.00    +0.000 C 
ATOM     21  C   UNL     1      -0.476  10.448  19.650  0.00  0.00    +0.000 C 
BRANCH  19  22
ATOM     22  C   UNL     1      -1.054  12.327  22.588  0.00  0.00    +0.000 A 
ATOM     23  C   UNL     1      -2.253  11.742  23.031  0.00  0.00    +0.000 A 
ATOM     24  C   UNL     1      -3.233  12.486  23.699  0.00  0.00    +0.000 A 
ATOM     25  C   UNL     1      -3.033  13.840  23.950  0.00  0.00    +0.000 A 
ATOM     26  C   UNL     1      -1.855  14.447  23.529  0.00  0.00    +0.000 A 
ATOM     27  C   UNL     1      -0.887  13.698  22.858  0.00  0.00    +0.000 A 
ATOM     28  F   UNL     1       0.243  14.332  22.502  0.00  0.00    +0.000 F 
ENDBRANCH  19  22
ENDBRANCH  15  16
ENDBRANCH   2  15
TORSDOF 6
ENDMDL
MODEL 8
REMARK VINA RESULT:      -7.3      1.207      1.289
REMARK  Name = 
REMARK  8 active torsions:
REMARK  status: ('A' for Active; 'I' for Inactive)
REMARK    1  A    between atoms: C_1  and  O_2
REMARK    2  A    between atoms: O_2  and  C_3
REMARK    3  A    between atoms: C_5  and  N_6
REMARK    4  A    between atoms: C_7  and  C_9
REMARK    5  A    between atoms: C_9  and  N_10
REMARK    6  A    between atoms: N_13  and  C_14
REMARK    7  A    between atoms: C_24  and  O_25
REMARK    8  A    between atoms: O_25  and  C_26
REMARK                            x       y       z     vdW  Elec       q    Type
REMARK                         _______ _______ _______ _____ _____    ______ ____
ROOT
ATOM      1  N   UNL     1       8.959   8.950  19.149  0.00  0.00    +0.000 N 
ATOM      2  C   UNL     1       8.187   8.372  18.159  0.00  0.00    +0.000 C 
ATOM      3  O   UNL     1       7.760   8.934  17.148  0.00  0.00    +0.000 OA
ATOM      4  H   UNL     1       9.177   8.339  19.930  0.00  0.00    +0.000 HD
ENDROOT
BRANCH   1   7
ATOM      5  C   UNL     1      10.016  12.443  18.279  0.00  0.00    +0.000 A 
ATOM      6  C   UNL     1       9.681  11.093  18.137  0.00  0.00    +0.000 A 
ATOM      7  C   UNL     1       9.336  10.310  19.241  0.00  0.00    +0.000 A 
ATOM      8  C   UNL     1       9.344  10.907  20.507  0.00  0.00    +0.000 A 
ATOM      9  C   UNL     1       9.669  12.262  20.663  0.00  0.00    +0.000 A 
ATOM     10  C   UNL     1      10.008  13.025  19.545  0.00  0.00    +0.000 A 
BRANCH   5  12
ATOM     11  C   UNL     1      11.242  14.163  17.176  0.00  0.00    +0.000 C 
ATOM     12  O   UNL     1      10.323  13.081  17.106  0.00  0.00    +0.000 OA
ENDBRANCH   5  12
BRANCH   9  13
ATOM     13  O   UNL     1       9.616  12.728  21.950  0.00  0.00    +0.000 OA
ATOM     14  C   UNL     1       8.568  13.642  22.257  0.00  0.00    +0.000 C 
ENDBRANCH   9  13
ENDBRANCH   1   7
BRANCH   2  15
ATOM     15  C   UNL     1       7.895   6.883  18.355  0.00  0.00    +0.000 C 
BRANCH  15  16
ATOM     16  N   UNL     1       7.121   6.246  17.257  0.00  0.00    +0.000 NA
ATOM     17  C   UNL     1       7.001   4.768  17.403  0.00  0.00    +0.000 C 
ATOM     18  C   UNL     1       6.264   4.294  18.670  0.00  0.00    +0.000 C 
ATOM     19  N   UNL     1       4.934   4.910  18.777  0.00  0.00    +0.000 N 
ATOM     20  C   UNL     1       4.854   6.358  18.516  0.00  0.00    +0.000 C 
ATOM     21  C   UNL     1       5.725   6.782  17.295  0.00  0.00    +0.000 C 
BRANCH  19  22
ATOM     22  C   UNL     1       3.786   4.141  18.622  0.00  0.00    +0.000 A 
ATOM     23  C   UNL     1       3.850   2.755  18.846  0.00  0.00    +0.000 A 
ATOM     24  C   UNL     1       2.738   1.925  18.657  0.00  0.00    +0.000 A 
ATOM     25  C   UNL     1       1.524   2.465  18.244  0.00  0.00    +0.000 A 
ATOM     26  C   UNL     1       1.427   3.834  18.019  0.00  0.00    +0.000 A 
ATOM     27  C   UNL     1       2.542   4.652  18.205  0.00  0.00    +0.000 A 
ATOM     28  F   UNL     1       2.380   5.969  18.001  0.00  0.00    +0.000 F 
ENDBRANCH  19  22
ENDBRANCH  15  16
ENDBRANCH   2  15
TORSDOF 6
ENDMDL
MODEL 9
REMARK VINA RESULT:      -7.2      6.962     10.028
REMARK  Name = 
REMARK  8 active torsions:
REMARK  status: ('A' for Active; 'I' for Inactive)
REMARK    1  A    between atoms: C_1  and  O_2
REMARK    2  A    between atoms: O_2  and  C_3
REMARK    3  A    between atoms: C_5  and  N_6
REMARK    4  A    between atoms: C_7  and  C_9
REMARK    5  A    between atoms: C_9  and  N_10
REMARK    6  A    between atoms: N_13  and  C_14
REMARK    7  A    between atoms: C_24  and  O_25
REMARK    8  A    between atoms: O_25  and  C_26
REMARK                            x       y       z     vdW  Elec       q    Type
REMARK                         _______ _______ _______ _____ _____    ______ ____
ROOT
ATOM      1  N   UNL     1       2.263   7.716  18.968  0.00  0.00    +0.000 N 
ATOM      2  C   UNL     1       1.876   8.900  18.369  0.00  0.00    +0.000 C 
ATOM      3  O   UNL     1       1.888   9.142  17.159  0.00  0.00    +0.000 OA
ATOM      4  H   UNL     1       2.226   7.721  19.982  0.00  0.00    +0.000 HD
ENDROOT
BRANCH   1   7
ATOM      5  C   UNL     1       2.739   4.298  17.497  0.00  0.00    +0.000 A 
ATOM      6  C   UNL     1       2.151   5.373  18.169  0.00  0.00    +0.000 A 
ATOM      7  C   UNL     1       2.824   6.588  18.326  0.00  0.00    +0.000 A 
ATOM      8  C   UNL     1       4.117   6.703  17.803  0.00  0.00    +0.000 A 
ATOM      9  C   UNL     1       4.716   5.635  17.120  0.00  0.00    +0.000 A 
ATOM     10  C   UNL     1       4.022   4.432  16.972  0.00  0.00    +0.000 A 
BRANCH   5  12
ATOM     11  C   UNL     1       2.502   1.962  17.908  0.00  0.00    +0.000 C 
ATOM     12  O   UNL     1       1.954   3.178  17.416  0.00  0.00    +0.000 OA
ENDBRANCH   5  12
BRANCH   9  13
ATOM     13  O   UNL     1       5.973   5.886  16.637  0.00  0.00    +0.000 OA
ATOM     14  C   UNL     1       6.354   5.195  15.451  0.00  0.00    +0.000 C 
ENDBRANCH   9  13
ENDBRANCH   1   7
BRANCH   2  15
ATOM     15  C   UNL     1       1.351   9.969  19.330  0.00  0.00    +0.000 C 
BRANCH  15  16
ATOM     16  N   UNL     1      -0.062   9.791  19.755  0.00  0.00    +0.000 NA
ATOM     17  C   UNL     1      -0.210   9.554  21.218  0.00  0.00    +0.000 C 
ATOM     18  C   UNL     1       0.282  10.702  22.120  0.00  0.00    +0.000 C 
ATOM     19  N   UNL     1      -0.354  11.976  21.759  0.00  0.00    +0.000 N 
ATOM     20  C   UNL     1      -0.421  12.298  20.322  0.00  0.00    +0.000 C 
ATOM     21  C   UNL     1      -0.804  11.057  19.461  0.00  0.00    +0.000 C 
BRANCH  19  22
ATOM     22  C   UNL     1      -1.268  12.577  22.619  0.00  0.00    +0.000 A 
ATOM     23  C   UNL     1      -2.454  11.898  22.945  0.00  0.00    +0.000 A 
ATOM     24  C   UNL     1      -3.432  12.475  23.766  0.00  0.00    +0.000 A 
ATOM     25  C   UNL     1      -3.242  13.749  24.290  0.00  0.00    +0.000 A 
ATOM     26  C   UNL     1      -2.076  14.445  23.990  0.00  0.00    +0.000 A 
ATOM     27  C   UNL     1      -1.110  13.864  23.167  0.00  0.00    +0.000 A 
ATOM     28  F   UNL     1       0.008  14.572  22.937  0.00  0.00    +0.000 F 
ENDBRANCH  19  22
ENDBRANCH  15  16
ENDBRANCH   2  15
TORSDOF 6
ENDMDL
