MODEL 1
REMARK VINA RESULT:      -6.6      0.000      0.000
REMARK  Name = 
REMARK  11 active torsions:
REMARK  status: ('A' for Active; 'I' for Inactive)
REMARK    1  A    between atoms: C_1  and  C_2
REMARK    2  A    between atoms: C_2  and  O_4
REMARK    3  A    between atoms: O_4  and  C_5
REMARK    4  A    between atoms: C_6  and  C_7
REMARK    5  A    between atoms: C_7  and  C_8
REMARK    6  A    between atoms: C_8  and  C_9
REMARK    7  A    between atoms: C_9  and  C_10
REMARK    8  A    between atoms: C_10  and  C_11
REMARK    9  A    between atoms: C_11  and  O_13
REMARK   10  A    between atoms: C_17  and  C_18
REMARK   11  A    between atoms: C_18  and  O_20
REMARK                            x       y       z     vdW  Elec       q    Type
REMARK                         _______ _______ _______ _____ _____    ______ ____
ROOT
ATOM      1  C   UNL     1       2.813   4.567  19.033  0.00  0.00    +0.000 A 
ATOM      2  C   UNL     1       3.256   5.682  18.285  0.00  0.00    +0.000 A 
ATOM      3  C   UNL     1       2.971   6.968  18.782  0.00  0.00    +0.000 A 
ATOM      4  C   UNL     1       2.218   7.150  19.941  0.00  0.00    +0.000 A 
ATOM      5  C   UNL     1       1.735   6.045  20.635  0.00  0.00    +0.000 A 
ATOM      6  C   UNL     1       2.029   4.747  20.193  0.00  0.00    +0.000 A 
ENDROOT
BRANCH   6   7
ATOM      7  C   UNL     1       1.413   3.644  20.972  0.00  0.00    +0.000 C 
ATOM      8  O   UNL     1       1.860   3.257  22.040  0.00  0.00    +0.000 OA
BRANCH   7   9
ATOM      9  O   UNL     1       0.368   3.051  20.362  0.00  0.00    +0.000 OA
ATOM     10  H   UNL     1      -0.368   3.656  20.166  0.00  0.00    +0.000 HD
ENDBRANCH   7   9
ENDBRANCH   6   7
BRANCH   1  11
ATOM     11  O   UNL     1       3.002   3.260  18.535  0.00  0.00    +0.000 OA
BRANCH  11  13
ATOM     12  C   UNL     1       3.968   1.098  18.580  0.00  0.00    +0.000 C 
ATOM     13  C   UNL     1       4.093   2.531  19.009  0.00  0.00    +0.000 C 
ATOM     14  O   UNL     1       5.008   2.976  19.686  0.00  0.00    +0.000 OA
ENDBRANCH  11  13
ENDBRANCH   1  11
BRANCH   2  15
ATOM     15  C   UNL     1       4.008   5.602  16.973  0.00  0.00    +0.000 C 
BRANCH  15  16
ATOM     16  C   UNL     1       5.193   6.560  16.813  0.00  0.00    +0.000 C 
BRANCH  16  17
ATOM     17  C   UNL     1       6.532   5.965  17.245  0.00  0.00    +0.000 C 
BRANCH  17  18
ATOM     18  C   UNL     1       6.697   4.561  16.663  0.00  0.00    +0.000 C 
BRANCH  18  19
ATOM     19  C   UNL     1       6.967   4.579  15.181  0.00  0.00    +0.000 C 
ATOM     20  O   UNL     1       7.679   5.383  14.596  0.00  0.00    +0.000 OA
BRANCH  19  21
ATOM     21  O   UNL     1       6.325   3.577  14.535  0.00  0.00    +0.000 OA
ATOM     22  H   UNL     1       5.567   3.869  13.997  0.00  0.00    +0.000 HD
ENDBRANCH  19  21
ENDBRANCH  18  19
ENDBRANCH  17  18
ENDBRANCH  16  17
ENDBRANCH  15  16
ENDBRANCH   2  15
TORSDOF 10
ENDMDL
MODEL 2
REMARK VINA RESULT:      -6.6      1.681      2.148
REMARK  Name = 
REMARK  11 active torsions:
REMARK  status: ('A' for Active; 'I' for Inactive)
REMARK    1  A    between atoms: C_1  and  C_2
REMARK    2  A    between atoms: C_2  and  O_4
REMARK    3  A    between atoms: O_4  and  C_5
REMARK    4  A    between atoms: C_6  and  C_7
REMARK    5  A    between atoms: C_7  and  C_8
REMARK    6  A    between atoms: C_8  and  C_9
REMARK    7  A    between atoms: C_9  and  C_10
REMARK    8  A    between atoms: C_10  and  C_11
REMARK    9  A    between atoms: C_11  and  O_13
REMARK   10  A    between atoms: C_17  and  C_18
REMARK   11  A    between atoms: C_18  and  O_20
REMARK                            x       y       z     vdW  Elec       q    Type
REMARK                         _______ _______ _______ _____ _____    ______ ____
ROOT
ATOM      1  C   UNL     1       2.674   4.350  18.867  0.00  0.00    +0.000 A 
ATOM      2  C   UNL     1       3.258   5.552  18.404  0.00  0.00    +0.000 A 
ATOM      3  C   UNL     1       2.954   6.743  19.090  0.00  0.00    +0.000 A 
ATOM      4  C   UNL     1       2.056   6.760  20.154  0.00  0.00    +0.000 A 
ATOM      5  C   UNL     1       1.440   5.581  20.562  0.00  0.00    +0.000 A 
ATOM      6  C   UNL     1       1.745   4.367  19.928  0.00  0.00    +0.000 A 
ENDROOT
BRANCH   6   7
ATOM      7  C   UNL     1       0.986   3.182  20.402  0.00  0.00    +0.000 C 
ATOM      8  O   UNL     1       1.158   2.682  21.502  0.00  0.00    +0.000 OA
BRANCH   7   9
ATOM      9  O   UNL     1       0.153   2.655  19.484  0.00  0.00    +0.000 OA
ATOM     10  H   UNL     1       0.175   3.110  18.625  0.00  0.00    +0.000 HD
ENDBRANCH   7   9
ENDBRANCH   6   7
BRANCH   1  11
ATOM     11  O   UNL     1       2.882   3.144  18.163  0.00  0.00    +0.000 OA
BRANCH  11  13
ATOM     12  C   UNL     1       4.704   2.872  19.652  0.00  0.00    +0.000 C 
ATOM     13  C   UNL     1       3.733   2.195  18.729  0.00  0.00    +0.000 C 
ATOM     14  O   UNL     1       3.712   0.993  18.504  0.00  0.00    +0.000 OA
ENDBRANCH  11  13
ENDBRANCH   1  11
BRANCH   2  15
ATOM     15  C   UNL     1       4.181   5.662  17.208  0.00  0.00    +0.000 C 
BRANCH  15  16
ATOM     16  C   UNL     1       5.118   6.874  17.186  0.00  0.00    +0.000 C 
BRANCH  16  17
ATOM     17  C   UNL     1       6.574   6.526  16.880  0.00  0.00    +0.000 C 
BRANCH  17  18
ATOM     18  C   UNL     1       7.438   6.732  18.124  0.00  0.00    +0.000 C 
BRANCH  18  19
ATOM     19  C   UNL     1       7.724   5.441  18.847  0.00  0.00    +0.000 C 
ATOM     20  O   UNL     1       7.919   4.356  18.318  0.00  0.00    +0.000 OA
BRANCH  19  21
ATOM     21  O   UNL     1       7.751   5.605  20.191  0.00  0.00    +0.000 OA
ATOM     22  H   UNL     1       8.369   5.012  20.654  0.00  0.00    +0.000 HD
ENDBRANCH  19  21
ENDBRANCH  18  19
ENDBRANCH  17  18
ENDBRANCH  16  17
ENDBRANCH  15  16
ENDBRANCH   2  15
TORSDOF 10
ENDMDL
MODEL 3
REMARK VINA RESULT:      -6.6      1.310      5.646
REMARK  Name = 
REMARK  11 active torsions:
REMARK  status: ('A' for Active; 'I' for Inactive)
REMARK    1  A    between atoms: C_1  and  C_2
REMARK    2  A    between atoms: C_2  and  O_4
REMARK    3  A    between atoms: O_4  and  C_5
REMARK    4  A    between atoms: C_6  and  C_7
REMARK    5  A    between atoms: C_7  and  C_8
REMARK    6  A    between atoms: C_8  and  C_9
REMARK    7  A    between atoms: C_9  and  C_10
REMARK    8  A    between atoms: C_10  and  C_11
REMARK    9  A    between atoms: C_11  and  O_13
REMARK   10  A    between atoms: C_17  and  C_18
REMARK   11  A    between atoms: C_18  and  O_20
REMARK                            x       y       z     vdW  Elec       q    Type
REMARK                         _______ _______ _______ _____ _____    ______ ____
ROOT
ATOM      1  C   UNL     1       4.638   4.815  17.236  0.00  0.00    +0.000 A 
ATOM      2  C   UNL     1       3.534   5.627  17.583  0.00  0.00    +0.000 A 
ATOM      3  C   UNL     1       3.720   7.022  17.606  0.00  0.00    +0.000 A 
ATOM      4  C   UNL     1       4.966   7.593  17.360  0.00  0.00    +0.000 A 
ATOM      5  C   UNL     1       6.060   6.780  17.081  0.00  0.00    +0.000 A 
ATOM      6  C   UNL     1       5.907   5.387  17.011  0.00  0.00    +0.000 A 
ENDROOT
BRANCH   6   7
ATOM      7  C   UNL     1       7.150   4.613  16.767  0.00  0.00    +0.000 C 
ATOM      8  O   UNL     1       7.689   4.553  15.674  0.00  0.00    +0.000 OA
BRANCH   7   9
ATOM      9  O   UNL     1       7.586   3.914  17.834  0.00  0.00    +0.000 OA
ATOM     10  H   UNL     1       7.871   3.009  17.621  0.00  0.00    +0.000 HD
ENDBRANCH   7   9
ENDBRANCH   6   7
BRANCH   1  11
ATOM     11  O   UNL     1       4.524   3.408  17.280  0.00  0.00    +0.000 OA
BRANCH  11  13
ATOM     12  C   UNL     1       3.460   1.654  18.465  0.00  0.00    +0.000 C 
ATOM     13  C   UNL     1       4.429   2.798  18.532  0.00  0.00    +0.000 C 
ATOM     14  O   UNL     1       5.026   3.144  19.541  0.00  0.00    +0.000 OA
ENDBRANCH  11  13
ENDBRANCH   1  11
BRANCH   2  15
ATOM     15  C   UNL     1       2.158   5.109  17.949  0.00  0.00    +0.000 C 
BRANCH  15  16
ATOM     16  C   UNL     1       1.585   5.597  19.283  0.00  0.00    +0.000 C 
BRANCH  16  17
ATOM     17  C   UNL     1       2.064   4.797  20.493  0.00  0.00    +0.000 C 
BRANCH  17  18
ATOM     18  C   UNL     1       1.191   3.557  20.683  0.00  0.00    +0.000 C 
BRANCH  18  19
ATOM     19  C   UNL     1       1.679   2.676  21.805  0.00  0.00    +0.000 C 
ATOM     20  O   UNL     1       0.970   2.095  22.615  0.00  0.00    +0.000 OA
BRANCH  19  21
ATOM     21  O   UNL     1       3.029   2.580  21.825  0.00  0.00    +0.000 OA
ATOM     22  H   UNL     1       3.371   1.850  22.372  0.00  0.00    +0.000 HD
ENDBRANCH  19  21
ENDBRANCH  18  19
ENDBRANCH  17  18
ENDBRANCH  16  17
ENDBRANCH  15  16
ENDBRANCH   2  15
TORSDOF 10
ENDMDL
MODEL 4
REMARK VINA RESULT:      -6.5      1.841      5.714
REMARK  Name = 
REMARK  11 active torsions:
REMARK  status: ('A' for Active; 'I' for Inactive)
REMARK    1  A    between atoms: C_1  and  C_2
REMARK    2  A    between atoms: C_2  and  O_4
REMARK    3  A    between atoms: O_4  and  C_5
REMARK    4  A    between atoms: C_6  and  C_7
REMARK    5  A    between atoms: C_7  and  C_8
REMARK    6  A    between atoms: C_8  and  C_9
REMARK    7  A    between atoms: C_9  and  C_10
REMARK    8  A    between atoms: C_10  and  C_11
REMARK    9  A    between atoms: C_11  and  O_13
REMARK   10  A    between atoms: C_17  and  C_18
REMARK   11  A    between atoms: C_18  and  O_20
REMARK                            x       y       z     vdW  Elec       q    Type
REMARK                         _______ _______ _______ _____ _____    ______ ____
ROOT
ATOM      1  C   UNL     1       4.835   5.076  17.420  0.00  0.00    +0.000 A 
ATOM      2  C   UNL     1       3.506   4.626  17.592  0.00  0.00    +0.000 A 
ATOM      3  C   UNL     1       2.512   5.586  17.861  0.00  0.00    +0.000 A 
ATOM      4  C   UNL     1       2.826   6.933  18.020  0.00  0.00    +0.000 A 
ATOM      5  C   UNL     1       4.147   7.356  17.910  0.00  0.00    +0.000 A 
ATOM      6  C   UNL     1       5.162   6.436  17.605  0.00  0.00    +0.000 A 
ENDROOT
BRANCH   6   7
ATOM      7  C   UNL     1       6.541   6.984  17.571  0.00  0.00    +0.000 C 
ATOM      8  O   UNL     1       6.908   7.804  16.745  0.00  0.00    +0.000 OA
BRANCH   7   9
ATOM      9  O   UNL     1       7.376   6.437  18.476  0.00  0.00    +0.000 OA
ATOM     10  H   UNL     1       8.214   6.119  18.097  0.00  0.00    +0.000 HD
ENDBRANCH   7   9
ENDBRANCH   6   7
BRANCH   1  11
ATOM     11  O   UNL     1       5.879   4.145  17.232  0.00  0.00    +0.000 OA
BRANCH  11  13
ATOM     12  C   UNL     1       5.783   4.001  14.869  0.00  0.00    +0.000 C 
ATOM     13  C   UNL     1       6.647   4.250  16.071  0.00  0.00    +0.000 C 
ATOM     14  O   UNL     1       7.845   4.490  16.027  0.00  0.00    +0.000 OA
ENDBRANCH  11  13
ENDBRANCH   1  11
BRANCH   2  15
ATOM     15  C   UNL     1       3.066   3.178  17.524  0.00  0.00    +0.000 C 
BRANCH  15  16
ATOM     16  C   UNL     1       1.648   2.878  18.021  0.00  0.00    +0.000 C 
BRANCH  16  17
ATOM     17  C   UNL     1       1.605   2.118  19.346  0.00  0.00    +0.000 C 
BRANCH  17  18
ATOM     18  C   UNL     1       0.971   2.988  20.432  0.00  0.00    +0.000 C 
BRANCH  18  19
ATOM     19  C   UNL     1       2.000   3.652  21.311  0.00  0.00    +0.000 C 
ATOM     20  O   UNL     1       2.299   4.838  21.287  0.00  0.00    +0.000 OA
BRANCH  19  21
ATOM     21  O   UNL     1       2.579   2.777  22.166  0.00  0.00    +0.000 OA
ATOM     22  H   UNL     1       3.378   2.344  21.816  0.00  0.00    +0.000 HD
ENDBRANCH  19  21
ENDBRANCH  18  19
ENDBRANCH  17  18
ENDBRANCH  16  17
ENDBRANCH  15  16
ENDBRANCH   2  15
TORSDOF 10
ENDMDL
MODEL 5
REMARK VINA RESULT:      -6.5      2.995      4.844
REMARK  Name = 
REMARK  11 active torsions:
REMARK  status: ('A' for Active; 'I' for Inactive)
REMARK    1  A    between atoms: C_1  and  C_2
REMARK    2  A    between atoms: C_2  and  O_4
REMARK    3  A    between atoms: O_4  and  C_5
REMARK    4  A    between atoms: C_6  and  C_7
REMARK    5  A    between atoms: C_7  and  C_8
REMARK    6  A    between atoms: C_8  and  C_9
REMARK    7  A    between atoms: C_9  and  C_10
REMARK    8  A    between atoms: C_10  and  C_11
REMARK    9  A    between atoms: C_11  and  O_13
REMARK   10  A    between atoms: C_17  and  C_18
REMARK   11  A    between atoms: C_18  and  O_20
REMARK                            x       y       z     vdW  Elec       q    Type
REMARK                         _______ _______ _______ _____ _____    ______ ____
ROOT
ATOM      1  C   UNL     1       3.614   3.730  19.272  0.00  0.00    +0.000 A 
ATOM      2  C   UNL     1       2.528   4.621  19.114  0.00  0.00    +0.000 A 
ATOM      3  C   UNL     1       1.489   4.572  20.062  0.00  0.00    +0.000 A 
ATOM      4  C   UNL     1       1.488   3.635  21.093  0.00  0.00    +0.000 A 
ATOM      5  C   UNL     1       2.532   2.722  21.202  0.00  0.00    +0.000 A 
ATOM      6  C   UNL     1       3.605   2.762  20.298  0.00  0.00    +0.000 A 
ENDROOT
BRANCH   6   7
ATOM      7  C   UNL     1       4.633   1.705  20.469  0.00  0.00    +0.000 C 
ATOM      8  O   UNL     1       5.325   1.610  21.470  0.00  0.00    +0.000 OA
BRANCH   7   9
ATOM      9  O   UNL     1       4.795   0.912  19.392  0.00  0.00    +0.000 OA
ATOM     10  H   UNL     1       4.370   1.251  18.586  0.00  0.00    +0.000 HD
ENDBRANCH   7   9
ENDBRANCH   6   7
BRANCH   1  11
ATOM     11  O   UNL     1       4.638   3.683  18.301  0.00  0.00    +0.000 OA
BRANCH  11  13
ATOM     12  C   UNL     1       6.473   4.694  17.196  0.00  0.00    +0.000 C 
ATOM     13  C   UNL     1       5.767   4.478  18.503  0.00  0.00    +0.000 C 
ATOM     14  O   UNL     1       6.143   4.923  19.577  0.00  0.00    +0.000 OA
ENDBRANCH  11  13
ENDBRANCH   1  11
BRANCH   2  15
ATOM     15  C   UNL     1       2.385   5.623  17.986  0.00  0.00    +0.000 C 
BRANCH  15  16
ATOM     16  C   UNL     1       3.077   6.975  18.192  0.00  0.00    +0.000 C 
BRANCH  16  17
ATOM     17  C   UNL     1       2.210   8.010  18.907  0.00  0.00    +0.000 C 
BRANCH  17  18
ATOM     18  C   UNL     1       1.514   8.910  17.885  0.00  0.00    +0.000 C 
BRANCH  18  19
ATOM     19  C   UNL     1       1.555  10.365  18.276  0.00  0.00    +0.000 C 
ATOM     20  O   UNL     1       0.969  10.864  19.226  0.00  0.00    +0.000 OA
BRANCH  19  21
ATOM     21  O   UNL     1       2.339  11.092  17.445  0.00  0.00    +0.000 OA
ATOM     22  H   UNL     1       2.669  11.923  17.832  0.00  0.00    +0.000 HD
ENDBRANCH  19  21
ENDBRANCH  18  19
ENDBRANCH  17  18
ENDBRANCH  16  17
ENDBRANCH  15  16
ENDBRANCH   2  15
TORSDOF 10
ENDMDL
MODEL 6
REMARK VINA RESULT:      -6.4      2.143      5.031
REMARK  Name = 
REMARK  11 active torsions:
REMARK  status: ('A' for Active; 'I' for Inactive)
REMARK    1  A    between atoms: C_1  and  C_2
REMARK    2  A    between atoms: C_2  and  O_4
REMARK    3  A    between atoms: O_4  and  C_5
REMARK    4  A    between atoms: C_6  and  C_7
REMARK    5  A    between atoms: C_7  and  C_8
REMARK    6  A    between atoms: C_8  and  C_9
REMARK    7  A    between atoms: C_9  and  C_10
REMARK    8  A    between atoms: C_10  and  C_11
REMARK    9  A    between atoms: C_11  and  O_13
REMARK   10  A    between atoms: C_17  and  C_18
REMARK   11  A    between atoms: C_18  and  O_20
REMARK                            x       y       z     vdW  Elec       q    Type
REMARK                         _______ _______ _______ _____ _____    ______ ____
ROOT
ATOM      1  C   UNL     1       4.244   5.612  18.304  0.00  0.00    +0.000 A 
ATOM      2  C   UNL     1       3.315   5.599  19.369  0.00  0.00    +0.000 A 
ATOM      3  C   UNL     1       2.396   6.662  19.458  0.00  0.00    +0.000 A 
ATOM      4  C   UNL     1       2.434   7.733  18.567  0.00  0.00    +0.000 A 
ATOM      5  C   UNL     1       3.392   7.764  17.560  0.00  0.00    +0.000 A 
ATOM      6  C   UNL     1       4.302   6.706  17.414  0.00  0.00    +0.000 A 
ENDROOT
BRANCH   6   7
ATOM      7  C   UNL     1       5.319   6.871  16.346  0.00  0.00    +0.000 C 
ATOM      8  O   UNL     1       5.216   6.351  15.247  0.00  0.00    +0.000 OA
BRANCH   7   9
ATOM      9  O   UNL     1       6.407   7.573  16.721  0.00  0.00    +0.000 OA
ATOM     10  H   UNL     1       7.132   7.023  17.064  0.00  0.00    +0.000 HD
ENDBRANCH   7   9
ENDBRANCH   6   7
BRANCH   1  11
ATOM     11  O   UNL     1       5.239   4.613  18.220  0.00  0.00    +0.000 OA
BRANCH  11  13
ATOM     12  C   UNL     1       7.560   4.532  17.752  0.00  0.00    +0.000 C 
ATOM     13  C   UNL     1       6.498   4.899  18.748  0.00  0.00    +0.000 C 
ATOM     14  O   UNL     1       6.719   5.362  19.857  0.00  0.00    +0.000 OA
ENDBRANCH  11  13
ENDBRANCH   1  11
BRANCH   2  15
ATOM     15  C   UNL     1       3.240   4.531  20.440  0.00  0.00    +0.000 C 
BRANCH  15  16
ATOM     16  C   UNL     1       1.837   4.020  20.787  0.00  0.00    +0.000 C 
BRANCH  16  17
ATOM     17  C   UNL     1       0.996   3.647  19.568  0.00  0.00    +0.000 C 
BRANCH  17  18
ATOM     18  C   UNL     1       1.366   2.246  19.081  0.00  0.00    +0.000 C 
BRANCH  18  19
ATOM     19  C   UNL     1       2.317   2.274  17.912  0.00  0.00    +0.000 C 
ATOM     20  O   UNL     1       2.246   3.032  16.955  0.00  0.00    +0.000 OA
BRANCH  19  21
ATOM     21  O   UNL     1       3.298   1.350  18.033  0.00  0.00    +0.000 OA
ATOM     22  H   UNL     1       3.648   1.252  18.937  0.00  0.00    +0.000 HD
ENDBRANCH  19  21
ENDBRANCH  18  19
ENDBRANCH  17  18
ENDBRANCH  16  17
ENDBRANCH  15  16
ENDBRANCH   2  15
TORSDOF 10
ENDMDL
MODEL 7
REMARK VINA RESULT:      -6.4      1.166      5.522
REMARK  Name = 
REMARK  11 active torsions:
REMARK  status: ('A' for Active; 'I' for Inactive)
REMARK    1  A    between atoms: C_1  and  C_2
REMARK    2  A    between atoms: C_2  and  O_4
REMARK    3  A    between atoms: O_4  and  C_5
REMARK    4  A    between atoms: C_6  and  C_7
REMARK    5  A    between atoms: C_7  and  C_8
REMARK    6  A    between atoms: C_8  and  C_9
REMARK    7  A    between atoms: C_9  and  C_10
REMARK    8  A    between atoms: C_10  and  C_11
REMARK    9  A    between atoms: C_11  and  O_13
REMARK   10  A    between atoms: C_17  and  C_18
REMARK   11  A    between atoms: C_18  and  O_20
REMARK                            x       y       z     vdW  Elec       q    Type
REMARK                         _______ _______ _______ _____ _____    ______ ____
ROOT
ATOM      1  C   UNL     1       4.445   4.828  17.086  0.00  0.00    +0.000 A 
ATOM      2  C   UNL     1       3.551   5.801  17.588  0.00  0.00    +0.000 A 
ATOM      3  C   UNL     1       3.955   7.149  17.556  0.00  0.00    +0.000 A 
ATOM      4  C   UNL     1       5.220   7.519  17.106  0.00  0.00    +0.000 A 
ATOM      5  C   UNL     1       6.114   6.546  16.671  0.00  0.00    +0.000 A 
ATOM      6  C   UNL     1       5.736   5.195  16.652  0.00  0.00    +0.000 A 
ENDROOT
BRANCH   6   7
ATOM      7  C   UNL     1       6.787   4.236  16.228  0.00  0.00    +0.000 C 
ATOM      8  O   UNL     1       7.969   4.391  16.490  0.00  0.00    +0.000 OA
BRANCH   7   9
ATOM      9  O   UNL     1       6.337   3.226  15.459  0.00  0.00    +0.000 OA
ATOM     10  H   UNL     1       5.394   3.024  15.586  0.00  0.00    +0.000 HD
ENDBRANCH   7   9
ENDBRANCH   6   7
BRANCH   1  11
ATOM     11  O   UNL     1       4.120   3.456  17.172  0.00  0.00    +0.000 OA
BRANCH  11  13
ATOM     12  C   UNL     1       3.184   1.744  18.515  0.00  0.00    +0.000 C 
ATOM     13  C   UNL     1       4.202   2.843  18.423  0.00  0.00    +0.000 C 
ATOM     14  O   UNL     1       4.969   3.155  19.322  0.00  0.00    +0.000 OA
ENDBRANCH  11  13
ENDBRANCH   1  11
BRANCH   2  15
ATOM     15  C   UNL     1       2.188   5.503  18.177  0.00  0.00    +0.000 C 
BRANCH  15  16
ATOM     16  C   UNL     1       1.885   6.139  19.538  0.00  0.00    +0.000 C 
BRANCH  16  17
ATOM     17  C   UNL     1       1.295   5.167  20.558  0.00  0.00    +0.000 C 
BRANCH  17  18
ATOM     18  C   UNL     1       2.415   4.473  21.333  0.00  0.00    +0.000 C 
BRANCH  18  19
ATOM     19  C   UNL     1       2.108   3.025  21.616  0.00  0.00    +0.000 C 
ATOM     20  O   UNL     1       2.894   2.206  22.073  0.00  0.00    +0.000 OA
BRANCH  19  21
ATOM     21  O   UNL     1       0.829   2.707  21.309  0.00  0.00    +0.000 OA
ATOM     22  H   UNL     1       0.731   1.873  20.815  0.00  0.00    +0.000 HD
ENDBRANCH  19  21
ENDBRANCH  18  19
ENDBRANCH  17  18
ENDBRANCH  16  17
ENDBRANCH  15  16
ENDBRANCH   2  15
TORSDOF 10
ENDMDL
MODEL 8
REMARK VINA RESULT:      -6.4      2.093      6.223
REMARK  Name = 
REMARK  11 active torsions:
REMARK  status: ('A' for Active; 'I' for Inactive)
REMARK    1  A    between atoms: C_1  and  C_2
REMARK    2  A    between atoms: C_2  and  O_4
REMARK    3  A    between atoms: O_4  and  C_5
REMARK    4  A    between atoms: C_6  and  C_7
REMARK    5  A    between atoms: C_7  and  C_8
REMARK    6  A    between atoms: C_8  and  C_9
REMARK    7  A    between atoms: C_9  and  C_10
REMARK    8  A    between atoms: C_10  and  C_11
REMARK    9  A    between atoms: C_11  and  O_13
REMARK   10  A    between atoms: C_17  and  C_18
REMARK   11  A    between atoms: C_18  and  O_20
REMARK                            x       y       z     vdW  Elec       q    Type
REMARK                         _______ _______ _______ _____ _____    ______ ____
ROOT
ATOM      1  C   UNL     1       5.304   5.100  17.576  0.00  0.00    +0.000 A 
ATOM      2  C   UNL     1       4.623   4.095  16.851  0.00  0.00    +0.000 A 
ATOM      3  C   UNL     1       5.252   3.560  15.712  0.00  0.00    +0.000 A 
ATOM      4  C   UNL     1       6.480   4.043  15.264  0.00  0.00    +0.000 A 
ATOM      5  C   UNL     1       7.112   5.075  15.950  0.00  0.00    +0.000 A 
ATOM      6  C   UNL     1       6.535   5.610  17.112  0.00  0.00    +0.000 A 
ENDROOT
BRANCH   6   7
ATOM      7  C   UNL     1       7.262   6.747  17.730  0.00  0.00    +0.000 C 
ATOM      8  O   UNL     1       8.010   6.615  18.685  0.00  0.00    +0.000 OA
BRANCH   7   9
ATOM      9  O   UNL     1       6.962   7.949  17.200  0.00  0.00    +0.000 OA
ATOM     10  H   UNL     1       7.517   8.676  17.534  0.00  0.00    +0.000 HD
ENDBRANCH   7   9
ENDBRANCH   6   7
BRANCH   1  11
ATOM     11  O   UNL     1       4.679   5.726  18.676  0.00  0.00    +0.000 OA
BRANCH  11  13
ATOM     12  C   UNL     1       2.580   6.554  19.397  0.00  0.00    +0.000 C 
ATOM     13  C   UNL     1       3.705   6.690  18.413  0.00  0.00    +0.000 C 
ATOM     14  O   UNL     1       3.743   7.516  17.512  0.00  0.00    +0.000 OA
ENDBRANCH  11  13
ENDBRANCH   1  11
BRANCH   2  15
ATOM     15  C   UNL     1       3.251   3.554  17.199  0.00  0.00    +0.000 C 
BRANCH  15  16
ATOM     16  C   UNL     1       3.199   2.099  17.676  0.00  0.00    +0.000 C 
BRANCH  16  17
ATOM     17  C   UNL     1       2.419   1.900  18.974  0.00  0.00    +0.000 C 
BRANCH  17  18
ATOM     18  C   UNL     1       2.901   2.891  20.034  0.00  0.00    +0.000 C 
BRANCH  18  19
ATOM     19  C   UNL     1       1.882   3.110  21.123  0.00  0.00    +0.000 C 
ATOM     20  O   UNL     1       2.114   3.128  22.323  0.00  0.00    +0.000 OA
BRANCH  19  21
ATOM     21  O   UNL     1       0.637   3.298  20.624  0.00  0.00    +0.000 OA
ATOM     22  H   UNL     1       0.376   4.233  20.543  0.00  0.00    +0.000 HD
ENDBRANCH  19  21
ENDBRANCH  18  19
ENDBRANCH  17  18
ENDBRANCH  16  17
ENDBRANCH  15  16
ENDBRANCH   2  15
TORSDOF 10
ENDMDL
MODEL 9
REMARK VINA RESULT:      -6.4      1.782      2.330
REMARK  Name = 
REMARK  11 active torsions:
REMARK  status: ('A' for Active; 'I' for Inactive)
REMARK    1  A    between atoms: C_1  and  C_2
REMARK    2  A    between atoms: C_2  and  O_4
REMARK    3  A    between atoms: O_4  and  C_5
REMARK    4  A    between atoms: C_6  and  C_7
REMARK    5  A    between atoms: C_7  and  C_8
REMARK    6  A    between atoms: C_8  and  C_9
REMARK    7  A    between atoms: C_9  and  C_10
REMARK    8  A    between atoms: C_10  and  C_11
REMARK    9  A    between atoms: C_11  and  O_13
REMARK   10  A    between atoms: C_17  and  C_18
REMARK   11  A    between atoms: C_18  and  O_20
REMARK                            x       y       z     vdW  Elec       q    Type
REMARK                         _______ _______ _______ _____ _____    ______ ____
ROOT
ATOM      1  C   UNL     1       3.724   3.918  18.838  0.00  0.00    +0.000 A 
ATOM      2  C   UNL     1       4.433   5.141  18.860  0.00  0.00    +0.000 A 
ATOM      3  C   UNL     1       3.757   6.305  18.448  0.00  0.00    +0.000 A 
ATOM      4  C   UNL     1       2.450   6.256  17.970  0.00  0.00    +0.000 A 
ATOM      5  C   UNL     1       1.783   5.037  17.895  0.00  0.00    +0.000 A 
ATOM      6  C   UNL     1       2.409   3.860  18.331  0.00  0.00    +0.000 A 
ENDROOT
BRANCH   6   7
ATOM      7  C   UNL     1       1.630   2.609  18.149  0.00  0.00    +0.000 C 
ATOM      8  O   UNL     1       0.462   2.502  18.484  0.00  0.00    +0.000 OA
BRANCH   7   9
ATOM      9  O   UNL     1       2.346   1.577  17.661  0.00  0.00    +0.000 OA
ATOM     10  H   UNL     1       3.285   1.592  17.918  0.00  0.00    +0.000 HD
ENDBRANCH   7   9
ENDBRANCH   6   7
BRANCH   1  11
ATOM     11  O   UNL     1       4.383   2.711  19.161  0.00  0.00    +0.000 OA
BRANCH  11  13
ATOM     12  C   UNL     1       3.086   2.706  21.143  0.00  0.00    +0.000 C 
ATOM     13  C   UNL     1       4.377   2.300  20.494  0.00  0.00    +0.000 C 
ATOM     14  O   UNL     1       5.285   1.713  21.064  0.00  0.00    +0.000 OA
ENDBRANCH  11  13
ENDBRANCH   1  11
BRANCH   2  15
ATOM     15  C   UNL     1       5.880   5.296  19.281  0.00  0.00    +0.000 C 
BRANCH  15  16
ATOM     16  C   UNL     1       6.926   4.676  18.348  0.00  0.00    +0.000 C 
BRANCH  16  17
ATOM     17  C   UNL     1       6.910   5.250  16.933  0.00  0.00    +0.000 C 
BRANCH  17  18
ATOM     18  C   UNL     1       6.366   4.213  15.950  0.00  0.00    +0.000 C 
BRANCH  18  19
ATOM     19  C   UNL     1       6.725   4.529  14.521  0.00  0.00    +0.000 C 
ATOM     20  O   UNL     1       6.198   4.045  13.530  0.00  0.00    +0.000 OA
BRANCH  19  21
ATOM     21  O   UNL     1       7.723   5.441  14.438  0.00  0.00    +0.000 OA
ATOM     22  H   UNL     1       8.255   5.527  15.250  0.00  0.00    +0.000 HD
ENDBRANCH  19  21
ENDBRANCH  18  19
ENDBRANCH  17  18
ENDBRANCH  16  17
ENDBRANCH  15  16
ENDBRANCH   2  15
TORSDOF 10
ENDMDL
