MODEL 1
REMARK VINA RESULT:      -7.9      0.000      0.000
REMARK  Name = 
REMARK  4 active torsions:
REMARK  status: ('A' for Active; 'I' for Inactive)
REMARK    1  A    between atoms: C_1  and  C_2
REMARK    2  A    between atoms: C_2  and  N_14
REMARK    3  A    between atoms: N_17  and  C_18
REMARK    4  A    between atoms: C_18  and  C_19
REMARK                            x       y       z     vdW  Elec       q    Type
REMARK                         _______ _______ _______ _____ _____    ______ ____
ROOT
ATOM      1  C   UNL     1       3.534   3.982  19.726  0.00  0.00    +0.000 C 
ATOM      2  C   UNL     1       3.573   5.338  19.048  0.00  0.00    +0.000 C 
ATOM      3  C   UNL     1       2.739   6.345  19.389  0.00  0.00    +0.000 C 
ATOM      4  C   UNL     1       1.752   6.398  20.522  0.00  0.00    +0.000 C 
ATOM      5  O   UNL     1       1.455   5.555  21.337  0.00  0.00    +0.000 OA
ATOM      6  C   UNL     1       1.198   7.762  20.502  0.00  0.00    +0.000 A 
ATOM      7  C   UNL     1       0.301   8.345  21.381  0.00  0.00    +0.000 A 
ATOM      8  C   UNL     1      -0.055   9.680  21.160  0.00  0.00    +0.000 A 
ATOM      9  C   UNL     1       0.479  10.400  20.075  0.00  0.00    +0.000 A 
ATOM     10  C   UNL     1       1.379   9.795  19.194  0.00  0.00    +0.000 A 
ATOM     11  C   UNL     1       1.723   8.476  19.436  0.00  0.00    +0.000 A 
ATOM     12  C   UNL     1       2.649   7.652  18.663  0.00  0.00    +0.000 C 
ATOM     13  O   UNL     1       3.153   8.013  17.619  0.00  0.00    +0.000 OA
ENDROOT
BRANCH   2  14
ATOM     14  N   UNL     1       4.595   5.429  18.090  0.00  0.00    +0.000 N 
ATOM     15  C   UNL     1       4.373   5.181  16.648  0.00  0.00    +0.000 C 
ATOM     16  C   UNL     1       5.151   6.208  15.780  0.00  0.00    +0.000 C 
ATOM     17  N   UNL     1       6.595   6.351  16.102  0.00  0.00    +0.000 NA
ATOM     18  C   UNL     1       6.691   6.624  17.559  0.00  0.00    +0.000 C 
ATOM     19  C   UNL     1       6.016   5.565  18.458  0.00  0.00    +0.000 C 
BRANCH  17  20
ATOM     20  C   UNL     1       7.338   5.141  15.685  0.00  0.00    +0.000 C 
BRANCH  20  21
ATOM     21  C   UNL     1       7.105   4.738  14.243  0.00  0.00    +0.000 A 
ATOM     22  C   UNL     1       6.206   3.706  13.930  0.00  0.00    +0.000 A 
ATOM     23  C   UNL     1       6.067   3.262  12.613  0.00  0.00    +0.000 A 
ATOM     24  C   UNL     1       6.801   3.863  11.593  0.00  0.00    +0.000 A 
ATOM     25  C   UNL     1       7.651   4.930  11.883  0.00  0.00    +0.000 A 
ATOM     26  C   UNL     1       7.803   5.365  13.201  0.00  0.00    +0.000 A 
ENDBRANCH  20  21
ENDBRANCH  17  20
ENDBRANCH   2  14
TORSDOF 3
ENDMDL
MODEL 2
REMARK VINA RESULT:      -7.7      0.553      1.124
REMARK  Name = 
REMARK  4 active torsions:
REMARK  status: ('A' for Active; 'I' for Inactive)
REMARK    1  A    between atoms: C_1  and  C_2
REMARK    2  A    between atoms: C_2  and  N_14
REMARK    3  A    between atoms: N_17  and  C_18
REMARK    4  A    between atoms: C_18  and  C_19
REMARK                            x       y       z     vdW  Elec       q    Type
REMARK                         _______ _______ _______ _____ _____    ______ ____
ROOT
ATOM      1  C   UNL     1       3.281   4.629  19.964  0.00  0.00    +0.000 C 
ATOM      2  C   UNL     1       3.374   5.876  19.105  0.00  0.00    +0.000 C 
ATOM      3  C   UNL     1       2.562   6.941  19.280  0.00  0.00    +0.000 C 
ATOM      4  C   UNL     1       1.552   7.177  20.368  0.00  0.00    +0.000 C 
ATOM      5  O   UNL     1       1.212   6.464  21.284  0.00  0.00    +0.000 OA
ATOM      6  C   UNL     1       1.038   8.538  20.144  0.00  0.00    +0.000 A 
ATOM      7  C   UNL     1       0.139   9.262  20.910  0.00  0.00    +0.000 A 
ATOM      8  C   UNL     1      -0.173  10.561  20.495  0.00  0.00    +0.000 A 
ATOM      9  C   UNL     1       0.406  11.109  19.336  0.00  0.00    +0.000 A 
ATOM     10  C   UNL     1       1.307  10.363  18.571  0.00  0.00    +0.000 A 
ATOM     11  C   UNL     1       1.608   9.083  19.003  0.00  0.00    +0.000 A 
ATOM     12  C   UNL     1       2.527   8.136  18.377  0.00  0.00    +0.000 C 
ATOM     13  O   UNL     1       3.065   8.335  17.307  0.00  0.00    +0.000 OA
ENDROOT
BRANCH   2  14
ATOM     14  N   UNL     1       4.420   5.805  18.171  0.00  0.00    +0.000 N 
ATOM     15  C   UNL     1       4.209   5.451  16.750  0.00  0.00    +0.000 C 
ATOM     16  C   UNL     1       5.082   6.336  15.819  0.00  0.00    +0.000 C 
ATOM     17  N   UNL     1       6.526   6.398  16.166  0.00  0.00    +0.000 NA
ATOM     18  C   UNL     1       6.613   6.789  17.598  0.00  0.00    +0.000 C 
ATOM     19  C   UNL     1       5.839   5.866  18.564  0.00  0.00    +0.000 C 
BRANCH  17  20
ATOM     20  C   UNL     1       7.182   5.104  15.875  0.00  0.00    +0.000 C 
BRANCH  20  21
ATOM     21  C   UNL     1       7.063   4.661  14.430  0.00  0.00    +0.000 A 
ATOM     22  C   UNL     1       7.815   5.295  13.429  0.00  0.00    +0.000 A 
ATOM     23  C   UNL     1       7.631   4.962  12.086  0.00  0.00    +0.000 A 
ATOM     24  C   UNL     1       6.717   3.972  11.731  0.00  0.00    +0.000 A 
ATOM     25  C   UNL     1       6.010   3.292  12.722  0.00  0.00    +0.000 A 
ATOM     26  C   UNL     1       6.180   3.635  14.065  0.00  0.00    +0.000 A 
ENDBRANCH  20  21
ENDBRANCH  17  20
ENDBRANCH   2  14
TORSDOF 3
ENDMDL
MODEL 3
REMARK VINA RESULT:      -7.6      0.986      1.780
REMARK  Name = 
REMARK  4 active torsions:
REMARK  status: ('A' for Active; 'I' for Inactive)
REMARK    1  A    between atoms: C_1  and  C_2
REMARK    2  A    between atoms: C_2  and  N_14
REMARK    3  A    between atoms: N_17  and  C_18
REMARK    4  A    between atoms: C_18  and  C_19
REMARK                            x       y       z     vdW  Elec       q    Type
REMARK                         _______ _______ _______ _____ _____    ______ ____
ROOT
ATOM      1  C   UNL     1       2.879   4.814  20.379  0.00  0.00    +0.000 C 
ATOM      2  C   UNL     1       3.081   5.922  19.363  0.00  0.00    +0.000 C 
ATOM      3  C   UNL     1       2.393   7.083  19.408  0.00  0.00    +0.000 C 
ATOM      4  C   UNL     1       1.444   7.567  20.469  0.00  0.00    +0.000 C 
ATOM      5  O   UNL     1       1.055   7.019  21.475  0.00  0.00    +0.000 OA
ATOM      6  C   UNL     1       1.073   8.936  20.076  0.00  0.00    +0.000 A 
ATOM      7  C   UNL     1       0.278   9.846  20.752  0.00  0.00    +0.000 A 
ATOM      8  C   UNL     1       0.095  11.108  20.175  0.00  0.00    +0.000 A 
ATOM      9  C   UNL     1       0.697  11.434  18.946  0.00  0.00    +0.000 A 
ATOM     10  C   UNL     1       1.492  10.503  18.274  0.00  0.00    +0.000 A 
ATOM     11  C   UNL     1       1.666   9.264  18.866  0.00  0.00    +0.000 A 
ATOM     12  C   UNL     1       2.461   8.148  18.357  0.00  0.00    +0.000 C 
ATOM     13  O   UNL     1       2.987   8.147  17.263  0.00  0.00    +0.000 OA
ENDROOT
BRANCH   2  14
ATOM     14  N   UNL     1       4.087   5.617  18.433  0.00  0.00    +0.000 N 
ATOM     15  C   UNL     1       5.509   5.975  18.636  0.00  0.00    +0.000 C 
ATOM     16  C   UNL     1       6.445   4.823  18.177  0.00  0.00    +0.000 C 
ATOM     17  N   UNL     1       6.194   4.305  16.807  0.00  0.00    +0.000 NA
ATOM     18  C   UNL     1       4.752   3.954  16.731  0.00  0.00    +0.000 C 
ATOM     19  C   UNL     1       3.789   5.109  17.082  0.00  0.00    +0.000 C 
BRANCH  17  20
ATOM     20  C   UNL     1       6.604   5.304  15.795  0.00  0.00    +0.000 C 
BRANCH  20  21
ATOM     21  C   UNL     1       6.722   4.749  14.389  0.00  0.00    +0.000 A 
ATOM     22  C   UNL     1       7.692   5.249  13.507  0.00  0.00    +0.000 A 
ATOM     23  C   UNL     1       7.736   4.815  12.180  0.00  0.00    +0.000 A 
ATOM     24  C   UNL     1       6.831   3.855  11.731  0.00  0.00    +0.000 A 
ATOM     25  C   UNL     1       5.903   3.307  12.615  0.00  0.00    +0.000 A 
ATOM     26  C   UNL     1       5.847   3.751  13.937  0.00  0.00    +0.000 A 
ENDBRANCH  20  21
ENDBRANCH  17  20
ENDBRANCH   2  14
TORSDOF 3
ENDMDL
MODEL 4
REMARK VINA RESULT:      -7.5      0.886      1.414
REMARK  Name = 
REMARK  4 active torsions:
REMARK  status: ('A' for Active; 'I' for Inactive)
REMARK    1  A    between atoms: C_1  and  C_2
REMARK    2  A    between atoms: C_2  and  N_14
REMARK    3  A    between atoms: N_17  and  C_18
REMARK    4  A    between atoms: C_18  and  C_19
REMARK                            x       y       z     vdW  Elec       q    Type
REMARK                         _______ _______ _______ _____ _____    ______ ____
ROOT
ATOM      1  C   UNL     1       3.165   4.598  20.152  0.00  0.00    +0.000 C 
ATOM      2  C   UNL     1       3.326   5.731  19.157  0.00  0.00    +0.000 C 
ATOM      3  C   UNL     1       2.594   6.865  19.221  0.00  0.00    +0.000 C 
ATOM      4  C   UNL     1       1.626   7.293  20.289  0.00  0.00    +0.000 C 
ATOM      5  O   UNL     1       1.258   6.712  21.285  0.00  0.00    +0.000 OA
ATOM      6  C   UNL     1       1.203   8.653  19.920  0.00  0.00    +0.000 A 
ATOM      7  C   UNL     1       0.374   9.520  20.611  0.00  0.00    +0.000 A 
ATOM      8  C   UNL     1       0.144  10.784  20.057  0.00  0.00    +0.000 A 
ATOM      9  C   UNL     1       0.735  11.156  18.835  0.00  0.00    +0.000 A 
ATOM     10  C   UNL     1       1.565  10.267  18.148  0.00  0.00    +0.000 A 
ATOM     11  C   UNL     1       1.785   9.025  18.717  0.00  0.00    +0.000 A 
ATOM     12  C   UNL     1       2.623   7.950  18.190  0.00  0.00    +0.000 C 
ATOM     13  O   UNL     1       3.149   7.989  17.097  0.00  0.00    +0.000 OA
ENDROOT
BRANCH   2  14
ATOM     14  N   UNL     1       4.344   5.482  18.223  0.00  0.00    +0.000 N 
ATOM     15  C   UNL     1       5.740   5.935  18.411  0.00  0.00    +0.000 C 
ATOM     16  C   UNL     1       6.747   4.842  17.960  0.00  0.00    +0.000 C 
ATOM     17  N   UNL     1       6.522   4.291  16.597  0.00  0.00    +0.000 NA
ATOM     18  C   UNL     1       5.106   3.845  16.537  0.00  0.00    +0.000 C 
ATOM     19  C   UNL     1       4.071   4.938  16.880  0.00  0.00    +0.000 C 
BRANCH  17  20
ATOM     20  C   UNL     1       6.859   5.303  15.571  0.00  0.00    +0.000 C 
BRANCH  20  21
ATOM     21  C   UNL     1       6.802   4.782  14.148  0.00  0.00    +0.000 A 
ATOM     22  C   UNL     1       5.846   3.822  13.781  0.00  0.00    +0.000 A 
ATOM     23  C   UNL     1       5.858   3.263  12.501  0.00  0.00    +0.000 A 
ATOM     24  C   UNL     1       6.803   3.680  11.566  0.00  0.00    +0.000 A 
ATOM     25  C   UNL     1       7.717   4.678  11.900  0.00  0.00    +0.000 A 
ATOM     26  C   UNL     1       7.719   5.226  13.185  0.00  0.00    +0.000 A 
ENDBRANCH  20  21
ENDBRANCH  17  20
ENDBRANCH   2  14
TORSDOF 3
ENDMDL
MODEL 5
REMARK VINA RESULT:      -7.3      1.143      1.669
REMARK  Name = 
REMARK  4 active torsions:
REMARK  status: ('A' for Active; 'I' for Inactive)
REMARK    1  A    between atoms: C_1  and  C_2
REMARK    2  A    between atoms: C_2  and  N_14
REMARK    3  A    between atoms: N_17  and  C_18
REMARK    4  A    between atoms: C_18  and  C_19
REMARK                            x       y       z     vdW  Elec       q    Type
REMARK                         _______ _______ _______ _____ _____    ______ ____
ROOT
ATOM      1  C   UNL     1       3.862   4.006  19.560  0.00  0.00    +0.000 C 
ATOM      2  C   UNL     1       3.829   5.192  18.615  0.00  0.00    +0.000 C 
ATOM      3  C   UNL     1       3.073   6.287  18.849  0.00  0.00    +0.000 C 
ATOM      4  C   UNL     1       2.261   6.618  20.070  0.00  0.00    +0.000 C 
ATOM      5  O   UNL     1       2.068   5.973  21.076  0.00  0.00    +0.000 OA
ATOM      6  C   UNL     1       1.737   7.974  19.842  0.00  0.00    +0.000 A 
ATOM      7  C   UNL     1       0.989   8.768  20.695  0.00  0.00    +0.000 A 
ATOM      8  C   UNL     1       0.631  10.046  20.251  0.00  0.00    +0.000 A 
ATOM      9  C   UNL     1       1.018  10.503  18.978  0.00  0.00    +0.000 A 
ATOM     10  C   UNL     1       1.769   9.687  18.127  0.00  0.00    +0.000 A 
ATOM     11  C   UNL     1       2.118   8.430  18.589  0.00  0.00    +0.000 A 
ATOM     12  C   UNL     1       2.907   7.421  17.885  0.00  0.00    +0.000 C 
ATOM     13  O   UNL     1       3.262   7.537  16.731  0.00  0.00    +0.000 OA
ENDROOT
BRANCH   2  14
ATOM     14  N   UNL     1       4.705   5.035  17.529  0.00  0.00    +0.000 N 
ATOM     15  C   UNL     1       5.855   5.932  17.284  0.00  0.00    +0.000 C 
ATOM     16  C   UNL     1       7.101   5.129  16.821  0.00  0.00    +0.000 C 
ATOM     17  N   UNL     1       6.874   4.197  15.685  0.00  0.00    +0.000 NA
ATOM     18  C   UNL     1       5.723   3.333  16.056  0.00  0.00    +0.000 C 
ATOM     19  C   UNL     1       4.434   4.100  16.422  0.00  0.00    +0.000 C 
BRANCH  17  20
ATOM     20  C   UNL     1       6.655   4.954  14.433  0.00  0.00    +0.000 C 
BRANCH  20  21
ATOM     21  C   UNL     1       6.302   4.088  13.240  0.00  0.00    +0.000 A 
ATOM     22  C   UNL     1       4.962   3.919  12.857  0.00  0.00    +0.000 A 
ATOM     23  C   UNL     1       4.625   3.040  11.826  0.00  0.00    +0.000 A 
ATOM     24  C   UNL     1       5.623   2.346  11.146  0.00  0.00    +0.000 A 
ATOM     25  C   UNL     1       6.962   2.553  11.477  0.00  0.00    +0.000 A 
ATOM     26  C   UNL     1       7.301   3.419  12.519  0.00  0.00    +0.000 A 
ENDBRANCH  20  21
ENDBRANCH  17  20
ENDBRANCH   2  14
TORSDOF 3
ENDMDL
MODEL 6
REMARK VINA RESULT:      -7.0      3.727      8.892
REMARK  Name = 
REMARK  4 active torsions:
REMARK  status: ('A' for Active; 'I' for Inactive)
REMARK    1  A    between atoms: C_1  and  C_2
REMARK    2  A    between atoms: C_2  and  N_14
REMARK    3  A    between atoms: N_17  and  C_18
REMARK    4  A    between atoms: C_18  and  C_19
REMARK                            x       y       z     vdW  Elec       q    Type
REMARK                         _______ _______ _______ _____ _____    ______ ____
ROOT
ATOM      1  C   UNL     1       0.280   8.352  21.570  0.00  0.00    +0.000 C 
ATOM      2  C   UNL     1       0.932   8.770  20.267  0.00  0.00    +0.000 C 
ATOM      3  C   UNL     1       1.807   7.982  19.605  0.00  0.00    +0.000 C 
ATOM      4  C   UNL     1       2.199   6.563  19.909  0.00  0.00    +0.000 C 
ATOM      5  O   UNL     1       1.865   5.839  20.819  0.00  0.00    +0.000 OA
ATOM      6  C   UNL     1       3.089   6.153  18.811  0.00  0.00    +0.000 A 
ATOM      7  C   UNL     1       3.667   4.916  18.579  0.00  0.00    +0.000 A 
ATOM      8  C   UNL     1       4.463   4.771  17.438  0.00  0.00    +0.000 A 
ATOM      9  C   UNL     1       4.669   5.850  16.558  0.00  0.00    +0.000 A 
ATOM     10  C   UNL     1       4.082   7.093  16.809  0.00  0.00    +0.000 A 
ATOM     11  C   UNL     1       3.293   7.213  17.940  0.00  0.00    +0.000 A 
ATOM     12  C   UNL     1       2.574   8.402  18.390  0.00  0.00    +0.000 C 
ATOM     13  O   UNL     1       2.682   9.489  17.860  0.00  0.00    +0.000 OA
ENDROOT
BRANCH   2  14
ATOM     14  N   UNL     1       0.478  10.022  19.820  0.00  0.00    +0.000 N 
ATOM     15  C   UNL     1      -0.469  10.181  18.694  0.00  0.00    +0.000 C 
ATOM     16  C   UNL     1      -1.518  11.284  19.000  0.00  0.00    +0.000 C 
ATOM     17  N   UNL     1      -0.962  12.589  19.444  0.00  0.00    +0.000 NA
ATOM     18  C   UNL     1      -0.056  12.308  20.588  0.00  0.00    +0.000 C 
ATOM     19  C   UNL     1       1.066  11.291  20.287  0.00  0.00    +0.000 C 
BRANCH  17  20
ATOM     20  C   UNL     1      -0.285  13.271  18.319  0.00  0.00    +0.000 C 
BRANCH  20  21
ATOM     21  C   UNL     1       0.357  14.593  18.692  0.00  0.00    +0.000 A 
ATOM     22  C   UNL     1      -0.439  15.699  19.029  0.00  0.00    +0.000 A 
ATOM     23  C   UNL     1       0.144  16.944  19.271  0.00  0.00    +0.000 A 
ATOM     24  C   UNL     1       1.528  17.091  19.211  0.00  0.00    +0.000 A 
ATOM     25  C   UNL     1       2.332  15.985  18.938  0.00  0.00    +0.000 A 
ATOM     26  C   UNL     1       1.751  14.742  18.679  0.00  0.00    +0.000 A 
ENDBRANCH  20  21
ENDBRANCH  17  20
ENDBRANCH   2  14
TORSDOF 3
ENDMDL
MODEL 7
REMARK VINA RESULT:      -6.8      4.248     10.269
REMARK  Name = 
REMARK  4 active torsions:
REMARK  status: ('A' for Active; 'I' for Inactive)
REMARK    1  A    between atoms: C_1  and  C_2
REMARK    2  A    between atoms: C_2  and  N_14
REMARK    3  A    between atoms: N_17  and  C_18
REMARK    4  A    between atoms: C_18  and  C_19
REMARK                            x       y       z     vdW  Elec       q    Type
REMARK                         _______ _______ _______ _____ _____    ______ ____
ROOT
ATOM      1  C   UNL     1       2.100   9.858  17.739  0.00  0.00    +0.000 C 
ATOM      2  C   UNL     1       1.614   9.103  18.961  0.00  0.00    +0.000 C 
ATOM      3  C   UNL     1       1.950   7.818  19.203  0.00  0.00    +0.000 C 
ATOM      4  C   UNL     1       2.918   6.948  18.450  0.00  0.00    +0.000 C 
ATOM      5  O   UNL     1       3.564   7.182  17.454  0.00  0.00    +0.000 OA
ATOM      6  C   UNL     1       2.989   5.686  19.205  0.00  0.00    +0.000 A 
ATOM      7  C   UNL     1       3.790   4.581  18.972  0.00  0.00    +0.000 A 
ATOM      8  C   UNL     1       3.689   3.504  19.859  0.00  0.00    +0.000 A 
ATOM      9  C   UNL     1       2.799   3.545  20.948  0.00  0.00    +0.000 A 
ATOM     10  C   UNL     1       1.994   4.666  21.166  0.00  0.00    +0.000 A 
ATOM     11  C   UNL     1       2.115   5.723  20.281  0.00  0.00    +0.000 A 
ATOM     12  C   UNL     1       1.392   6.992  20.321  0.00  0.00    +0.000 C 
ATOM     13  O   UNL     1       0.491   7.224  21.101  0.00  0.00    +0.000 OA
ENDROOT
BRANCH   2  14
ATOM     14  N   UNL     1       0.841   9.907  19.814  0.00  0.00    +0.000 N 
ATOM     15  C   UNL     1       1.381  10.533  21.042  0.00  0.00    +0.000 C 
ATOM     16  C   UNL     1       0.849  11.982  21.210  0.00  0.00    +0.000 C 
ATOM     17  N   UNL     1      -0.626  12.136  21.113  0.00  0.00    +0.000 NA
ATOM     18  C   UNL     1      -1.046  11.502  19.836  0.00  0.00    +0.000 C 
ATOM     19  C   UNL     1      -0.622  10.025  19.682  0.00  0.00    +0.000 C 
BRANCH  17  20
ATOM     20  C   UNL     1      -1.285  11.548  22.300  0.00  0.00    +0.000 C 
BRANCH  20  21
ATOM     21  C   UNL     1      -2.036  12.553  23.152  0.00  0.00    +0.000 A 
ATOM     22  C   UNL     1      -1.452  13.788  23.473  0.00  0.00    +0.000 A 
ATOM     23  C   UNL     1      -2.095  14.672  24.343  0.00  0.00    +0.000 A 
ATOM     24  C   UNL     1      -3.340  14.345  24.874  0.00  0.00    +0.000 A 
ATOM     25  C   UNL     1      -3.958  13.148  24.513  0.00  0.00    +0.000 A 
ATOM     26  C   UNL     1      -3.309  12.256  23.657  0.00  0.00    +0.000 A 
ENDBRANCH  20  21
ENDBRANCH  17  20
ENDBRANCH   2  14
TORSDOF 3
ENDMDL
MODEL 8
REMARK VINA RESULT:      -6.8      4.266     10.047
REMARK  Name = 
REMARK  4 active torsions:
REMARK  status: ('A' for Active; 'I' for Inactive)
REMARK    1  A    between atoms: C_1  and  C_2
REMARK    2  A    between atoms: C_2  and  N_14
REMARK    3  A    between atoms: N_17  and  C_18
REMARK    4  A    between atoms: C_18  and  C_19
REMARK                            x       y       z     vdW  Elec       q    Type
REMARK                         _______ _______ _______ _____ _____    ______ ____
ROOT
ATOM      1  C   UNL     1       2.236   9.409  17.712  0.00  0.00    +0.000 C 
ATOM      2  C   UNL     1       1.747   8.704  18.963  0.00  0.00    +0.000 C 
ATOM      3  C   UNL     1       2.055   7.419  19.240  0.00  0.00    +0.000 C 
ATOM      4  C   UNL     1       2.994   6.503  18.504  0.00  0.00    +0.000 C 
ATOM      5  O   UNL     1       3.633   6.691  17.495  0.00  0.00    +0.000 OA
ATOM      6  C   UNL     1       3.043   5.264  19.298  0.00  0.00    +0.000 A 
ATOM      7  C   UNL     1       3.815   4.134  19.091  0.00  0.00    +0.000 A 
ATOM      8  C   UNL     1       3.699   3.087  20.012  0.00  0.00    +0.000 A 
ATOM      9  C   UNL     1       2.823   3.184  21.109  0.00  0.00    +0.000 A 
ATOM     10  C   UNL     1       2.047   4.330  21.300  0.00  0.00    +0.000 A 
ATOM     11  C   UNL     1       2.183   5.356  20.382  0.00  0.00    +0.000 A 
ATOM     12  C   UNL     1       1.490   6.642  20.390  0.00  0.00    +0.000 C 
ATOM     13  O   UNL     1       0.604   6.919  21.172  0.00  0.00    +0.000 OA
ENDROOT
BRANCH   2  14
ATOM     14  N   UNL     1       1.003   9.553  19.798  0.00  0.00    +0.000 N 
ATOM     15  C   UNL     1       1.567  10.188  21.010  0.00  0.00    +0.000 C 
ATOM     16  C   UNL     1       1.084  11.658  21.145  0.00  0.00    +0.000 C 
ATOM     17  N   UNL     1      -0.386  11.858  21.048  0.00  0.00    +0.000 NA
ATOM     18  C   UNL     1      -0.831  11.208  19.788  0.00  0.00    +0.000 C 
ATOM     19  C   UNL     1      -0.456   9.715  19.666  0.00  0.00    +0.000 C 
BRANCH  17  20
ATOM     20  C   UNL     1      -1.060  11.319  22.250  0.00  0.00    +0.000 C 
BRANCH  20  21
ATOM     21  C   UNL     1      -1.801  12.363  23.063  0.00  0.00    +0.000 A 
ATOM     22  C   UNL     1      -3.093  12.101  23.547  0.00  0.00    +0.000 A 
ATOM     23  C   UNL     1      -3.819  13.095  24.205  0.00  0.00    +0.000 A 
ATOM     24  C   UNL     1      -3.252  14.350  24.414  0.00  0.00    +0.000 A 
ATOM     25  C   UNL     1      -1.946  14.602  23.993  0.00  0.00    +0.000 A 
ATOM     26  C   UNL     1      -1.224  13.614  23.320  0.00  0.00    +0.000 A 
ENDBRANCH  20  21
ENDBRANCH  17  20
ENDBRANCH   2  14
TORSDOF 3
ENDMDL
MODEL 9
REMARK VINA RESULT:      -6.7      4.162      9.760
REMARK  Name = 
REMARK  4 active torsions:
REMARK  status: ('A' for Active; 'I' for Inactive)
REMARK    1  A    between atoms: C_1  and  C_2
REMARK    2  A    between atoms: C_2  and  N_14
REMARK    3  A    between atoms: N_17  and  C_18
REMARK    4  A    between atoms: C_18  and  C_19
REMARK                            x       y       z     vdW  Elec       q    Type
REMARK                         _______ _______ _______ _____ _____    ______ ____
ROOT
ATOM      1  C   UNL     1       2.685   8.840  17.798  0.00  0.00    +0.000 C 
ATOM      2  C   UNL     1       2.119   8.148  19.023  0.00  0.00    +0.000 C 
ATOM      3  C   UNL     1       2.378   6.855  19.312  0.00  0.00    +0.000 C 
ATOM      4  C   UNL     1       3.325   5.914  18.620  0.00  0.00    +0.000 C 
ATOM      5  O   UNL     1       4.017   6.085  17.642  0.00  0.00    +0.000 OA
ATOM      6  C   UNL     1       3.304   4.674  19.412  0.00  0.00    +0.000 A 
ATOM      7  C   UNL     1       4.054   3.523  19.240  0.00  0.00    +0.000 A 
ATOM      8  C   UNL     1       3.866   2.479  20.153  0.00  0.00    +0.000 A 
ATOM      9  C   UNL     1       2.942   2.599  21.207  0.00  0.00    +0.000 A 
ATOM     10  C   UNL     1       2.190   3.766  21.364  0.00  0.00    +0.000 A 
ATOM     11  C   UNL     1       2.396   4.788  20.455  0.00  0.00    +0.000 A 
ATOM     12  C   UNL     1       1.740   6.093  20.433  0.00  0.00    +0.000 C 
ATOM     13  O   UNL     1       0.826   6.394  21.173  0.00  0.00    +0.000 OA
ENDROOT
BRANCH   2  14
ATOM     14  N   UNL     1       1.360   9.016  19.824  0.00  0.00    +0.000 N 
ATOM     15  C   UNL     1       0.221   9.804  19.304  0.00  0.00    +0.000 C 
ATOM     16  C   UNL     1      -0.955   9.821  20.319  0.00  0.00    +0.000 C 
ATOM     17  N   UNL     1      -0.596  10.215  21.706  0.00  0.00    +0.000 NA
ATOM     18  C   UNL     1       0.531   9.343  22.128  0.00  0.00    +0.000 C 
ATOM     19  C   UNL     1       1.760   9.382  21.195  0.00  0.00    +0.000 C 
BRANCH  17  20
ATOM     20  C   UNL     1      -0.269  11.658  21.764  0.00  0.00    +0.000 C 
BRANCH  20  21
ATOM     21  C   UNL     1      -1.191  12.466  22.655  0.00  0.00    +0.000 A 
ATOM     22  C   UNL     1      -2.403  11.919  23.105  0.00  0.00    +0.000 A 
ATOM     23  C   UNL     1      -3.302  12.695  23.838  0.00  0.00    +0.000 A 
ATOM     24  C   UNL     1      -2.988  14.015  24.156  0.00  0.00    +0.000 A 
ATOM     25  C   UNL     1      -1.760  14.549  23.766  0.00  0.00    +0.000 A 
ATOM     26  C   UNL     1      -0.866  13.780  23.019  0.00  0.00    +0.000 A 
ENDBRANCH  20  21
ENDBRANCH  17  20
ENDBRANCH   2  14
TORSDOF 3
ENDMDL
