MODEL 1
REMARK VINA RESULT:      -7.1      0.000      0.000
REMARK  Name = 
REMARK  7 active torsions:
REMARK  status: ('A' for Active; 'I' for Inactive)
REMARK    1  A    between atoms: C_1  and  C_2
REMARK    2  A    between atoms: C_2  and  C_3
REMARK    3  A    between atoms: C_2  and  O_4
REMARK    4  A    between atoms: O_4  and  C_5
REMARK    5  A    between atoms: C_5  and  C_7
REMARK    6  A    between atoms: C_8  and  C_9
REMARK    7  A    between atoms: C_23  and  C_24
REMARK                            x       y       z     vdW  Elec       q    Type
REMARK                         _______ _______ _______ _____ _____    ______ ____
ROOT
ATOM      1  C   UNL     1       5.169   5.291  16.718  0.00  0.00    +0.000 C 
ATOM      2  C   UNL     1       5.188   4.138  16.002  0.00  0.00    +0.000 C 
ATOM      3  N   UNL     1       4.516   3.018  16.509  0.00  0.00    +0.000 N 
ATOM      4  C   UNL     1       3.878   2.984  17.691  0.00  0.00    +0.000 A 
ATOM      5  N   UNL     1       3.260   1.988  18.274  0.00  0.00    +0.000 NA
ATOM      6  C   UNL     1       2.798   2.499  19.465  0.00  0.00    +0.000 A 
ATOM      7  C   UNL     1       2.043   1.879  20.473  0.00  0.00    +0.000 A 
ATOM      8  C   UNL     1       1.689   2.623  21.606  0.00  0.00    +0.000 A 
ATOM      9  C   UNL     1       2.091   3.952  21.745  0.00  0.00    +0.000 A 
ATOM     10  C   UNL     1       2.847   4.588  20.755  0.00  0.00    +0.000 A 
ATOM     11  C   UNL     1       3.169   3.834  19.621  0.00  0.00    +0.000 A 
ATOM     12  N   UNL     1       3.826   4.124  18.451  0.00  0.00    +0.000 N 
ATOM     13  C   UNL     1       4.391   5.405  18.018  0.00  0.00    +0.000 C 
ATOM     14  H   UNL     1       4.588   2.155  15.966  0.00  0.00    +0.000 HD
ENDROOT
BRANCH  13  15
ATOM     15  C   UNL     1       3.282   6.423  17.914  0.00  0.00    +0.000 A 
ATOM     16  C   UNL     1       3.358   7.837  18.097  0.00  0.00    +0.000 A 
ATOM     17  C   UNL     1       2.091   8.326  17.895  0.00  0.00    +0.000 A 
ATOM     18  O   UNL     1       1.233   7.316  17.606  0.00  0.00    +0.000 OA
ATOM     19  C   UNL     1       1.956   6.169  17.617  0.00  0.00    +0.000 A 
ENDBRANCH  13  15
BRANCH   2  20
ATOM     20  C   UNL     1       5.926   3.963  14.676  0.00  0.00    +0.000 C 
ATOM     21  F   UNL     1       5.934   2.647  14.315  0.00  0.00    +0.000 F 
ATOM     22  F   UNL     1       5.338   4.626  13.654  0.00  0.00    +0.000 F 
ATOM     23  F   UNL     1       7.226   4.339  14.755  0.00  0.00    +0.000 F 
ENDBRANCH   2  20
BRANCH   1  24
ATOM     24  C   UNL     1       5.885   6.504  16.261  0.00  0.00    +0.000 C 
ATOM     25  O   UNL     1       5.402   7.358  15.537  0.00  0.00    +0.000 OA
BRANCH  24  26
ATOM     26  O   UNL     1       7.142   6.517  16.766  0.00  0.00    +0.000 OA
BRANCH  26  28
ATOM     27  C   UNL     1       7.996   6.166  19.020  0.00  0.00    +0.000 C 
ATOM     28  C   UNL     1       7.300   7.128  18.061  0.00  0.00    +0.000 C 
ATOM     29  C   UNL     1       8.140   8.384  17.868  0.00  0.00    +0.000 C 
ENDBRANCH  26  28
ENDBRANCH  24  26
ENDBRANCH   1  24
TORSDOF 5
ENDMDL
MODEL 2
REMARK VINA RESULT:      -6.9      6.868      9.511
REMARK  Name = 
REMARK  7 active torsions:
REMARK  status: ('A' for Active; 'I' for Inactive)
REMARK    1  A    between atoms: C_1  and  C_2
REMARK    2  A    between atoms: C_2  and  C_3
REMARK    3  A    between atoms: C_2  and  O_4
REMARK    4  A    between atoms: O_4  and  C_5
REMARK    5  A    between atoms: C_5  and  C_7
REMARK    6  A    between atoms: C_8  and  C_9
REMARK    7  A    between atoms: C_23  and  C_24
REMARK                            x       y       z     vdW  Elec       q    Type
REMARK                         _______ _______ _______ _____ _____    ______ ____
ROOT
ATOM      1  C   UNL     1       0.018  11.159  19.665  0.00  0.00    +0.000 C 
ATOM      2  C   UNL     1       0.265  10.378  18.582  0.00  0.00    +0.000 C 
ATOM      3  N   UNL     1      -0.756  10.189  17.641  0.00  0.00    +0.000 N 
ATOM      4  C   UNL     1      -1.996  10.695  17.752  0.00  0.00    +0.000 A 
ATOM      5  N   UNL     1      -3.027  10.545  16.960  0.00  0.00    +0.000 NA
ATOM      6  C   UNL     1      -4.040  11.268  17.550  0.00  0.00    +0.000 A 
ATOM      7  C   UNL     1      -5.358  11.479  17.117  0.00  0.00    +0.000 A 
ATOM      8  C   UNL     1      -6.209  12.265  17.904  0.00  0.00    +0.000 A 
ATOM      9  C   UNL     1      -5.767  12.817  19.107  0.00  0.00    +0.000 A 
ATOM     10  C   UNL     1      -4.459  12.616  19.559  0.00  0.00    +0.000 A 
ATOM     11  C   UNL     1      -3.619  11.847  18.745  0.00  0.00    +0.000 A 
ATOM     12  N   UNL     1      -2.295  11.492  18.826  0.00  0.00    +0.000 N 
ATOM     13  C   UNL     1      -1.311  11.869  19.845  0.00  0.00    +0.000 C 
ATOM     14  H   UNL     1      -0.550   9.562  16.861  0.00  0.00    +0.000 HD
ENDROOT
BRANCH  13  15
ATOM     15  C   UNL     1      -1.145  13.369  19.838  0.00  0.00    +0.000 A 
ATOM     16  C   UNL     1      -1.564  14.311  20.826  0.00  0.00    +0.000 A 
ATOM     17  C   UNL     1      -1.186  15.550  20.371  0.00  0.00    +0.000 A 
ATOM     18  O   UNL     1      -0.568  15.445  19.168  0.00  0.00    +0.000 OA
ATOM     19  C   UNL     1      -0.544  14.127  18.851  0.00  0.00    +0.000 A 
ENDBRANCH  13  15
BRANCH   2  20
ATOM     20  C   UNL     1       1.587   9.658  18.326  0.00  0.00    +0.000 C 
ATOM     21  F   UNL     1       1.490   8.883  17.207  0.00  0.00    +0.000 F 
ATOM     22  F   UNL     1       2.616  10.507  18.101  0.00  0.00    +0.000 F 
ATOM     23  F   UNL     1       1.923   8.819  19.336  0.00  0.00    +0.000 F 
ENDBRANCH   2  20
BRANCH   1  24
ATOM     24  C   UNL     1       1.038  11.375  20.717  0.00  0.00    +0.000 C 
ATOM     25  O   UNL     1       1.831  12.302  20.728  0.00  0.00    +0.000 OA
BRANCH  24  26
ATOM     26  O   UNL     1       0.953  10.399  21.653  0.00  0.00    +0.000 OA
BRANCH  26  28
ATOM     27  C   UNL     1      -0.287   8.310  21.836  0.00  0.00    +0.000 C 
ATOM     28  C   UNL     1      -0.356   9.834  21.862  0.00  0.00    +0.000 C 
ATOM     29  C   UNL     1      -0.845  10.319  23.222  0.00  0.00    +0.000 C 
ENDBRANCH  26  28
ENDBRANCH  24  26
ENDBRANCH   1  24
TORSDOF 5
ENDMDL
MODEL 3
REMARK VINA RESULT:      -6.8      0.737      1.103
REMARK  Name = 
REMARK  7 active torsions:
REMARK  status: ('A' for Active; 'I' for Inactive)
REMARK    1  A    between atoms: C_1  and  C_2
REMARK    2  A    between atoms: C_2  and  C_3
REMARK    3  A    between atoms: C_2  and  O_4
REMARK    4  A    between atoms: O_4  and  C_5
REMARK    5  A    between atoms: C_5  and  C_7
REMARK    6  A    between atoms: C_8  and  C_9
REMARK    7  A    between atoms: C_23  and  C_24
REMARK                            x       y       z     vdW  Elec       q    Type
REMARK                         _______ _______ _______ _____ _____    ______ ____
ROOT
ATOM      1  C   UNL     1       5.304   5.408  16.995  0.00  0.00    +0.000 C 
ATOM      2  C   UNL     1       5.217   4.401  16.089  0.00  0.00    +0.000 C 
ATOM      3  N   UNL     1       4.376   3.316  16.365  0.00  0.00    +0.000 N 
ATOM      4  C   UNL     1       3.669   3.170  17.499  0.00  0.00    +0.000 A 
ATOM      5  N   UNL     1       2.894   2.184  17.873  0.00  0.00    +0.000 NA
ATOM      6  C   UNL     1       2.431   2.546  19.118  0.00  0.00    +0.000 A 
ATOM      7  C   UNL     1       1.543   1.874  19.973  0.00  0.00    +0.000 A 
ATOM      8  C   UNL     1       1.221   2.456  21.205  0.00  0.00    +0.000 A 
ATOM      9  C   UNL     1       1.783   3.674  21.591  0.00  0.00    +0.000 A 
ATOM     10  C   UNL     1       2.672   4.358  20.757  0.00  0.00    +0.000 A 
ATOM     11  C   UNL     1       2.961   3.770  19.520  0.00  0.00    +0.000 A 
ATOM     12  N   UNL     1       3.720   4.160  18.445  0.00  0.00    +0.000 N 
ATOM     13  C   UNL     1       4.471   5.406  18.265  0.00  0.00    +0.000 C 
ATOM     14  H   UNL     1       4.368   2.556  15.681  0.00  0.00    +0.000 HD
ENDROOT
BRANCH  13  15
ATOM     15  C   UNL     1       3.512   6.570  18.301  0.00  0.00    +0.000 A 
ATOM     16  C   UNL     1       2.995   7.325  17.205  0.00  0.00    +0.000 A 
ATOM     17  C   UNL     1       2.159   8.274  17.743  0.00  0.00    +0.000 A 
ATOM     18  O   UNL     1       2.127   8.164  19.095  0.00  0.00    +0.000 OA
ATOM     19  C   UNL     1       2.942   7.134  19.428  0.00  0.00    +0.000 A 
ENDBRANCH  13  15
BRANCH   2  20
ATOM     20  C   UNL     1       6.005   4.354  14.781  0.00  0.00    +0.000 C 
ATOM     21  F   UNL     1       5.696   5.435  14.008  0.00  0.00    +0.000 F 
ATOM     22  F   UNL     1       7.344   4.402  14.969  0.00  0.00    +0.000 F 
ATOM     23  F   UNL     1       5.705   3.262  14.036  0.00  0.00    +0.000 F 
ENDBRANCH   2  20
BRANCH   1  24
ATOM     24  C   UNL     1       6.198   6.570  16.785  0.00  0.00    +0.000 C 
ATOM     25  O   UNL     1       5.874   7.593  16.206  0.00  0.00    +0.000 OA
BRANCH  24  26
ATOM     26  O   UNL     1       7.414   6.323  17.331  0.00  0.00    +0.000 OA
BRANCH  26  28
ATOM     27  C   UNL     1       8.267   5.718  19.531  0.00  0.00    +0.000 C 
ATOM     28  C   UNL     1       7.613   6.800  18.676  0.00  0.00    +0.000 C 
ATOM     29  C   UNL     1       8.517   8.025  18.591  0.00  0.00    +0.000 C 
ENDBRANCH  26  28
ENDBRANCH  24  26
ENDBRANCH   1  24
TORSDOF 5
ENDMDL
MODEL 4
REMARK VINA RESULT:      -6.8      9.112     11.468
REMARK  Name = 
REMARK  7 active torsions:
REMARK  status: ('A' for Active; 'I' for Inactive)
REMARK    1  A    between atoms: C_1  and  C_2
REMARK    2  A    between atoms: C_2  and  C_3
REMARK    3  A    between atoms: C_2  and  O_4
REMARK    4  A    between atoms: O_4  and  C_5
REMARK    5  A    between atoms: C_5  and  C_7
REMARK    6  A    between atoms: C_8  and  C_9
REMARK    7  A    between atoms: C_23  and  C_24
REMARK                            x       y       z     vdW  Elec       q    Type
REMARK                         _______ _______ _______ _____ _____    ______ ____
ROOT
ATOM      1  C   UNL     1      -2.036  12.043  20.330  0.00  0.00    +0.000 C 
ATOM      2  C   UNL     1      -2.606  12.081  19.098  0.00  0.00    +0.000 C 
ATOM      3  N   UNL     1      -3.962  12.413  18.992  0.00  0.00    +0.000 N 
ATOM      4  C   UNL     1      -4.769  12.660  20.038  0.00  0.00    +0.000 A 
ATOM      5  N   UNL     1      -6.049  12.935  20.053  0.00  0.00    +0.000 NA
ATOM      6  C   UNL     1      -6.367  13.087  21.384  0.00  0.00    +0.000 A 
ATOM      7  C   UNL     1      -7.595  13.416  21.979  0.00  0.00    +0.000 A 
ATOM      8  C   UNL     1      -7.665  13.514  23.375  0.00  0.00    +0.000 A 
ATOM      9  C   UNL     1      -6.542  13.273  24.167  0.00  0.00    +0.000 A 
ATOM     10  C   UNL     1      -5.310  12.940  23.595  0.00  0.00    +0.000 A 
ATOM     11  C   UNL     1      -5.257  12.871  22.198  0.00  0.00    +0.000 A 
ATOM     12  N   UNL     1      -4.243  12.637  21.303  0.00  0.00    +0.000 N 
ATOM     13  C   UNL     1      -2.821  12.406  21.578  0.00  0.00    +0.000 C 
ATOM     14  H   UNL     1      -4.369  12.391  18.055  0.00  0.00    +0.000 HD
ENDROOT
BRANCH  13  15
ATOM     15  C   UNL     1      -2.247  13.623  22.261  0.00  0.00    +0.000 A 
ATOM     16  C   UNL     1      -1.594  13.701  23.528  0.00  0.00    +0.000 A 
ATOM     17  C   UNL     1      -1.249  15.019  23.710  0.00  0.00    +0.000 A 
ATOM     18  O   UNL     1      -1.647  15.763  22.648  0.00  0.00    +0.000 OA
ATOM     19  C   UNL     1      -2.247  14.918  21.775  0.00  0.00    +0.000 A 
ENDBRANCH  13  15
BRANCH   2  20
ATOM     20  C   UNL     1      -1.868  11.754  17.801  0.00  0.00    +0.000 C 
ATOM     21  F   UNL     1      -2.751  11.693  16.762  0.00  0.00    +0.000 F 
ATOM     22  F   UNL     1      -0.959  12.697  17.460  0.00  0.00    +0.000 F 
ATOM     23  F   UNL     1      -1.255  10.547  17.845  0.00  0.00    +0.000 F 
ENDBRANCH   2  20
BRANCH   1  24
ATOM     24  C   UNL     1      -0.617  11.666  20.520  0.00  0.00    +0.000 C 
ATOM     25  O   UNL     1       0.322  12.435  20.401  0.00  0.00    +0.000 OA
BRANCH  24  26
ATOM     26  O   UNL     1      -0.526  10.354  20.845  0.00  0.00    +0.000 OA
BRANCH  26  28
ATOM     27  C   UNL     1      -0.460   9.845  23.226  0.00  0.00    +0.000 C 
ATOM     28  C   UNL     1       0.347  10.031  21.945  0.00  0.00    +0.000 C 
ATOM     29  C   UNL     1       1.071   8.740  21.582  0.00  0.00    +0.000 C 
ENDBRANCH  26  28
ENDBRANCH  24  26
ENDBRANCH   1  24
TORSDOF 5
ENDMDL
MODEL 5
REMARK VINA RESULT:      -6.6      9.116     10.722
REMARK  Name = 
REMARK  7 active torsions:
REMARK  status: ('A' for Active; 'I' for Inactive)
REMARK    1  A    between atoms: C_1  and  C_2
REMARK    2  A    between atoms: C_2  and  C_3
REMARK    3  A    between atoms: C_2  and  O_4
REMARK    4  A    between atoms: O_4  and  C_5
REMARK    5  A    between atoms: C_5  and  C_7
REMARK    6  A    between atoms: C_8  and  C_9
REMARK    7  A    between atoms: C_23  and  C_24
REMARK                            x       y       z     vdW  Elec       q    Type
REMARK                         _______ _______ _______ _____ _____    ______ ____
ROOT
ATOM      1  C   UNL     1       9.975  13.187  20.714  0.00  0.00    +0.000 C 
ATOM      2  C   UNL     1       9.638  11.886  20.523  0.00  0.00    +0.000 C 
ATOM      3  N   UNL     1       8.923  11.220  21.527  0.00  0.00    +0.000 N 
ATOM      4  C   UNL     1       8.577  11.766  22.705  0.00  0.00    +0.000 A 
ATOM      5  N   UNL     1       7.953  11.225  23.721  0.00  0.00    +0.000 NA
ATOM      6  C   UNL     1       7.868  12.225  24.663  0.00  0.00    +0.000 A 
ATOM      7  C   UNL     1       7.273  12.209  25.934  0.00  0.00    +0.000 A 
ATOM      8  C   UNL     1       7.317  13.370  26.716  0.00  0.00    +0.000 A 
ATOM      9  C   UNL     1       7.955  14.521  26.252  0.00  0.00    +0.000 A 
ATOM     10  C   UNL     1       8.558  14.559  24.992  0.00  0.00    +0.000 A 
ATOM     11  C   UNL     1       8.481  13.394  24.218  0.00  0.00    +0.000 A 
ATOM     12  N   UNL     1       8.891  13.078  22.947  0.00  0.00    +0.000 N 
ATOM     13  C   UNL     1       9.546  13.943  21.960  0.00  0.00    +0.000 C 
ATOM     14  H   UNL     1       8.724  10.230  21.369  0.00  0.00    +0.000 HD
ENDROOT
BRANCH  13  15
ATOM     15  C   UNL     1       8.628  15.091  21.624  0.00  0.00    +0.000 A 
ATOM     16  C   UNL     1       8.868  16.491  21.779  0.00  0.00    +0.000 A 
ATOM     17  C   UNL     1       7.739  17.133  21.332  0.00  0.00    +0.000 A 
ATOM     18  O   UNL     1       6.814  16.232  20.917  0.00  0.00    +0.000 OA
ATOM     19  C   UNL     1       7.355  15.001  21.093  0.00  0.00    +0.000 A 
ENDBRANCH  13  15
BRANCH   2  20
ATOM     20  C   UNL     1      10.012  11.075  19.284  0.00  0.00    +0.000 C 
ATOM     21  F   UNL     1       9.602   9.782  19.428  0.00  0.00    +0.000 F 
ATOM     22  F   UNL     1       9.417  11.530  18.157  0.00  0.00    +0.000 F 
ATOM     23  F   UNL     1      11.352  11.025  19.084  0.00  0.00    +0.000 F 
ENDBRANCH   2  20
BRANCH   1  24
ATOM     24  C   UNL     1      10.759  13.944  19.711  0.00  0.00    +0.000 C 
ATOM     25  O   UNL     1      11.954  14.167  19.797  0.00  0.00    +0.000 OA
BRANCH  24  26
ATOM     26  O   UNL     1       9.952  14.341  18.698  0.00  0.00    +0.000 OA
BRANCH  26  28
ATOM     27  C   UNL     1      11.021  15.655  16.948  0.00  0.00    +0.000 C 
ATOM     28  C   UNL     1      10.162  15.680  18.208  0.00  0.00    +0.000 C 
ATOM     29  C   UNL     1       8.789  16.268  17.901  0.00  0.00    +0.000 C 
ENDBRANCH  26  28
ENDBRANCH  24  26
ENDBRANCH   1  24
TORSDOF 5
ENDMDL
MODEL 6
REMARK VINA RESULT:      -6.6      6.955      9.670
REMARK  Name = 
REMARK  7 active torsions:
REMARK  status: ('A' for Active; 'I' for Inactive)
REMARK    1  A    between atoms: C_1  and  C_2
REMARK    2  A    between atoms: C_2  and  C_3
REMARK    3  A    between atoms: C_2  and  O_4
REMARK    4  A    between atoms: O_4  and  C_5
REMARK    5  A    between atoms: C_5  and  C_7
REMARK    6  A    between atoms: C_8  and  C_9
REMARK    7  A    between atoms: C_23  and  C_24
REMARK                            x       y       z     vdW  Elec       q    Type
REMARK                         _______ _______ _______ _____ _____    ______ ____
ROOT
ATOM      1  C   UNL     1      -0.803  11.842  20.606  0.00  0.00    +0.000 C 
ATOM      2  C   UNL     1      -1.003  11.224  21.798  0.00  0.00    +0.000 C 
ATOM      3  N   UNL     1      -0.359  10.004  22.041  0.00  0.00    +0.000 N 
ATOM      4  C   UNL     1       0.421   9.364  21.153  0.00  0.00    +0.000 A 
ATOM      5  N   UNL     1       1.029   8.210  21.261  0.00  0.00    +0.000 NA
ATOM      6  C   UNL     1       1.678   8.033  20.060  0.00  0.00    +0.000 A 
ATOM      7  C   UNL     1       2.506   6.982  19.636  0.00  0.00    +0.000 A 
ATOM      8  C   UNL     1       3.058   7.033  18.350  0.00  0.00    +0.000 A 
ATOM      9  C   UNL     1       2.780   8.099  17.493  0.00  0.00    +0.000 A 
ATOM     10  C   UNL     1       1.955   9.155  17.893  0.00  0.00    +0.000 A 
ATOM     11  C   UNL     1       1.434   9.095  19.191  0.00  0.00    +0.000 A 
ATOM     12  N   UNL     1       0.656   9.947  19.935  0.00  0.00    +0.000 N 
ATOM     13  C   UNL     1       0.141  11.268  19.563  0.00  0.00    +0.000 C 
ATOM     14  H   UNL     1      -0.566   9.545  22.931  0.00  0.00    +0.000 HD
ENDROOT
BRANCH  13  15
ATOM     15  C   UNL     1       1.302  12.193  19.297  0.00  0.00    +0.000 A 
ATOM     16  C   UNL     1       1.828  12.614  18.038  0.00  0.00    +0.000 A 
ATOM     17  C   UNL     1       2.879  13.455  18.313  0.00  0.00    +0.000 A 
ATOM     18  O   UNL     1       3.046  13.580  19.654  0.00  0.00    +0.000 OA
ATOM     19  C   UNL     1       2.092  12.819  20.243  0.00  0.00    +0.000 A 
ENDBRANCH  13  15
BRANCH   2  20
ATOM     20  C   UNL     1      -1.916  11.759  22.900  0.00  0.00    +0.000 C 
ATOM     21  F   UNL     1      -2.152  10.785  23.827  0.00  0.00    +0.000 F 
ATOM     22  F   UNL     1      -1.371  12.794  23.579  0.00  0.00    +0.000 F 
ATOM     23  F   UNL     1      -3.130  12.132  22.429  0.00  0.00    +0.000 F 
ENDBRANCH   2  20
BRANCH   1  24
ATOM     24  C   UNL     1      -1.477  13.116  20.266  0.00  0.00    +0.000 C 
ATOM     25  O   UNL     1      -1.368  14.146  20.911  0.00  0.00    +0.000 OA
BRANCH  24  26
ATOM     26  O   UNL     1      -2.220  12.962  19.144  0.00  0.00    +0.000 OA
BRANCH  26  28
ATOM     27  C   UNL     1      -4.584  12.752  19.695  0.00  0.00    +0.000 C 
ATOM     28  C   UNL     1      -3.319  12.034  19.234  0.00  0.00    +0.000 C 
ATOM     29  C   UNL     1      -3.523  11.442  17.844  0.00  0.00    +0.000 C 
ENDBRANCH  26  28
ENDBRANCH  24  26
ENDBRANCH   1  24
TORSDOF 5
ENDMDL
MODEL 7
REMARK VINA RESULT:      -6.5      0.801      1.076
REMARK  Name = 
REMARK  7 active torsions:
REMARK  status: ('A' for Active; 'I' for Inactive)
REMARK    1  A    between atoms: C_1  and  C_2
REMARK    2  A    between atoms: C_2  and  C_3
REMARK    3  A    between atoms: C_2  and  O_4
REMARK    4  A    between atoms: O_4  and  C_5
REMARK    5  A    between atoms: C_5  and  C_7
REMARK    6  A    between atoms: C_8  and  C_9
REMARK    7  A    between atoms: C_23  and  C_24
REMARK                            x       y       z     vdW  Elec       q    Type
REMARK                         _______ _______ _______ _____ _____    ______ ____
ROOT
ATOM      1  C   UNL     1       5.119   5.622  17.131  0.00  0.00    +0.000 C 
ATOM      2  C   UNL     1       5.094   4.603  16.234  0.00  0.00    +0.000 C 
ATOM      3  N   UNL     1       4.326   3.469  16.524  0.00  0.00    +0.000 N 
ATOM      4  C   UNL     1       3.633   3.289  17.662  0.00  0.00    +0.000 A 
ATOM      5  N   UNL     1       2.924   2.259  18.048  0.00  0.00    +0.000 NA
ATOM      6  C   UNL     1       2.443   2.601  19.292  0.00  0.00    +0.000 A 
ATOM      7  C   UNL     1       1.603   1.882  20.157  0.00  0.00    +0.000 A 
ATOM      8  C   UNL     1       1.249   2.454  21.385  0.00  0.00    +0.000 A 
ATOM      9  C   UNL     1       1.732   3.709  21.757  0.00  0.00    +0.000 A 
ATOM     10  C   UNL     1       2.573   4.441  20.914  0.00  0.00    +0.000 A 
ATOM     11  C   UNL     1       2.895   3.861  19.681  0.00  0.00    +0.000 A 
ATOM     12  N   UNL     1       3.624   4.289  18.599  0.00  0.00    +0.000 N 
ATOM     13  C   UNL     1       4.293   5.579  18.404  0.00  0.00    +0.000 C 
ATOM     14  H   UNL     1       4.364   2.703  15.848  0.00  0.00    +0.000 HD
ENDROOT
BRANCH  13  15
ATOM     15  C   UNL     1       3.260   6.679  18.434  0.00  0.00    +0.000 A 
ATOM     16  C   UNL     1       2.724   7.419  17.337  0.00  0.00    +0.000 A 
ATOM     17  C   UNL     1       1.817   8.303  17.868  0.00  0.00    +0.000 A 
ATOM     18  O   UNL     1       1.758   8.169  19.216  0.00  0.00    +0.000 OA
ATOM     19  C   UNL     1       2.629   7.187  19.554  0.00  0.00    +0.000 A 
ENDBRANCH  13  15
BRANCH   2  20
ATOM     20  C   UNL     1       5.879   4.594  14.923  0.00  0.00    +0.000 C 
ATOM     21  F   UNL     1       5.784   3.369  14.329  0.00  0.00    +0.000 F 
ATOM     22  F   UNL     1       5.406   5.482  14.020  0.00  0.00    +0.000 F 
ATOM     23  F   UNL     1       7.202   4.819  15.111  0.00  0.00    +0.000 F 
ENDBRANCH   2  20
BRANCH   1  24
ATOM     24  C   UNL     1       5.936   6.837  16.907  0.00  0.00    +0.000 C 
ATOM     25  O   UNL     1       6.082   7.379  15.824  0.00  0.00    +0.000 OA
BRANCH  24  26
ATOM     26  O   UNL     1       6.486   7.247  18.075  0.00  0.00    +0.000 OA
BRANCH  26  28
ATOM     27  C   UNL     1       8.564   8.427  18.547  0.00  0.00    +0.000 C 
ATOM     28  C   UNL     1       7.914   7.093  18.193  0.00  0.00    +0.000 C 
ATOM     29  C   UNL     1       8.168   6.071  19.294  0.00  0.00    +0.000 C 
ENDBRANCH  26  28
ENDBRANCH  24  26
ENDBRANCH   1  24
TORSDOF 5
ENDMDL
MODEL 8
REMARK VINA RESULT:      -6.5      9.194     11.512
REMARK  Name = 
REMARK  7 active torsions:
REMARK  status: ('A' for Active; 'I' for Inactive)
REMARK    1  A    between atoms: C_1  and  C_2
REMARK    2  A    between atoms: C_2  and  C_3
REMARK    3  A    between atoms: C_2  and  O_4
REMARK    4  A    between atoms: O_4  and  C_5
REMARK    5  A    between atoms: C_5  and  C_7
REMARK    6  A    between atoms: C_8  and  C_9
REMARK    7  A    between atoms: C_23  and  C_24
REMARK                            x       y       z     vdW  Elec       q    Type
REMARK                         _______ _______ _______ _____ _____    ______ ____
ROOT
ATOM      1  C   UNL     1      -1.593  12.552  20.759  0.00  0.00    +0.000 C 
ATOM      2  C   UNL     1      -2.052  12.420  19.488  0.00  0.00    +0.000 C 
ATOM      3  N   UNL     1      -3.434  12.462  19.263  0.00  0.00    +0.000 N 
ATOM      4  C   UNL     1      -4.360  12.582  20.230  0.00  0.00    +0.000 A 
ATOM      5  N   UNL     1      -5.665  12.588  20.134  0.00  0.00    +0.000 NA
ATOM      6  C   UNL     1      -6.119  12.728  21.426  0.00  0.00    +0.000 A 
ATOM      7  C   UNL     1      -7.434  12.823  21.908  0.00  0.00    +0.000 A 
ATOM      8  C   UNL     1      -7.640  12.963  23.286  0.00  0.00    +0.000 A 
ATOM      9  C   UNL     1      -6.562  12.992  24.172  0.00  0.00    +0.000 A 
ATOM     10  C   UNL     1      -5.245  12.895  23.714  0.00  0.00    +0.000 A 
ATOM     11  C   UNL     1      -5.061  12.779  22.332  0.00  0.00    +0.000 A 
ATOM     12  N   UNL     1      -3.948  12.721  21.530  0.00  0.00    +0.000 N 
ATOM     13  C   UNL     1      -2.538  12.799  21.922  0.00  0.00    +0.000 C 
ATOM     14  H   UNL     1      -3.746  12.316  18.301  0.00  0.00    +0.000 HD
ENDROOT
BRANCH  13  15
ATOM     15  C   UNL     1      -2.280  14.136  22.573  0.00  0.00    +0.000 A 
ATOM     16  C   UNL     1      -1.779  14.400  23.883  0.00  0.00    +0.000 A 
ATOM     17  C   UNL     1      -1.717  15.767  24.010  0.00  0.00    +0.000 A 
ATOM     18  O   UNL     1      -2.150  16.368  22.873  0.00  0.00    +0.000 OA
ATOM     19  C   UNL     1      -2.487  15.381  22.008  0.00  0.00    +0.000 A 
ENDBRANCH  13  15
BRANCH   2  20
ATOM     20  C   UNL     1      -1.157  12.197  18.271  0.00  0.00    +0.000 C 
ATOM     21  F   UNL     1      -1.916  11.885  17.181  0.00  0.00    +0.000 F 
ATOM     22  F   UNL     1      -0.449  13.298  17.929  0.00  0.00    +0.000 F 
ATOM     23  F   UNL     1      -0.301  11.160  18.441  0.00  0.00    +0.000 F 
ENDBRANCH   2  20
BRANCH   1  24
ATOM     24  C   UNL     1      -0.148  12.483  21.076  0.00  0.00    +0.000 C 
ATOM     25  O   UNL     1       0.707  13.172  20.546  0.00  0.00    +0.000 OA
BRANCH  24  26
ATOM     26  O   UNL     1       0.072  11.551  22.034  0.00  0.00    +0.000 OA
BRANCH  26  28
ATOM     27  C   UNL     1       0.986   9.564  20.963  0.00  0.00    +0.000 C 
ATOM     28  C   UNL     1      -0.214  10.186  21.669  0.00  0.00    +0.000 C 
ATOM     29  C   UNL     1      -0.522   9.430  22.956  0.00  0.00    +0.000 C 
ENDBRANCH  26  28
ENDBRANCH  24  26
ENDBRANCH   1  24
TORSDOF 5
ENDMDL
MODEL 9
REMARK VINA RESULT:      -6.5      8.479     11.012
REMARK  Name = 
REMARK  7 active torsions:
REMARK  status: ('A' for Active; 'I' for Inactive)
REMARK    1  A    between atoms: C_1  and  C_2
REMARK    2  A    between atoms: C_2  and  C_3
REMARK    3  A    between atoms: C_2  and  O_4
REMARK    4  A    between atoms: O_4  and  C_5
REMARK    5  A    between atoms: C_5  and  C_7
REMARK    6  A    between atoms: C_8  and  C_9
REMARK    7  A    between atoms: C_23  and  C_24
REMARK                            x       y       z     vdW  Elec       q    Type
REMARK                         _______ _______ _______ _____ _____    ______ ____
ROOT
ATOM      1  C   UNL     1      -1.916  11.541  19.537  0.00  0.00    +0.000 C 
ATOM      2  C   UNL     1      -2.913  11.531  18.615  0.00  0.00    +0.000 C 
ATOM      3  N   UNL     1      -4.089  12.241  18.888  0.00  0.00    +0.000 N 
ATOM      4  C   UNL     1      -4.329  12.906  20.031  0.00  0.00    +0.000 A 
ATOM      5  N   UNL     1      -5.401  13.560  20.402  0.00  0.00    +0.000 NA
ATOM      6  C   UNL     1      -5.111  14.037  21.660  0.00  0.00    +0.000 A 
ATOM      7  C   UNL     1      -5.891  14.829  22.518  0.00  0.00    +0.000 A 
ATOM      8  C   UNL     1      -5.366  15.191  23.765  0.00  0.00    +0.000 A 
ATOM      9  C   UNL     1      -4.098  14.762  24.161  0.00  0.00    +0.000 A 
ATOM     10  C   UNL     1      -3.307  13.970  23.324  0.00  0.00    +0.000 A 
ATOM     11  C   UNL     1      -3.842  13.639  22.073  0.00  0.00    +0.000 A 
ATOM     12  N   UNL     1      -3.353  12.949  20.992  0.00  0.00    +0.000 N 
ATOM     13  C   UNL     1      -2.029  12.345  20.820  0.00  0.00    +0.000 C 
ATOM     14  H   UNL     1      -4.835  12.177  18.192  0.00  0.00    +0.000 HD
ENDROOT
BRANCH  13  15
ATOM     15  C   UNL     1      -0.980  13.427  20.891  0.00  0.00    +0.000 A 
ATOM     16  C   UNL     1       0.066  13.584  21.850  0.00  0.00    +0.000 A 
ATOM     17  C   UNL     1       0.759  14.715  21.492  0.00  0.00    +0.000 A 
ATOM     18  O   UNL     1       0.212  15.274  20.383  0.00  0.00    +0.000 OA
ATOM     19  C   UNL     1      -0.835  14.493  20.023  0.00  0.00    +0.000 A 
ENDBRANCH  13  15
BRANCH   2  20
ATOM     20  C   UNL     1      -2.853  10.767  17.294  0.00  0.00    +0.000 C 
ATOM     21  F   UNL     1      -4.087  10.741  16.711  0.00  0.00    +0.000 F 
ATOM     22  F   UNL     1      -2.028  11.343  16.389  0.00  0.00    +0.000 F 
ATOM     23  F   UNL     1      -2.489   9.473  17.460  0.00  0.00    +0.000 F 
ENDBRANCH   2  20
BRANCH   1  24
ATOM     24  C   UNL     1      -0.658  10.786  19.331  0.00  0.00    +0.000 C 
ATOM     25  O   UNL     1       0.228  11.120  18.563  0.00  0.00    +0.000 OA
BRANCH  24  26
ATOM     26  O   UNL     1      -0.646   9.684  20.118  0.00  0.00    +0.000 OA
BRANCH  26  28
ATOM     27  C   UNL     1      -0.255   9.560  22.519  0.00  0.00    +0.000 C 
ATOM     28  C   UNL     1       0.376   9.640  21.133  0.00  0.00    +0.000 C 
ATOM     29  C   UNL     1       1.225   8.403  20.865  0.00  0.00    +0.000 C 
ENDBRANCH  26  28
ENDBRANCH  24  26
ENDBRANCH   1  24
TORSDOF 5
ENDMDL
