MODEL 1
REMARK VINA RESULT:      -8.9      0.000      0.000
REMARK  Name = 
REMARK  4 active torsions:
REMARK  status: ('A' for Active; 'I' for Inactive)
REMARK    1  A    between atoms: C_1  and  N_2
REMARK    2  A    between atoms: N_5  and  C_6
REMARK    3  A    between atoms: C_11  and  C_12
REMARK    4  A    between atoms: C_13  and  N_14
REMARK                            x       y       z     vdW  Elec       q    Type
REMARK                         _______ _______ _______ _____ _____    ______ ____
ROOT
ATOM      1  C   UNL     1      -0.867  11.148  21.929  0.00  0.00    +0.000 A 
ATOM      2  C   UNL     1      -0.471  10.436  23.079  0.00  0.00    +0.000 A 
ATOM      3  C   UNL     1       0.327   9.288  23.033  0.00  0.00    +0.000 A 
ATOM      4  C   UNL     1       0.739   8.885  21.771  0.00  0.00    +0.000 A 
ATOM      5  N   UNL     1       1.474   7.816  21.344  0.00  0.00    +0.000 N 
ATOM      6  C   UNL     1       1.640   7.909  19.982  0.00  0.00    +0.000 A 
ATOM      7  N   UNL     1       1.000   8.972  19.516  0.00  0.00    +0.000 NA
ATOM      8  C   UNL     1       0.417   9.569  20.608  0.00  0.00    +0.000 A 
ATOM      9  C   UNL     1      -0.408  10.702  20.681  0.00  0.00    +0.000 A 
ATOM     10  H   UNL     1       1.824   7.058  21.921  0.00  0.00    +0.000 HD
ENDROOT
BRANCH   6  11
ATOM     11  C   UNL     1       2.453   6.950  19.308  0.00  0.00    +0.000 A 
ATOM     12  C   UNL     1       3.127   7.313  18.189  0.00  0.00    +0.000 A 
ATOM     13  C   UNL     1       3.950   6.294  17.481  0.00  0.00    +0.000 A 
ATOM     14  C   UNL     1       4.736   6.601  16.358  0.00  0.00    +0.000 A 
ATOM     15  C   UNL     1       5.489   5.612  15.722  0.00  0.00    +0.000 A 
ATOM     16  C   UNL     1       5.465   4.311  16.207  0.00  0.00    +0.000 A 
ATOM     17  F   UNL     1       6.192   3.364  15.598  0.00  0.00    +0.000 F 
ATOM     18  C   UNL     1       4.705   3.976  17.319  0.00  0.00    +0.000 A 
ATOM     19  C   UNL     1       3.960   4.970  17.953  0.00  0.00    +0.000 A 
ATOM     20  N   UNL     1       3.243   4.639  19.103  0.00  0.00    +0.000 N 
ATOM     21  C   UNL     1       2.541   5.549  19.838  0.00  0.00    +0.000 A 
ATOM     22  O   UNL     1       2.020   5.216  20.903  0.00  0.00    +0.000 OA
ATOM     23  H   UNL     1       3.274   3.700  19.476  0.00  0.00    +0.000 HD
BRANCH  12  24
ATOM     24  N   UNL     1       3.128   8.603  17.648  0.00  0.00    +0.000 N 
ATOM     25  H   UNL     1       3.713   9.232  18.218  0.00  0.00    +0.000 HD
ATOM     26  H   UNL     1       2.195   8.997  17.581  0.00  0.00    +0.000 HD
ENDBRANCH  12  24
ENDBRANCH   6  11
BRANCH   1  31
ATOM     27  C   UNL     1      -4.903  14.771  23.192  0.00  0.00    +0.000 C 
ATOM     28  N   UNL     1      -3.654  14.326  22.580  0.00  0.00    +0.000 NA
ATOM     29  C   UNL     1      -3.911  13.241  21.601  0.00  0.00    +0.000 C 
ATOM     30  C   UNL     1      -2.613  12.658  20.982  0.00  0.00    +0.000 C 
ATOM     31  N   UNL     1      -1.734  12.215  22.072  0.00  0.00    +0.000 N 
ATOM     32  C   UNL     1      -1.406  13.282  23.029  0.00  0.00    +0.000 C 
ATOM     33  C   UNL     1      -2.718  13.840  23.623  0.00  0.00    +0.000 C 
ENDBRANCH   1  31
TORSDOF 3
ENDMDL
MODEL 2
REMARK VINA RESULT:      -8.7      3.613      9.898
REMARK  Name = 
REMARK  4 active torsions:
REMARK  status: ('A' for Active; 'I' for Inactive)
REMARK    1  A    between atoms: C_1  and  N_2
REMARK    2  A    between atoms: N_5  and  C_6
REMARK    3  A    between atoms: C_11  and  C_12
REMARK    4  A    between atoms: C_13  and  N_14
REMARK                            x       y       z     vdW  Elec       q    Type
REMARK                         _______ _______ _______ _____ _____    ______ ____
ROOT
ATOM      1  C   UNL     1       3.232   6.274  18.581  0.00  0.00    +0.000 A 
ATOM      2  C   UNL     1       2.756   5.486  19.648  0.00  0.00    +0.000 A 
ATOM      3  C   UNL     1       1.883   5.969  20.629  0.00  0.00    +0.000 A 
ATOM      4  C   UNL     1       1.479   7.289  20.485  0.00  0.00    +0.000 A 
ATOM      5  N   UNL     1       0.685   8.094  21.251  0.00  0.00    +0.000 N 
ATOM      6  C   UNL     1       0.563   9.315  20.630  0.00  0.00    +0.000 A 
ATOM      7  N   UNL     1       1.286   9.337  19.519  0.00  0.00    +0.000 NA
ATOM      8  C   UNL     1       1.879   8.100  19.433  0.00  0.00    +0.000 A 
ATOM      9  C   UNL     1       2.777   7.597  18.478  0.00  0.00    +0.000 A 
ATOM     10  H   UNL     1       0.268   7.853  22.144  0.00  0.00    +0.000 HD
ENDROOT
BRANCH   6  11
ATOM     11  C   UNL     1      -0.295  10.306  21.194  0.00  0.00    +0.000 A 
ATOM     12  C   UNL     1      -1.077  11.056  20.378  0.00  0.00    +0.000 A 
ATOM     13  C   UNL     1      -1.946  12.104  20.979  0.00  0.00    +0.000 A 
ATOM     14  C   UNL     1      -2.839  12.877  20.218  0.00  0.00    +0.000 A 
ATOM     15  C   UNL     1      -3.634  13.853  20.823  0.00  0.00    +0.000 A 
ATOM     16  C   UNL     1      -3.545  14.059  22.193  0.00  0.00    +0.000 A 
ATOM     17  F   UNL     1      -4.311  14.994  22.773  0.00  0.00    +0.000 F 
ATOM     18  C   UNL     1      -2.678  13.308  22.975  0.00  0.00    +0.000 A 
ATOM     19  C   UNL     1      -1.892  12.331  22.365  0.00  0.00    +0.000 A 
ATOM     20  N   UNL     1      -1.066  11.541  23.165  0.00  0.00    +0.000 N 
ATOM     21  C   UNL     1      -0.313  10.512  22.680  0.00  0.00    +0.000 A 
ATOM     22  O   UNL     1       0.311   9.783  23.451  0.00  0.00    +0.000 OA
ATOM     23  H   UNL     1      -1.048  11.666  24.168  0.00  0.00    +0.000 HD
BRANCH  12  24
ATOM     24  N   UNL     1      -1.148  10.905  18.990  0.00  0.00    +0.000 N 
ATOM     25  H   UNL     1      -1.996  10.381  18.727  0.00  0.00    +0.000 HD
ATOM     26  H   UNL     1      -0.338  10.426  18.609  0.00  0.00    +0.000 HD
ENDBRANCH  12  24
ENDBRANCH   6  11
BRANCH   1  31
ATOM     27  C   UNL     1       6.142   4.026  14.399  0.00  0.00    +0.000 C 
ATOM     28  N   UNL     1       5.947   4.633  15.713  0.00  0.00    +0.000 NA
ATOM     29  C   UNL     1       5.081   3.775  16.560  0.00  0.00    +0.000 C 
ATOM     30  C   UNL     1       4.758   4.407  17.939  0.00  0.00    +0.000 C 
ATOM     31  N   UNL     1       4.165   5.733  17.718  0.00  0.00    +0.000 N 
ATOM     32  C   UNL     1       5.024   6.633  16.934  0.00  0.00    +0.000 C 
ATOM     33  C   UNL     1       5.328   5.973  15.572  0.00  0.00    +0.000 C 
ENDBRANCH   1  31
TORSDOF 3
ENDMDL
MODEL 3
REMARK VINA RESULT:      -8.4      0.745      1.110
REMARK  Name = 
REMARK  4 active torsions:
REMARK  status: ('A' for Active; 'I' for Inactive)
REMARK    1  A    between atoms: C_1  and  N_2
REMARK    2  A    between atoms: N_5  and  C_6
REMARK    3  A    between atoms: C_11  and  C_12
REMARK    4  A    between atoms: C_13  and  N_14
REMARK                            x       y       z     vdW  Elec       q    Type
REMARK                         _______ _______ _______ _____ _____    ______ ____
ROOT
ATOM      1  C   UNL     1      -0.632  11.364  21.769  0.00  0.00    +0.000 A 
ATOM      2  C   UNL     1      -0.402  10.561  22.904  0.00  0.00    +0.000 A 
ATOM      3  C   UNL     1       0.276   9.338  22.855  0.00  0.00    +0.000 A 
ATOM      4  C   UNL     1       0.743   8.953  21.605  0.00  0.00    +0.000 A 
ATOM      5  N   UNL     1       1.396   7.833  21.176  0.00  0.00    +0.000 N 
ATOM      6  C   UNL     1       1.677   7.972  19.837  0.00  0.00    +0.000 A 
ATOM      7  N   UNL     1       1.189   9.118  19.384  0.00  0.00    +0.000 NA
ATOM      8  C   UNL     1       0.585   9.721  20.461  0.00  0.00    +0.000 A 
ATOM      9  C   UNL     1      -0.123  10.931  20.536  0.00  0.00    +0.000 A 
ATOM     10  H   UNL     1       1.620   7.017  21.735  0.00  0.00    +0.000 HD
ENDROOT
BRANCH   6  11
ATOM     11  C   UNL     1       2.439   6.965  19.173  0.00  0.00    +0.000 A 
ATOM     12  C   UNL     1       3.204   7.301  18.105  0.00  0.00    +0.000 A 
ATOM     13  C   UNL     1       3.971   6.234  17.406  0.00  0.00    +0.000 A 
ATOM     14  C   UNL     1       4.844   6.504  16.337  0.00  0.00    +0.000 A 
ATOM     15  C   UNL     1       5.541   5.471  15.707  0.00  0.00    +0.000 A 
ATOM     16  C   UNL     1       5.375   4.163  16.143  0.00  0.00    +0.000 A 
ATOM     17  F   UNL     1       6.048   3.173  15.540  0.00  0.00    +0.000 F 
ATOM     18  C   UNL     1       4.527   3.863  17.200  0.00  0.00    +0.000 A 
ATOM     19  C   UNL     1       3.838   4.901  17.830  0.00  0.00    +0.000 A 
ATOM     20  N   UNL     1       3.032   4.600  18.928  0.00  0.00    +0.000 N 
ATOM     21  C   UNL     1       2.374   5.546  19.657  0.00  0.00    +0.000 A 
ATOM     22  O   UNL     1       1.767   5.229  20.680  0.00  0.00    +0.000 OA
ATOM     23  H   UNL     1       2.959   3.651  19.268  0.00  0.00    +0.000 HD
BRANCH  12  24
ATOM     24  N   UNL     1       3.349   8.601  17.611  0.00  0.00    +0.000 N 
ATOM     25  H   UNL     1       4.027   9.129  18.181  0.00  0.00    +0.000 HD
ATOM     26  H   UNL     1       2.471   9.111  17.595  0.00  0.00    +0.000 HD
ENDBRANCH  12  24
ENDBRANCH   6  11
BRANCH   1  31
ATOM     27  C   UNL     1      -3.546  16.079  21.229  0.00  0.00    +0.000 C 
ATOM     28  N   UNL     1      -3.014  14.912  21.929  0.00  0.00    +0.000 NA
ATOM     29  C   UNL     1      -1.531  14.956  21.963  0.00  0.00    +0.000 C 
ATOM     30  C   UNL     1      -0.898  13.697  22.612  0.00  0.00    +0.000 C 
ATOM     31  N   UNL     1      -1.394  12.509  21.906  0.00  0.00    +0.000 N 
ATOM     32  C   UNL     1      -2.860  12.398  21.906  0.00  0.00    +0.000 C 
ATOM     33  C   UNL     1      -3.457  13.666  21.257  0.00  0.00    +0.000 C 
ENDBRANCH   1  31
TORSDOF 3
ENDMDL
MODEL 4
REMARK VINA RESULT:      -8.3      4.680      9.598
REMARK  Name = 
REMARK  4 active torsions:
REMARK  status: ('A' for Active; 'I' for Inactive)
REMARK    1  A    between atoms: C_1  and  N_2
REMARK    2  A    between atoms: N_5  and  C_6
REMARK    3  A    between atoms: C_11  and  C_12
REMARK    4  A    between atoms: C_13  and  N_14
REMARK                            x       y       z     vdW  Elec       q    Type
REMARK                         _______ _______ _______ _____ _____    ______ ____
ROOT
ATOM      1  C   UNL     1       2.237   6.557  19.165  0.00  0.00    +0.000 A 
ATOM      2  C   UNL     1       1.731   6.703  20.473  0.00  0.00    +0.000 A 
ATOM      3  C   UNL     1       1.259   7.918  20.981  0.00  0.00    +0.000 A 
ATOM      4  C   UNL     1       1.291   8.996  20.107  0.00  0.00    +0.000 A 
ATOM      5  N   UNL     1       0.959  10.311  20.260  0.00  0.00    +0.000 N 
ATOM      6  C   UNL     1       1.134  10.954  19.057  0.00  0.00    +0.000 A 
ATOM      7  N   UNL     1       1.609  10.110  18.153  0.00  0.00    +0.000 NA
ATOM      8  C   UNL     1       1.737   8.903  18.796  0.00  0.00    +0.000 A 
ATOM      9  C   UNL     1       2.231   7.677  18.322  0.00  0.00    +0.000 A 
ATOM     10  H   UNL     1       0.656  10.758  21.119  0.00  0.00    +0.000 HD
ENDROOT
BRANCH   6  11
ATOM     11  C   UNL     1       0.766  12.328  18.937  0.00  0.00    +0.000 A 
ATOM     12  C   UNL     1       1.708  13.246  18.606  0.00  0.00    +0.000 A 
ATOM     13  C   UNL     1       1.315  14.678  18.510  0.00  0.00    +0.000 A 
ATOM     14  C   UNL     1       2.208  15.684  18.105  0.00  0.00    +0.000 A 
ATOM     15  C   UNL     1       1.797  17.016  18.034  0.00  0.00    +0.000 A 
ATOM     16  C   UNL     1       0.491  17.352  18.363  0.00  0.00    +0.000 A 
ATOM     17  F   UNL     1       0.097  18.631  18.290  0.00  0.00    +0.000 F 
ATOM     18  C   UNL     1      -0.418  16.382  18.761  0.00  0.00    +0.000 A 
ATOM     19  C   UNL     1      -0.003  15.051  18.823  0.00  0.00    +0.000 A 
ATOM     20  N   UNL     1      -0.937  14.074  19.168  0.00  0.00    +0.000 N 
ATOM     21  C   UNL     1      -0.654  12.740  19.189  0.00  0.00    +0.000 A 
ATOM     22  O   UNL     1      -1.549  11.920  19.395  0.00  0.00    +0.000 OA
ATOM     23  H   UNL     1      -1.899  14.325  19.356  0.00  0.00    +0.000 HD
BRANCH  12  24
ATOM     24  N   UNL     1       3.044  12.943  18.320  0.00  0.00    +0.000 N 
ATOM     25  H   UNL     1       3.211  11.930  18.414  0.00  0.00    +0.000 HD
ATOM     26  H   UNL     1       3.692  13.438  18.924  0.00  0.00    +0.000 HD
ENDBRANCH  12  24
ENDBRANCH   6  11
BRANCH   1  31
ATOM     27  C   UNL     1       3.820   1.256  18.525  0.00  0.00    +0.000 C 
ATOM     28  N   UNL     1       3.706   2.667  18.164  0.00  0.00    +0.000 NA
ATOM     29  C   UNL     1       4.365   3.520  19.185  0.00  0.00    +0.000 C 
ATOM     30  C   UNL     1       4.200   5.038  18.910  0.00  0.00    +0.000 C 
ATOM     31  N   UNL     1       2.767   5.337  18.789  0.00  0.00    +0.000 N 
ATOM     32  C   UNL     1       2.093   4.554  17.742  0.00  0.00    +0.000 C 
ATOM     33  C   UNL     1       2.279   3.052  18.044  0.00  0.00    +0.000 C 
ENDBRANCH   1  31
TORSDOF 3
ENDMDL
MODEL 5
REMARK VINA RESULT:      -8.1      1.855      3.100
REMARK  Name = 
REMARK  4 active torsions:
REMARK  status: ('A' for Active; 'I' for Inactive)
REMARK    1  A    between atoms: C_1  and  N_2
REMARK    2  A    between atoms: N_5  and  C_6
REMARK    3  A    between atoms: C_11  and  C_12
REMARK    4  A    between atoms: C_13  and  N_14
REMARK                            x       y       z     vdW  Elec       q    Type
REMARK                         _______ _______ _______ _____ _____    ______ ____
ROOT
ATOM      1  C   UNL     1      -1.885  12.627  21.976  0.00  0.00    +0.000 A 
ATOM      2  C   UNL     1      -2.472  12.638  20.695  0.00  0.00    +0.000 A 
ATOM      3  C   UNL     1      -1.993  11.874  19.625  0.00  0.00    +0.000 A 
ATOM      4  C   UNL     1      -0.898  11.066  19.898  0.00  0.00    +0.000 A 
ATOM      5  N   UNL     1      -0.153  10.234  19.111  0.00  0.00    +0.000 N 
ATOM      6  C   UNL     1       0.800   9.624  19.892  0.00  0.00    +0.000 A 
ATOM      7  N   UNL     1       0.722  10.068  21.138  0.00  0.00    +0.000 NA
ATOM      8  C   UNL     1      -0.305  10.980  21.149  0.00  0.00    +0.000 A 
ATOM      9  C   UNL     1      -0.789  11.779  22.197  0.00  0.00    +0.000 A 
ATOM     10  H   UNL     1      -0.259  10.099  18.111  0.00  0.00    +0.000 HD
ENDROOT
BRANCH   6  11
ATOM     11  C   UNL     1       1.651   8.636  19.314  0.00  0.00    +0.000 A 
ATOM     12  C   UNL     1       1.914   7.496  20.000  0.00  0.00    +0.000 A 
ATOM     13  C   UNL     1       2.826   6.486  19.396  0.00  0.00    +0.000 A 
ATOM     14  C   UNL     1       3.096   5.248  20.003  0.00  0.00    +0.000 A 
ATOM     15  C   UNL     1       3.962   4.333  19.402  0.00  0.00    +0.000 A 
ATOM     16  C   UNL     1       4.560   4.645  18.189  0.00  0.00    +0.000 A 
ATOM     17  F   UNL     1       5.387   3.763  17.612  0.00  0.00    +0.000 F 
ATOM     18  C   UNL     1       4.309   5.856  17.559  0.00  0.00    +0.000 A 
ATOM     19  C   UNL     1       3.438   6.764  18.161  0.00  0.00    +0.000 A 
ATOM     20  N   UNL     1       3.145   7.954  17.495  0.00  0.00    +0.000 N 
ATOM     21  C   UNL     1       2.254   8.875  17.961  0.00  0.00    +0.000 A 
ATOM     22  O   UNL     1       1.957   9.853  17.274  0.00  0.00    +0.000 OA
ATOM     23  H   UNL     1       3.547   8.148  16.587  0.00  0.00    +0.000 HD
BRANCH  12  24
ATOM     24  N   UNL     1       1.368   7.178  21.248  0.00  0.00    +0.000 N 
ATOM     25  H   UNL     1       1.467   7.972  21.897  0.00  0.00    +0.000 HD
ATOM     26  H   UNL     1       1.801   6.360  21.665  0.00  0.00    +0.000 HD
ENDBRANCH  12  24
ENDBRANCH   6  11
BRANCH   1  31
ATOM     27  C   UNL     1      -4.163  16.714  24.995  0.00  0.00    +0.000 C 
ATOM     28  N   UNL     1      -3.528  15.418  24.768  0.00  0.00    +0.000 NA
ATOM     29  C   UNL     1      -2.178  15.596  24.178  0.00  0.00    +0.000 C 
ATOM     30  C   UNL     1      -1.485  14.253  23.825  0.00  0.00    +0.000 C 
ATOM     31  N   UNL     1      -2.373  13.489  22.940  0.00  0.00    +0.000 N 
ATOM     32  C   UNL     1      -3.702  13.239  23.518  0.00  0.00    +0.000 C 
ATOM     33  C   UNL     1      -4.360  14.593  23.860  0.00  0.00    +0.000 C 
ENDBRANCH   1  31
TORSDOF 3
ENDMDL
MODEL 6
REMARK VINA RESULT:      -8.1      3.698      9.950
REMARK  Name = 
REMARK  4 active torsions:
REMARK  status: ('A' for Active; 'I' for Inactive)
REMARK    1  A    between atoms: C_1  and  N_2
REMARK    2  A    between atoms: N_5  and  C_6
REMARK    3  A    between atoms: C_11  and  C_12
REMARK    4  A    between atoms: C_13  and  N_14
REMARK                            x       y       z     vdW  Elec       q    Type
REMARK                         _______ _______ _______ _____ _____    ______ ____
ROOT
ATOM      1  C   UNL     1       2.953   6.584  18.579  0.00  0.00    +0.000 A 
ATOM      2  C   UNL     1       2.565   5.810  19.691  0.00  0.00    +0.000 A 
ATOM      3  C   UNL     1       1.736   6.292  20.709  0.00  0.00    +0.000 A 
ATOM      4  C   UNL     1       1.283   7.596  20.558  0.00  0.00    +0.000 A 
ATOM      5  N   UNL     1       0.511   8.396  21.350  0.00  0.00    +0.000 N 
ATOM      6  C   UNL     1       0.316   9.597  20.708  0.00  0.00    +0.000 A 
ATOM      7  N   UNL     1       0.972   9.611  19.557  0.00  0.00    +0.000 NA
ATOM      8  C   UNL     1       1.596   8.391  19.465  0.00  0.00    +0.000 A 
ATOM      9  C   UNL     1       2.453   7.890  18.472  0.00  0.00    +0.000 A 
ATOM     10  H   UNL     1       0.154   8.166  22.271  0.00  0.00    +0.000 HD
ENDROOT
BRANCH   6  11
ATOM     11  C   UNL     1      -0.538  10.576  21.298  0.00  0.00    +0.000 A 
ATOM     12  C   UNL     1      -1.317  11.350  20.503  0.00  0.00    +0.000 A 
ATOM     13  C   UNL     1      -2.182  12.386  21.131  0.00  0.00    +0.000 A 
ATOM     14  C   UNL     1      -3.072  13.182  20.390  0.00  0.00    +0.000 A 
ATOM     15  C   UNL     1      -3.862  14.145  21.021  0.00  0.00    +0.000 A 
ATOM     16  C   UNL     1      -3.772  14.316  22.396  0.00  0.00    +0.000 A 
ATOM     17  F   UNL     1      -4.535  15.238  23.000  0.00  0.00    +0.000 F 
ATOM     18  C   UNL     1      -2.909  13.541  23.158  0.00  0.00    +0.000 A 
ATOM     19  C   UNL     1      -2.127  12.576  22.522  0.00  0.00    +0.000 A 
ATOM     20  N   UNL     1      -1.304  11.762  23.301  0.00  0.00    +0.000 N 
ATOM     21  C   UNL     1      -0.555  10.744  22.789  0.00  0.00    +0.000 A 
ATOM     22  O   UNL     1       0.066   9.992  23.541  0.00  0.00    +0.000 OA
ATOM     23  H   UNL     1      -1.285  11.862  24.307  0.00  0.00    +0.000 HD
BRANCH  12  24
ATOM     24  N   UNL     1      -1.389  11.236  19.110  0.00  0.00    +0.000 N 
ATOM     25  H   UNL     1      -0.450  11.081  18.713  0.00  0.00    +0.000 HD
ATOM     26  H   UNL     1      -1.796  12.056  18.673  0.00  0.00    +0.000 HD
ENDBRANCH  12  24
ENDBRANCH   6  11
BRANCH   1  31
ATOM     27  C   UNL     1       7.201   4.255  15.833  0.00  0.00    +0.000 C 
ATOM     28  N   UNL     1       5.865   4.824  15.988  0.00  0.00    +0.000 NA
ATOM     29  C   UNL     1       5.950   6.241  16.423  0.00  0.00    +0.000 C 
ATOM     30  C   UNL     1       4.563   6.880  16.696  0.00  0.00    +0.000 C 
ATOM     31  N   UNL     1       3.852   6.049  17.675  0.00  0.00    +0.000 N 
ATOM     32  C   UNL     1       3.693   4.650  17.250  0.00  0.00    +0.000 C 
ATOM     33  C   UNL     1       5.089   4.047  16.984  0.00  0.00    +0.000 C 
ENDBRANCH   1  31
TORSDOF 3
ENDMDL
MODEL 7
REMARK VINA RESULT:      -7.8      4.247     10.169
REMARK  Name = 
REMARK  4 active torsions:
REMARK  status: ('A' for Active; 'I' for Inactive)
REMARK    1  A    between atoms: C_1  and  N_2
REMARK    2  A    between atoms: N_5  and  C_6
REMARK    3  A    between atoms: C_11  and  C_12
REMARK    4  A    between atoms: C_13  and  N_14
REMARK                            x       y       z     vdW  Elec       q    Type
REMARK                         _______ _______ _______ _____ _____    ______ ____
ROOT
ATOM      1  C   UNL     1       2.319   6.850  19.430  0.00  0.00    +0.000 A 
ATOM      2  C   UNL     1       2.339   7.545  18.205  0.00  0.00    +0.000 A 
ATOM      3  C   UNL     1       1.886   8.861  18.062  0.00  0.00    +0.000 A 
ATOM      4  C   UNL     1       1.425   9.473  19.219  0.00  0.00    +0.000 A 
ATOM      5  N   UNL     1       0.883  10.705  19.451  0.00  0.00    +0.000 N 
ATOM      6  C   UNL     1       0.637  10.833  20.798  0.00  0.00    +0.000 A 
ATOM      7  N   UNL     1       0.959   9.713  21.429  0.00  0.00    +0.000 NA
ATOM      8  C   UNL     1       1.421   8.855  20.461  0.00  0.00    +0.000 A 
ATOM      9  C   UNL     1       1.856   7.525  20.569  0.00  0.00    +0.000 A 
ATOM     10  H   UNL     1       0.668  11.408  18.752  0.00  0.00    +0.000 HD
ENDROOT
BRANCH   6  11
ATOM     11  C   UNL     1       0.149  12.074  21.307  0.00  0.00    +0.000 A 
ATOM     12  C   UNL     1      -0.793  12.072  22.283  0.00  0.00    +0.000 A 
ATOM     13  C   UNL     1      -1.312  13.374  22.784  0.00  0.00    +0.000 A 
ATOM     14  C   UNL     1      -2.233  13.467  23.841  0.00  0.00    +0.000 A 
ATOM     15  C   UNL     1      -2.697  14.710  24.276  0.00  0.00    +0.000 A 
ATOM     16  C   UNL     1      -2.240  15.868  23.662  0.00  0.00    +0.000 A 
ATOM     17  F   UNL     1      -2.683  17.060  24.083  0.00  0.00    +0.000 F 
ATOM     18  C   UNL     1      -1.324  15.812  22.620  0.00  0.00    +0.000 A 
ATOM     19  C   UNL     1      -0.860  14.567  22.195  0.00  0.00    +0.000 A 
ATOM     20  N   UNL     1       0.103  14.521  21.186  0.00  0.00    +0.000 N 
ATOM     21  C   UNL     1       0.675  13.363  20.747  0.00  0.00    +0.000 A 
ATOM     22  O   UNL     1       1.597  13.397  19.932  0.00  0.00    +0.000 OA
ATOM     23  H   UNL     1       0.467  15.374  20.782  0.00  0.00    +0.000 HD
BRANCH  12  24
ATOM     24  N   UNL     1      -1.310  10.920  22.883  0.00  0.00    +0.000 N 
ATOM     25  H   UNL     1      -2.129  11.153  23.465  0.00  0.00    +0.000 HD
ATOM     26  H   UNL     1      -0.626  10.442  23.461  0.00  0.00    +0.000 HD
ENDBRANCH  12  24
ENDBRANCH   6  11
BRANCH   1  31
ATOM     27  C   UNL     1       3.559   1.512  18.439  0.00  0.00    +0.000 C 
ATOM     28  N   UNL     1       3.491   2.742  19.224  0.00  0.00    +0.000 NA
ATOM     29  C   UNL     1       2.079   3.150  19.432  0.00  0.00    +0.000 C 
ATOM     30  C   UNL     1       1.938   4.501  20.181  0.00  0.00    +0.000 C 
ATOM     31  N   UNL     1       2.700   5.521  19.449  0.00  0.00    +0.000 N 
ATOM     32  C   UNL     1       4.120   5.180  19.278  0.00  0.00    +0.000 C 
ATOM     33  C   UNL     1       4.223   3.831  18.533  0.00  0.00    +0.000 C 
ENDBRANCH   1  31
TORSDOF 3
ENDMDL
MODEL 8
REMARK VINA RESULT:      -7.7      4.226     10.220
REMARK  Name = 
REMARK  4 active torsions:
REMARK  status: ('A' for Active; 'I' for Inactive)
REMARK    1  A    between atoms: C_1  and  N_2
REMARK    2  A    between atoms: N_5  and  C_6
REMARK    3  A    between atoms: C_11  and  C_12
REMARK    4  A    between atoms: C_13  and  N_14
REMARK                            x       y       z     vdW  Elec       q    Type
REMARK                         _______ _______ _______ _____ _____    ______ ____
ROOT
ATOM      1  C   UNL     1       2.262   7.012  19.551  0.00  0.00    +0.000 A 
ATOM      2  C   UNL     1       2.464   7.716  18.347  0.00  0.00    +0.000 A 
ATOM      3  C   UNL     1       1.874   8.955  18.074  0.00  0.00    +0.000 A 
ATOM      4  C   UNL     1       1.078   9.483  19.081  0.00  0.00    +0.000 A 
ATOM      5  N   UNL     1       0.328  10.622  19.155  0.00  0.00    +0.000 N 
ATOM      6  C   UNL     1      -0.237  10.699  20.406  0.00  0.00    +0.000 A 
ATOM      7  N   UNL     1       0.087   9.629  21.120  0.00  0.00    +0.000 NA
ATOM      8  C   UNL     1       0.876   8.857  20.303  0.00  0.00    +0.000 A 
ATOM      9  C   UNL     1       1.459   7.602  20.538  0.00  0.00    +0.000 A 
ATOM     10  H   UNL     1       0.182  11.295  18.409  0.00  0.00    +0.000 HD
ENDROOT
BRANCH   6  11
ATOM     11  C   UNL     1      -1.000  11.851  20.762  0.00  0.00    +0.000 A 
ATOM     12  C   UNL     1      -1.442  11.994  22.035  0.00  0.00    +0.000 A 
ATOM     13  C   UNL     1      -2.259  13.187  22.384  0.00  0.00    +0.000 A 
ATOM     14  C   UNL     1      -2.698  13.451  23.693  0.00  0.00    +0.000 A 
ATOM     15  C   UNL     1      -3.467  14.582  23.974  0.00  0.00    +0.000 A 
ATOM     16  C   UNL     1      -3.799  15.459  22.950  0.00  0.00    +0.000 A 
ATOM     17  F   UNL     1      -4.534  16.546  23.223  0.00  0.00    +0.000 F 
ATOM     18  C   UNL     1      -3.376  15.233  21.648  0.00  0.00    +0.000 A 
ATOM     19  C   UNL     1      -2.603  14.104  21.375  0.00  0.00    +0.000 A 
ATOM     20  N   UNL     1      -2.133  13.912  20.076  0.00  0.00    +0.000 N 
ATOM     21  C   UNL     1      -1.312  12.884  19.719  0.00  0.00    +0.000 A 
ATOM     22  O   UNL     1      -0.843  12.831  18.581  0.00  0.00    +0.000 OA
ATOM     23  H   UNL     1      -2.339  14.586  19.349  0.00  0.00    +0.000 HD
BRANCH  12  24
ATOM     24  N   UNL     1      -1.167  11.099  23.075  0.00  0.00    +0.000 N 
ATOM     25  H   UNL     1      -0.432  10.433  22.791  0.00  0.00    +0.000 HD
ATOM     26  H   UNL     1      -1.987  10.576  23.364  0.00  0.00    +0.000 HD
ENDBRANCH  12  24
ENDBRANCH   6  11
BRANCH   1  31
ATOM     27  C   UNL     1       4.028   1.750  19.102  0.00  0.00    +0.000 C 
ATOM     28  N   UNL     1       3.919   3.073  19.712  0.00  0.00    +0.000 NA
ATOM     29  C   UNL     1       2.514   3.353  20.099  0.00  0.00    +0.000 C 
ATOM     30  C   UNL     1       2.312   4.782  20.668  0.00  0.00    +0.000 C 
ATOM     31  N   UNL     1       2.813   5.751  19.686  0.00  0.00    +0.000 N 
ATOM     32  C   UNL     1       4.223   5.543  19.325  0.00  0.00    +0.000 C 
ATOM     33  C   UNL     1       4.389   4.113  18.765  0.00  0.00    +0.000 C 
ENDBRANCH   1  31
TORSDOF 3
ENDMDL
MODEL 9
REMARK VINA RESULT:      -7.7      3.570      9.876
REMARK  Name = 
REMARK  4 active torsions:
REMARK  status: ('A' for Active; 'I' for Inactive)
REMARK    1  A    between atoms: C_1  and  N_2
REMARK    2  A    between atoms: N_5  and  C_6
REMARK    3  A    between atoms: C_11  and  C_12
REMARK    4  A    between atoms: C_13  and  N_14
REMARK                            x       y       z     vdW  Elec       q    Type
REMARK                         _______ _______ _______ _____ _____    ______ ____
ROOT
ATOM      1  C   UNL     1       3.680   5.981  18.082  0.00  0.00    +0.000 A 
ATOM      2  C   UNL     1       3.350   5.177  19.191  0.00  0.00    +0.000 A 
ATOM      3  C   UNL     1       2.591   5.635  20.273  0.00  0.00    +0.000 A 
ATOM      4  C   UNL     1       2.147   6.948  20.190  0.00  0.00    +0.000 A 
ATOM      5  N   UNL     1       1.434   7.731  21.052  0.00  0.00    +0.000 N 
ATOM      6  C   UNL     1       1.216   8.954  20.462  0.00  0.00    +0.000 A 
ATOM      7  N   UNL     1       1.801   8.997  19.273  0.00  0.00    +0.000 NA
ATOM      8  C   UNL     1       2.403   7.774  19.105  0.00  0.00    +0.000 A 
ATOM      9  C   UNL     1       3.190   7.295  18.046  0.00  0.00    +0.000 A 
ATOM     10  H   UNL     1       1.132   7.475  21.987  0.00  0.00    +0.000 HD
ENDROOT
BRANCH   6  11
ATOM     11  C   UNL     1       0.413   9.923  21.133  0.00  0.00    +0.000 A 
ATOM     12  C   UNL     1       0.536  11.234  20.809  0.00  0.00    +0.000 A 
ATOM     13  C   UNL     1      -0.289  12.236  21.537  0.00  0.00    +0.000 A 
ATOM     14  C   UNL     1      -0.277  13.604  21.218  0.00  0.00    +0.000 A 
ATOM     15  C   UNL     1      -1.065  14.510  21.931  0.00  0.00    +0.000 A 
ATOM     16  C   UNL     1      -1.873  14.054  22.964  0.00  0.00    +0.000 A 
ATOM     17  F   UNL     1      -2.632  14.925  23.644  0.00  0.00    +0.000 F 
ATOM     18  C   UNL     1      -1.914  12.708  23.300  0.00  0.00    +0.000 A 
ATOM     19  C   UNL     1      -1.130  11.808  22.579  0.00  0.00    +0.000 A 
ATOM     20  N   UNL     1      -1.218  10.449  22.884  0.00  0.00    +0.000 N 
ATOM     21  C   UNL     1      -0.550   9.480  22.195  0.00  0.00    +0.000 A 
ATOM     22  O   UNL     1      -0.755   8.291  22.442  0.00  0.00    +0.000 OA
ATOM     23  H   UNL     1      -1.849  10.124  23.605  0.00  0.00    +0.000 HD
BRANCH  12  24
ATOM     24  N   UNL     1       1.381  11.727  19.810  0.00  0.00    +0.000 N 
ATOM     25  H   UNL     1       1.334  11.129  18.971  0.00  0.00    +0.000 HD
ATOM     26  H   UNL     1       2.348  11.788  20.113  0.00  0.00    +0.000 HD
ENDBRANCH  12  24
ENDBRANCH   6  11
BRANCH   1  31
ATOM     27  C   UNL     1       6.110   3.799  13.572  0.00  0.00    +0.000 C 
ATOM     28  N   UNL     1       6.063   4.410  14.897  0.00  0.00    +0.000 NA
ATOM     29  C   UNL     1       5.342   3.530  15.851  0.00  0.00    +0.000 C 
ATOM     30  C   UNL     1       5.175   4.162  17.258  0.00  0.00    +0.000 C 
ATOM     31  N   UNL     1       4.514   5.465  17.108  0.00  0.00    +0.000 N 
ATOM     32  C   UNL     1       5.234   6.388  16.218  0.00  0.00    +0.000 C 
ATOM     33  C   UNL     1       5.385   5.727  14.831  0.00  0.00    +0.000 C 
ENDBRANCH   1  31
TORSDOF 3
ENDMDL
