MODEL 1
REMARK VINA RESULT:      -8.3      0.000      0.000
REMARK  Name = 
REMARK  5 active torsions:
REMARK  status: ('A' for Active; 'I' for Inactive)
REMARK    1  A    between atoms: C_1  and  O_2
REMARK    2  A    between atoms: O_2  and  C_3
REMARK    3  A    between atoms: C_13  and  C_14
REMARK    4  A    between atoms: N_17  and  C_18
REMARK    5  A    between atoms: N_30  and  C_31
REMARK                            x       y       z     vdW  Elec       q    Type
REMARK                         _______ _______ _______ _____ _____    ______ ____
ROOT
ATOM      1  C   UNL     1      -4.068  14.249  21.922  0.00  0.00    +0.000 C 
ATOM      2  C   UNL     1      -3.919  12.831  21.358  0.00  0.00    +0.000 C 
ATOM      3  C   UNL     1      -2.547  12.551  20.702  0.00  0.00    +0.000 C 
ATOM      4  C   UNL     1      -1.341  12.893  21.610  0.00  0.00    +0.000 C 
ATOM      5  C   UNL     1      -1.587  14.311  22.241  0.00  0.00    +0.000 C 
ATOM      6  C   UNL     1      -2.942  14.525  22.908  0.00  0.00    +0.000 C 
ATOM      7  C   UNL     1      -1.246  11.928  22.839  0.00  0.00    +0.000 C 
ATOM      8  C   UNL     1      -0.444  10.788  22.316  0.00  0.00    +0.000 A 
ATOM      9  C   UNL     1      -0.480   9.495  22.813  0.00  0.00    +0.000 A 
ATOM     10  C   UNL     1       0.224   8.506  22.138  0.00  0.00    +0.000 A 
ATOM     11  C   UNL     1       0.955   8.813  20.974  0.00  0.00    +0.000 A 
ATOM     12  C   UNL     1       1.020  10.152  20.517  0.00  0.00    +0.000 A 
ATOM     13  C   UNL     1       0.338  11.160  21.218  0.00  0.00    +0.000 A 
ATOM     14  C   UNL     1       0.106  12.641  20.895  0.00  0.00    +0.000 C 
ATOM     15  N   UNL     1       0.940  13.684  21.627  0.00  0.00    +0.000 NA
ATOM     16  C   UNL     1       1.073  14.572  20.712  0.00  0.00    +0.000 C 
ATOM     17  N   UNL     1       0.563  15.834  20.737  0.00  0.00    +0.000 N 
ATOM     18  N   UNL     1       1.349  14.078  19.524  0.00  0.00    +0.000 N 
ATOM     19  C   UNL     1       2.249  14.757  18.575  0.00  0.00    +0.000 C 
ATOM     20  C   UNL     1       0.524  12.997  19.423  0.00  0.00    +0.000 C 
ATOM     21  O   UNL     1       0.194  12.460  18.383  0.00  0.00    +0.000 OA
ATOM     22  H   UNL     1      -0.336  15.773  20.235  0.00  0.00    +0.000 HD
ATOM     23  H   UNL     1       1.025  16.499  20.136  0.00  0.00    +0.000 HD
ENDROOT
BRANCH  11  24
ATOM     24  C   UNL     1       1.607   7.682  20.277  0.00  0.00    +0.000 A 
ATOM     25  C   UNL     1       2.209   7.798  18.960  0.00  0.00    +0.000 A 
ATOM     26  C   UNL     1       2.612   6.714  18.288  0.00  0.00    +0.000 A 
ATOM     27  N   UNL     1       2.466   5.438  18.819  0.00  0.00    +0.000 N 
ATOM     28  C   UNL     1       1.966   5.238  20.109  0.00  0.00    +0.000 A 
ATOM     29  O   UNL     1       1.878   4.148  20.669  0.00  0.00    +0.000 OA
ATOM     30  C   UNL     1       1.487   6.460  20.825  0.00  0.00    +0.000 A 
BRANCH  27  31
ATOM     31  C   UNL     1       2.931   4.313  18.037  0.00  0.00    +0.000 C 
ATOM     32  C   UNL     1       4.083   4.445  17.069  0.00  0.00    +0.000 C 
ATOM     33  C   UNL     1       4.248   3.622  18.307  0.00  0.00    +0.000 C 
ENDBRANCH  27  31
ENDBRANCH  11  24
BRANCH   1  35
ATOM     34  C   UNL     1      -5.271  15.825  20.597  0.00  0.00    +0.000 C 
ATOM     35  O   UNL     1      -4.007  15.246  20.892  0.00  0.00    +0.000 OA
ENDBRANCH   1  35
TORSDOF 3
ENDMDL
MODEL 2
REMARK VINA RESULT:      -8.3      0.956      1.324
REMARK  Name = 
REMARK  5 active torsions:
REMARK  status: ('A' for Active; 'I' for Inactive)
REMARK    1  A    between atoms: C_1  and  O_2
REMARK    2  A    between atoms: O_2  and  C_3
REMARK    3  A    between atoms: C_13  and  C_14
REMARK    4  A    between atoms: N_17  and  C_18
REMARK    5  A    between atoms: N_30  and  C_31
REMARK                            x       y       z     vdW  Elec       q    Type
REMARK                         _______ _______ _______ _____ _____    ______ ____
ROOT
ATOM      1  C   UNL     1      -4.134  14.248  22.327  0.00  0.00    +0.000 C 
ATOM      2  C   UNL     1      -4.001  12.849  21.715  0.00  0.00    +0.000 C 
ATOM      3  C   UNL     1      -2.661  12.602  20.985  0.00  0.00    +0.000 C 
ATOM      4  C   UNL     1      -1.415  12.929  21.843  0.00  0.00    +0.000 C 
ATOM      5  C   UNL     1      -1.641  14.325  22.526  0.00  0.00    +0.000 C 
ATOM      6  C   UNL     1      -2.963  14.507  23.265  0.00  0.00    +0.000 C 
ATOM      7  C   UNL     1      -1.252  11.929  23.037  0.00  0.00    +0.000 C 
ATOM      8  C   UNL     1      -0.466  10.813  22.443  0.00  0.00    +0.000 A 
ATOM      9  C   UNL     1      -0.467   9.506  22.902  0.00  0.00    +0.000 A 
ATOM     10  C   UNL     1       0.210   8.544  22.166  0.00  0.00    +0.000 A 
ATOM     11  C   UNL     1       0.881   8.891  20.977  0.00  0.00    +0.000 A 
ATOM     12  C   UNL     1       0.913  10.243  20.556  0.00  0.00    +0.000 A 
ATOM     13  C   UNL     1       0.258  11.224  21.319  0.00  0.00    +0.000 A 
ATOM     14  C   UNL     1      -0.003  12.712  21.050  0.00  0.00    +0.000 C 
ATOM     15  N   UNL     1       0.858  13.741  21.771  0.00  0.00    +0.000 NA
ATOM     16  C   UNL     1       0.939  14.656  20.877  0.00  0.00    +0.000 C 
ATOM     17  N   UNL     1       0.420  15.911  20.964  0.00  0.00    +0.000 N 
ATOM     18  N   UNL     1       1.160  14.198  19.663  0.00  0.00    +0.000 N 
ATOM     19  C   UNL     1       2.006  14.913  18.691  0.00  0.00    +0.000 C 
ATOM     20  C   UNL     1       0.340  13.113  19.571  0.00  0.00    +0.000 C 
ATOM     21  O   UNL     1      -0.037  12.603  18.533  0.00  0.00    +0.000 OA
ATOM     22  H   UNL     1      -0.502  15.856  20.505  0.00  0.00    +0.000 HD
ATOM     23  H   UNL     1       0.847  16.598  20.360  0.00  0.00    +0.000 HD
ENDROOT
BRANCH  11  24
ATOM     24  C   UNL     1       1.507   7.786  20.216  0.00  0.00    +0.000 A 
ATOM     25  C   UNL     1       1.566   6.419  20.703  0.00  0.00    +0.000 A 
ATOM     26  C   UNL     1       2.306   5.496  20.078  0.00  0.00    +0.000 A 
ATOM     27  N   UNL     1       3.050   5.810  18.947  0.00  0.00    +0.000 N 
ATOM     28  C   UNL     1       2.995   7.081  18.367  0.00  0.00    +0.000 A 
ATOM     29  O   UNL     1       3.566   7.407  17.330  0.00  0.00    +0.000 OA
ATOM     30  C   UNL     1       2.192   8.104  19.104  0.00  0.00    +0.000 A 
BRANCH  27  31
ATOM     31  C   UNL     1       3.823   4.759  18.321  0.00  0.00    +0.000 C 
ATOM     32  C   UNL     1       3.594   3.303  18.656  0.00  0.00    +0.000 C 
ATOM     33  C   UNL     1       3.234   3.815  17.297  0.00  0.00    +0.000 C 
ENDBRANCH  27  31
ENDBRANCH  11  24
BRANCH   1  35
ATOM     34  C   UNL     1      -5.392  15.440  20.687  0.00  0.00    +0.000 C 
ATOM     35  O   UNL     1      -4.132  15.275  21.325  0.00  0.00    +0.000 OA
ENDBRANCH   1  35
TORSDOF 3
ENDMDL
MODEL 3
REMARK VINA RESULT:      -7.9      1.396      1.746
REMARK  Name = 
REMARK  5 active torsions:
REMARK  status: ('A' for Active; 'I' for Inactive)
REMARK    1  A    between atoms: C_1  and  O_2
REMARK    2  A    between atoms: O_2  and  C_3
REMARK    3  A    between atoms: C_13  and  C_14
REMARK    4  A    between atoms: N_17  and  C_18
REMARK    5  A    between atoms: N_30  and  C_31
REMARK                            x       y       z     vdW  Elec       q    Type
REMARK                         _______ _______ _______ _____ _____    ______ ____
ROOT
ATOM      1  C   UNL     1      -4.329  15.163  22.653  0.00  0.00    +0.000 C 
ATOM      2  C   UNL     1      -4.219  13.815  21.932  0.00  0.00    +0.000 C 
ATOM      3  C   UNL     1      -2.847  13.565  21.264  0.00  0.00    +0.000 C 
ATOM      4  C   UNL     1      -1.644  13.759  22.218  0.00  0.00    +0.000 C 
ATOM      5  C   UNL     1      -1.852  15.103  23.004  0.00  0.00    +0.000 C 
ATOM      6  C   UNL     1      -3.209  15.286  23.677  0.00  0.00    +0.000 C 
ATOM      7  C   UNL     1      -1.599  12.657  23.329  0.00  0.00    +0.000 C 
ATOM      8  C   UNL     1      -0.827  11.558  22.688  0.00  0.00    +0.000 A 
ATOM      9  C   UNL     1      -0.912  10.218  23.032  0.00  0.00    +0.000 A 
ATOM     10  C   UNL     1      -0.232   9.290  22.256  0.00  0.00    +0.000 A 
ATOM     11  C   UNL     1       0.526   9.703  21.143  0.00  0.00    +0.000 A 
ATOM     12  C   UNL     1       0.642  11.082  20.844  0.00  0.00    +0.000 A 
ATOM     13  C   UNL     1      -0.017  12.026  21.648  0.00  0.00    +0.000 A 
ATOM     14  C   UNL     1      -0.196  13.542  21.494  0.00  0.00    +0.000 C 
ATOM     15  N   UNL     1       0.662  14.465  22.351  0.00  0.00    +0.000 NA
ATOM     16  C   UNL     1       0.837  15.446  21.545  0.00  0.00    +0.000 C 
ATOM     17  N   UNL     1       0.369  16.714  21.709  0.00  0.00    +0.000 N 
ATOM     18  N   UNL     1       1.114  15.082  20.311  0.00  0.00    +0.000 N 
ATOM     19  C   UNL     1       2.050  15.833  19.456  0.00  0.00    +0.000 C 
ATOM     20  C   UNL     1       0.256  14.048  20.077  0.00  0.00    +0.000 C 
ATOM     21  O   UNL     1      -0.076  13.646  18.980  0.00  0.00    +0.000 OA
ATOM     22  H   UNL     1      -0.525  16.741  21.194  0.00  0.00    +0.000 HD
ATOM     23  H   UNL     1       0.861  17.427  21.193  0.00  0.00    +0.000 HD
ENDROOT
BRANCH  11  24
ATOM     24  C   UNL     1       1.151   8.636  20.329  0.00  0.00    +0.000 A 
ATOM     25  C   UNL     1       1.477   7.322  20.854  0.00  0.00    +0.000 A 
ATOM     26  C   UNL     1       2.213   6.459  20.143  0.00  0.00    +0.000 A 
ATOM     27  N   UNL     1       2.697   6.787  18.883  0.00  0.00    +0.000 N 
ATOM     28  C   UNL     1       2.370   8.000  18.270  0.00  0.00    +0.000 A 
ATOM     29  O   UNL     1       2.701   8.326  17.133  0.00  0.00    +0.000 OA
ATOM     30  C   UNL     1       1.580   8.963  19.098  0.00  0.00    +0.000 A 
BRANCH  27  31
ATOM     31  C   UNL     1       3.481   5.801  18.171  0.00  0.00    +0.000 C 
ATOM     32  C   UNL     1       3.773   4.444  18.767  0.00  0.00    +0.000 C 
ATOM     33  C   UNL     1       2.872   4.552  17.577  0.00  0.00    +0.000 C 
ENDBRANCH  27  31
ENDBRANCH  11  24
BRANCH   1  35
ATOM     34  C   UNL     1      -5.361  16.425  20.912  0.00  0.00    +0.000 C 
ATOM     35  O   UNL     1      -4.220  16.269  21.746  0.00  0.00    +0.000 OA
ENDBRANCH   1  35
TORSDOF 3
ENDMDL
MODEL 4
REMARK VINA RESULT:      -7.5      2.297      4.233
REMARK  Name = 
REMARK  5 active torsions:
REMARK  status: ('A' for Active; 'I' for Inactive)
REMARK    1  A    between atoms: C_1  and  O_2
REMARK    2  A    between atoms: O_2  and  C_3
REMARK    3  A    between atoms: C_13  and  C_14
REMARK    4  A    between atoms: N_17  and  C_18
REMARK    5  A    between atoms: N_30  and  C_31
REMARK                            x       y       z     vdW  Elec       q    Type
REMARK                         _______ _______ _______ _____ _____    ______ ____
ROOT
ATOM      1  C   UNL     1       2.237  16.567  20.588  0.00  0.00    +0.000 C 
ATOM      2  C   UNL     1       2.984  15.234  20.713  0.00  0.00    +0.000 C 
ATOM      3  C   UNL     1       2.071  14.022  21.011  0.00  0.00    +0.000 C 
ATOM      4  C   UNL     1       0.886  13.878  20.026  0.00  0.00    +0.000 C 
ATOM      5  C   UNL     1       0.214  15.288  19.856  0.00  0.00    +0.000 C 
ATOM      6  C   UNL     1       1.152  16.445  19.526  0.00  0.00    +0.000 C 
ATOM      7  C   UNL     1       1.367  13.496  18.587  0.00  0.00    +0.000 C 
ATOM      8  C   UNL     1       1.425  12.009  18.630  0.00  0.00    +0.000 A 
ATOM      9  C   UNL     1       2.223  11.219  17.818  0.00  0.00    +0.000 A 
ATOM     10  C   UNL     1       2.272   9.853  18.063  0.00  0.00    +0.000 A 
ATOM     11  C   UNL     1       1.526   9.287  19.115  0.00  0.00    +0.000 A 
ATOM     12  C   UNL     1       0.676  10.107  19.897  0.00  0.00    +0.000 A 
ATOM     13  C   UNL     1       0.599  11.483  19.628  0.00  0.00    +0.000 A 
ATOM     14  C   UNL     1      -0.103  12.624  20.375  0.00  0.00    +0.000 C 
ATOM     15  N   UNL     1      -1.411  13.164  19.813  0.00  0.00    +0.000 NA
ATOM     16  C   UNL     1      -2.035  13.458  20.894  0.00  0.00    +0.000 C 
ATOM     17  N   UNL     1      -2.389  14.708  21.302  0.00  0.00    +0.000 N 
ATOM     18  N   UNL     1      -1.933  12.544  21.835  0.00  0.00    +0.000 N 
ATOM     19  C   UNL     1      -3.041  12.229  22.753  0.00  0.00    +0.000 C 
ATOM     20  C   UNL     1      -0.621  12.174  21.788  0.00  0.00    +0.000 C 
ATOM     21  O   UNL     1      -0.014  11.625  22.686  0.00  0.00    +0.000 OA
ATOM     22  H   UNL     1      -1.625  15.017  21.922  0.00  0.00    +0.000 HD
ATOM     23  H   UNL     1      -3.146  14.746  21.967  0.00  0.00    +0.000 HD
ENDROOT
BRANCH  11  24
ATOM     24  C   UNL     1       1.702   7.836  19.352  0.00  0.00    +0.000 A 
ATOM     25  C   UNL     1       1.403   7.195  20.620  0.00  0.00    +0.000 A 
ATOM     26  C   UNL     1       1.757   5.925  20.852  0.00  0.00    +0.000 A 
ATOM     27  N   UNL     1       2.429   5.176  19.894  0.00  0.00    +0.000 N 
ATOM     28  C   UNL     1       2.692   5.688  18.620  0.00  0.00    +0.000 A 
ATOM     29  O   UNL     1       3.214   5.060  17.702  0.00  0.00    +0.000 OA
ATOM     30  C   UNL     1       2.321   7.120  18.398  0.00  0.00    +0.000 A 
BRANCH  27  31
ATOM     31  C   UNL     1       2.775   3.808  20.212  0.00  0.00    +0.000 C 
ATOM     32  C   UNL     1       2.237   3.123  21.447  0.00  0.00    +0.000 C 
ATOM     33  C   UNL     1       1.787   2.669  20.095  0.00  0.00    +0.000 C 
ENDBRANCH  27  31
ENDBRANCH  11  24
BRANCH   1  35
ATOM     34  C   UNL     1       2.535  17.269  22.848  0.00  0.00    +0.000 C 
ATOM     35  O   UNL     1       1.607  16.947  21.819  0.00  0.00    +0.000 OA
ENDBRANCH   1  35
TORSDOF 3
ENDMDL
MODEL 5
REMARK VINA RESULT:      -7.3      2.415      4.109
REMARK  Name = 
REMARK  5 active torsions:
REMARK  status: ('A' for Active; 'I' for Inactive)
REMARK    1  A    between atoms: C_1  and  O_2
REMARK    2  A    between atoms: O_2  and  C_3
REMARK    3  A    between atoms: C_13  and  C_14
REMARK    4  A    between atoms: N_17  and  C_18
REMARK    5  A    between atoms: N_30  and  C_31
REMARK                            x       y       z     vdW  Elec       q    Type
REMARK                         _______ _______ _______ _____ _____    ______ ____
ROOT
ATOM      1  C   UNL     1       2.249  15.558  20.250  0.00  0.00    +0.000 C 
ATOM      2  C   UNL     1       3.130  14.304  20.212  0.00  0.00    +0.000 C 
ATOM      3  C   UNL     1       2.417  13.015  20.679  0.00  0.00    +0.000 C 
ATOM      4  C   UNL     1       1.077  12.746  19.952  0.00  0.00    +0.000 C 
ATOM      5  C   UNL     1       0.253  14.083  19.931  0.00  0.00    +0.000 C 
ATOM      6  C   UNL     1       0.990  15.320  19.428  0.00  0.00    +0.000 C 
ATOM      7  C   UNL     1       1.294  12.394  18.442  0.00  0.00    +0.000 C 
ATOM      8  C   UNL     1       1.501  10.920  18.462  0.00  0.00    +0.000 A 
ATOM      9  C   UNL     1       2.193  10.200  17.500  0.00  0.00    +0.000 A 
ATOM     10  C   UNL     1       2.421   8.849  17.720  0.00  0.00    +0.000 A 
ATOM     11  C   UNL     1       1.960   8.226  18.897  0.00  0.00    +0.000 A 
ATOM     12  C   UNL     1       1.209   8.971  19.839  0.00  0.00    +0.000 A 
ATOM     13  C   UNL     1       0.947  10.330  19.602  0.00  0.00    +0.000 A 
ATOM     14  C   UNL     1       0.304  11.408  20.483  0.00  0.00    +0.000 C 
ATOM     15  N   UNL     1      -1.137  11.813  20.199  0.00  0.00    +0.000 NA
ATOM     16  C   UNL     1      -1.556  12.060  21.386  0.00  0.00    +0.000 C 
ATOM     17  N   UNL     1      -1.939  13.274  21.866  0.00  0.00    +0.000 N 
ATOM     18  N   UNL     1      -1.179  11.171  22.281  0.00  0.00    +0.000 N 
ATOM     19  C   UNL     1      -2.045  10.762  23.401  0.00  0.00    +0.000 C 
ATOM     20  C   UNL     1       0.125  10.927  21.968  0.00  0.00    +0.000 C 
ATOM     21  O   UNL     1       0.951  10.450  22.722  0.00  0.00    +0.000 OA
ATOM     22  H   UNL     1      -1.099  13.663  22.322  0.00  0.00    +0.000 HD
ATOM     23  H   UNL     1      -2.547  13.248  22.670  0.00  0.00    +0.000 HD
ENDROOT
BRANCH  11  24
ATOM     24  C   UNL     1       2.318   6.802  19.083  0.00  0.00    +0.000 A 
ATOM     25  C   UNL     1       2.689   5.925  17.986  0.00  0.00    +0.000 A 
ATOM     26  C   UNL     1       2.817   4.606  18.170  0.00  0.00    +0.000 A 
ATOM     27  N   UNL     1       2.593   4.024  19.412  0.00  0.00    +0.000 N 
ATOM     28  C   UNL     1       2.305   4.800  20.539  0.00  0.00    +0.000 A 
ATOM     29  O   UNL     1       2.168   4.362  21.678  0.00  0.00    +0.000 OA
ATOM     30  C   UNL     1       2.131   6.266  20.300  0.00  0.00    +0.000 A 
BRANCH  27  31
ATOM     31  C   UNL     1       2.755   2.592  19.537  0.00  0.00    +0.000 C 
ATOM     32  C   UNL     1       3.388   1.769  18.439  0.00  0.00    +0.000 C 
ATOM     33  C   UNL     1       4.104   1.940  19.741  0.00  0.00    +0.000 C 
ENDBRANCH  27  31
ENDBRANCH  11  24
BRANCH   1  35
ATOM     34  C   UNL     1       1.386  17.231  21.715  0.00  0.00    +0.000 C 
ATOM     35  O   UNL     1       1.846  15.892  21.586  0.00  0.00    +0.000 OA
ENDBRANCH   1  35
TORSDOF 3
ENDMDL
MODEL 6
REMARK VINA RESULT:      -7.2      1.240      1.505
REMARK  Name = 
REMARK  5 active torsions:
REMARK  status: ('A' for Active; 'I' for Inactive)
REMARK    1  A    between atoms: C_1  and  O_2
REMARK    2  A    between atoms: O_2  and  C_3
REMARK    3  A    between atoms: C_13  and  C_14
REMARK    4  A    between atoms: N_17  and  C_18
REMARK    5  A    between atoms: N_30  and  C_31
REMARK                            x       y       z     vdW  Elec       q    Type
REMARK                         _______ _______ _______ _____ _____    ______ ____
ROOT
ATOM      1  C   UNL     1      -3.138  15.017  21.487  0.00  0.00    +0.000 C 
ATOM      2  C   UNL     1      -3.157  13.612  20.874  0.00  0.00    +0.000 C 
ATOM      3  C   UNL     1      -1.781  13.125  20.364  0.00  0.00    +0.000 C 
ATOM      4  C   UNL     1      -0.652  13.232  21.418  0.00  0.00    +0.000 C 
ATOM      5  C   UNL     1      -0.736  14.651  22.085  0.00  0.00    +0.000 C 
ATOM      6  C   UNL     1      -2.106  15.070  22.606  0.00  0.00    +0.000 C 
ATOM      7  C   UNL     1      -0.863  12.228  22.600  0.00  0.00    +0.000 C 
ATOM      8  C   UNL     1      -0.201  10.986  22.115  0.00  0.00    +0.000 A 
ATOM      9  C   UNL     1      -0.507   9.703  22.540  0.00  0.00    +0.000 A 
ATOM     10  C   UNL     1       0.100   8.630  21.901  0.00  0.00    +0.000 A 
ATOM     11  C   UNL     1       1.005   8.845  20.843  0.00  0.00    +0.000 A 
ATOM     12  C   UNL     1       1.342  10.167  20.462  0.00  0.00    +0.000 A 
ATOM     13  C   UNL     1       0.756  11.254  21.131  0.00  0.00    +0.000 A 
ATOM     14  C   UNL     1       0.809  12.762  20.857  0.00  0.00    +0.000 C 
ATOM     15  N   UNL     1       1.710  13.627  21.729  0.00  0.00    +0.000 NA
ATOM     16  C   UNL     1       2.094  14.507  20.879  0.00  0.00    +0.000 C 
ATOM     17  N   UNL     1       1.798  15.835  20.909  0.00  0.00    +0.000 N 
ATOM     18  N   UNL     1       2.424  14.009  19.706  0.00  0.00    +0.000 N 
ATOM     19  C   UNL     1       3.529  14.555  18.899  0.00  0.00    +0.000 C 
ATOM     20  C   UNL     1       1.452  13.086  19.460  0.00  0.00    +0.000 C 
ATOM     21  O   UNL     1       1.164  12.643  18.365  0.00  0.00    +0.000 OA
ATOM     22  H   UNL     1       0.967  15.942  20.307  0.00  0.00    +0.000 HD
ATOM     23  H   UNL     1       2.430  16.430  20.397  0.00  0.00    +0.000 HD
ENDROOT
BRANCH  11  24
ATOM     24  C   UNL     1       1.541   7.641  20.169  0.00  0.00    +0.000 A 
ATOM     25  C   UNL     1       1.426   6.302  20.721  0.00  0.00    +0.000 A 
ATOM     26  C   UNL     1       2.089   5.274  20.179  0.00  0.00    +0.000 A 
ATOM     27  N   UNL     1       2.916   5.446  19.076  0.00  0.00    +0.000 N 
ATOM     28  C   UNL     1       3.028   6.684  18.436  0.00  0.00    +0.000 A 
ATOM     29  O   UNL     1       3.680   6.893  17.416  0.00  0.00    +0.000 OA
ATOM     30  C   UNL     1       2.308   7.825  19.081  0.00  0.00    +0.000 A 
BRANCH  27  31
ATOM     31  C   UNL     1       3.597   4.288  18.541  0.00  0.00    +0.000 C 
ATOM     32  C   UNL     1       5.038   4.354  18.094  0.00  0.00    +0.000 C 
ATOM     33  C   UNL     1       4.676   3.554  19.304  0.00  0.00    +0.000 C 
ENDBRANCH  27  31
ENDBRANCH  11  24
BRANCH   1  35
ATOM     34  C   UNL     1      -3.048  17.344  20.973  0.00  0.00    +0.000 C 
ATOM     35  O   UNL     1      -2.793  16.020  20.522  0.00  0.00    +0.000 OA
ENDBRANCH   1  35
TORSDOF 3
ENDMDL
MODEL 7
REMARK VINA RESULT:      -7.1      0.897      1.027
REMARK  Name = 
REMARK  5 active torsions:
REMARK  status: ('A' for Active; 'I' for Inactive)
REMARK    1  A    between atoms: C_1  and  O_2
REMARK    2  A    between atoms: O_2  and  C_3
REMARK    3  A    between atoms: C_13  and  C_14
REMARK    4  A    between atoms: N_17  and  C_18
REMARK    5  A    between atoms: N_30  and  C_31
REMARK                            x       y       z     vdW  Elec       q    Type
REMARK                         _______ _______ _______ _____ _____    ______ ____
ROOT
ATOM      1  C   UNL     1      -3.350  14.907  21.277  0.00  0.00    +0.000 C 
ATOM      2  C   UNL     1      -3.274  13.503  20.666  0.00  0.00    +0.000 C 
ATOM      3  C   UNL     1      -1.849  13.072  20.248  0.00  0.00    +0.000 C 
ATOM      4  C   UNL     1      -0.797  13.222  21.373  0.00  0.00    +0.000 C 
ATOM      5  C   UNL     1      -0.980  14.636  22.032  0.00  0.00    +0.000 C 
ATOM      6  C   UNL     1      -2.398  15.001  22.461  0.00  0.00    +0.000 C 
ATOM      7  C   UNL     1      -1.045  12.210  22.540  0.00  0.00    +0.000 C 
ATOM      8  C   UNL     1      -0.304  10.995  22.102  0.00  0.00    +0.000 A 
ATOM      9  C   UNL     1      -0.586   9.700  22.508  0.00  0.00    +0.000 A 
ATOM     10  C   UNL     1       0.104   8.654  21.911  0.00  0.00    +0.000 A 
ATOM     11  C   UNL     1       1.067   8.905  20.914  0.00  0.00    +0.000 A 
ATOM     12  C   UNL     1       1.376  10.240  20.555  0.00  0.00    +0.000 A 
ATOM     13  C   UNL     1       0.704  11.302  21.182  0.00  0.00    +0.000 A 
ATOM     14  C   UNL     1       0.716  12.811  20.910  0.00  0.00    +0.000 C 
ATOM     15  N   UNL     1       1.522  13.711  21.838  0.00  0.00    +0.000 NA
ATOM     16  C   UNL     1       1.926  14.606  21.014  0.00  0.00    +0.000 C 
ATOM     17  N   UNL     1       1.576  15.921  21.022  0.00  0.00    +0.000 N 
ATOM     18  N   UNL     1       2.352  14.123  19.866  0.00  0.00    +0.000 N 
ATOM     19  C   UNL     1       3.485  14.713  19.132  0.00  0.00    +0.000 C 
ATOM     20  C   UNL     1       1.435  13.162  19.558  0.00  0.00    +0.000 C 
ATOM     21  O   UNL     1       1.237  12.710  18.447  0.00  0.00    +0.000 OA
ATOM     22  H   UNL     1       0.783  15.995  20.367  0.00  0.00    +0.000 HD
ATOM     23  H   UNL     1       2.217  16.542  20.552  0.00  0.00    +0.000 HD
ENDROOT
BRANCH  11  24
ATOM     24  C   UNL     1       1.694   7.724  20.279  0.00  0.00    +0.000 A 
ATOM     25  C   UNL     1       2.262   7.748  18.942  0.00  0.00    +0.000 A 
ATOM     26  C   UNL     1       2.641   6.618  18.334  0.00  0.00    +0.000 A 
ATOM     27  N   UNL     1       2.501   5.381  18.953  0.00  0.00    +0.000 N 
ATOM     28  C   UNL     1       2.033   5.272  20.266  0.00  0.00    +0.000 A 
ATOM     29  O   UNL     1       1.952   4.223  20.900  0.00  0.00    +0.000 OA
ATOM     30  C   UNL     1       1.580   6.543  20.910  0.00  0.00    +0.000 A 
BRANCH  27  31
ATOM     31  C   UNL     1       2.937   4.203  18.236  0.00  0.00    +0.000 C 
ATOM     32  C   UNL     1       2.729   2.815  18.796  0.00  0.00    +0.000 C 
ATOM     33  C   UNL     1       1.970   3.244  17.581  0.00  0.00    +0.000 C 
ENDBRANCH  27  31
ENDBRANCH  11  24
BRANCH   1  35
ATOM     34  C   UNL     1      -3.410  17.225  20.718  0.00  0.00    +0.000 C 
ATOM     35  O   UNL     1      -2.983  15.925  20.335  0.00  0.00    +0.000 OA
ENDBRANCH   1  35
TORSDOF 3
ENDMDL
MODEL 8
REMARK VINA RESULT:      -6.9      2.379      4.333
REMARK  Name = 
REMARK  5 active torsions:
REMARK  status: ('A' for Active; 'I' for Inactive)
REMARK    1  A    between atoms: C_1  and  O_2
REMARK    2  A    between atoms: O_2  and  C_3
REMARK    3  A    between atoms: C_13  and  C_14
REMARK    4  A    between atoms: N_17  and  C_18
REMARK    5  A    between atoms: N_30  and  C_31
REMARK                            x       y       z     vdW  Elec       q    Type
REMARK                         _______ _______ _______ _____ _____    ______ ____
ROOT
ATOM      1  C   UNL     1       2.702  15.693  20.397  0.00  0.00    +0.000 C 
ATOM      2  C   UNL     1       3.414  14.336  20.448  0.00  0.00    +0.000 C 
ATOM      3  C   UNL     1       2.497  13.154  20.837  0.00  0.00    +0.000 C 
ATOM      4  C   UNL     1       1.214  13.051  19.977  0.00  0.00    +0.000 C 
ATOM      5  C   UNL     1       0.575  14.482  19.873  0.00  0.00    +0.000 C 
ATOM      6  C   UNL     1       1.512  15.609  19.450  0.00  0.00    +0.000 C 
ATOM      7  C   UNL     1       1.537  12.656  18.497  0.00  0.00    +0.000 C 
ATOM      8  C   UNL     1       1.550  11.168  18.535  0.00  0.00    +0.000 A 
ATOM      9  C   UNL     1       2.237  10.355  17.648  0.00  0.00    +0.000 A 
ATOM     10  C   UNL     1       2.265   8.988  17.889  0.00  0.00    +0.000 A 
ATOM     11  C   UNL     1       1.611   8.443  19.011  0.00  0.00    +0.000 A 
ATOM     12  C   UNL     1       0.871   9.289  19.873  0.00  0.00    +0.000 A 
ATOM     13  C   UNL     1       0.811  10.667  19.612  0.00  0.00    +0.000 A 
ATOM     14  C   UNL     1       0.226  11.829  20.424  0.00  0.00    +0.000 C 
ATOM     15  N   UNL     1      -1.114  12.412  19.996  0.00  0.00    +0.000 NA
ATOM     16  C   UNL     1      -1.616  12.724  21.134  0.00  0.00    +0.000 C 
ATOM     17  N   UNL     1      -1.887  13.983  21.574  0.00  0.00    +0.000 N 
ATOM     18  N   UNL     1      -1.450  11.805  22.061  0.00  0.00    +0.000 N 
ATOM     19  C   UNL     1      -2.470  11.524  23.086  0.00  0.00    +0.000 C 
ATOM     20  C   UNL     1      -0.162  11.393  21.883  0.00  0.00    +0.000 C 
ATOM     21  O   UNL     1       0.514  10.823  22.716  0.00  0.00    +0.000 OA
ATOM     22  H   UNL     1      -1.055  14.267  22.114  0.00  0.00    +0.000 HD
ATOM     23  H   UNL     1      -2.572  14.045  22.311  0.00  0.00    +0.000 HD
ENDROOT
BRANCH  11  24
ATOM     24  C   UNL     1       1.763   6.987  19.231  0.00  0.00    +0.000 A 
ATOM     25  C   UNL     1       1.606   6.357  20.530  0.00  0.00    +0.000 A 
ATOM     26  C   UNL     1       1.940   5.076  20.721  0.00  0.00    +0.000 A 
ATOM     27  N   UNL     1       2.455   4.302  19.688  0.00  0.00    +0.000 N 
ATOM     28  C   UNL     1       2.571   4.804  18.388  0.00  0.00    +0.000 A 
ATOM     29  O   UNL     1       2.947   4.157  17.414  0.00  0.00    +0.000 OA
ATOM     30  C   UNL     1       2.227   6.248  18.209  0.00  0.00    +0.000 A 
BRANCH  27  31
ATOM     31  C   UNL     1       2.789   2.922  19.967  0.00  0.00    +0.000 C 
ATOM     32  C   UNL     1       4.199   2.505  20.314  0.00  0.00    +0.000 C 
ATOM     33  C   UNL     1       3.128   2.431  21.356  0.00  0.00    +0.000 C 
ENDBRANCH  27  31
ENDBRANCH  11  24
BRANCH   1  35
ATOM     34  C   UNL     1       3.248  16.367  22.619  0.00  0.00    +0.000 C 
ATOM     35  O   UNL     1       2.212  16.091  21.685  0.00  0.00    +0.000 OA
ENDBRANCH   1  35
TORSDOF 3
ENDMDL
MODEL 9
REMARK VINA RESULT:      -6.8      2.725      4.450
REMARK  Name = 
REMARK  5 active torsions:
REMARK  status: ('A' for Active; 'I' for Inactive)
REMARK    1  A    between atoms: C_1  and  O_2
REMARK    2  A    between atoms: O_2  and  C_3
REMARK    3  A    between atoms: C_13  and  C_14
REMARK    4  A    between atoms: N_17  and  C_18
REMARK    5  A    between atoms: N_30  and  C_31
REMARK                            x       y       z     vdW  Elec       q    Type
REMARK                         _______ _______ _______ _____ _____    ______ ____
ROOT
ATOM      1  C   UNL     1      -1.930  17.319  24.618  0.00  0.00    +0.000 C 
ATOM      2  C   UNL     1      -0.988  16.109  24.643  0.00  0.00    +0.000 C 
ATOM      3  C   UNL     1      -1.537  14.866  23.904  0.00  0.00    +0.000 C 
ATOM      4  C   UNL     1      -1.997  15.155  22.455  0.00  0.00    +0.000 C 
ATOM      5  C   UNL     1      -2.875  16.457  22.468  0.00  0.00    +0.000 C 
ATOM      6  C   UNL     1      -2.275  17.667  23.177  0.00  0.00    +0.000 C 
ATOM      7  C   UNL     1      -0.790  15.505  21.520  0.00  0.00    +0.000 C 
ATOM      8  C   UNL     1      -0.335  14.172  21.038  0.00  0.00    +0.000 A 
ATOM      9  C   UNL     1       0.946  13.880  20.597  0.00  0.00    +0.000 A 
ATOM     10  C   UNL     1       1.261  12.560  20.305  0.00  0.00    +0.000 A 
ATOM     11  C   UNL     1       0.299  11.542  20.456  0.00  0.00    +0.000 A 
ATOM     12  C   UNL     1      -1.018  11.873  20.857  0.00  0.00    +0.000 A 
ATOM     13  C   UNL     1      -1.349  13.212  21.119  0.00  0.00    +0.000 A 
ATOM     14  C   UNL     1      -2.620  13.849  21.696  0.00  0.00    +0.000 C 
ATOM     15  N   UNL     1      -3.583  14.542  20.741  0.00  0.00    +0.000 NA
ATOM     16  C   UNL     1      -4.707  14.276  21.298  0.00  0.00    +0.000 C 
ATOM     17  N   UNL     1      -5.558  15.178  21.859  0.00  0.00    +0.000 N 
ATOM     18  N   UNL     1      -4.815  13.033  21.717  0.00  0.00    +0.000 N 
ATOM     19  C   UNL     1      -6.085  12.288  21.657  0.00  0.00    +0.000 C 
ATOM     20  C   UNL     1      -3.603  12.775  22.285  0.00  0.00    +0.000 C 
ATOM     21  O   UNL     1      -3.379  11.893  23.090  0.00  0.00    +0.000 OA
ATOM     22  H   UNL     1      -5.318  15.191  22.862  0.00  0.00    +0.000 HD
ATOM     23  H   UNL     1      -6.517  14.876  21.939  0.00  0.00    +0.000 HD
ENDROOT
BRANCH  11  24
ATOM     24  C   UNL     1       0.748  10.155  20.198  0.00  0.00    +0.000 A 
ATOM     25  C   UNL     1       0.836   9.141  21.235  0.00  0.00    +0.000 A 
ATOM     26  C   UNL     1       1.427   7.964  20.999  0.00  0.00    +0.000 A 
ATOM     27  N   UNL     1       1.984   7.669  19.761  0.00  0.00    +0.000 N 
ATOM     28  C   UNL     1       1.880   8.556  18.685  0.00  0.00    +0.000 A 
ATOM     29  O   UNL     1       2.282   8.331  17.546  0.00  0.00    +0.000 OA
ATOM     30  C   UNL     1       1.249   9.878  18.982  0.00  0.00    +0.000 A 
BRANCH  27  31
ATOM     31  C   UNL     1       2.602   6.374  19.578  0.00  0.00    +0.000 C 
ATOM     32  C   UNL     1       2.209   5.184  20.423  0.00  0.00    +0.000 C 
ATOM     33  C   UNL     1       1.869   5.201  18.966  0.00  0.00    +0.000 C 
ENDBRANCH  27  31
ENDBRANCH  11  24
BRANCH   1  35
ATOM     34  C   UNL     1      -4.045  18.170  25.318  0.00  0.00    +0.000 C 
ATOM     35  O   UNL     1      -3.156  17.060  25.315  0.00  0.00    +0.000 OA
ENDBRANCH   1  35
TORSDOF 3
ENDMDL
