MODEL 1
REMARK VINA RESULT:      -8.0      0.000      0.000
REMARK  Name = 
REMARK  3 active torsions:
REMARK  status: ('A' for Active; 'I' for Inactive)
REMARK    1  A    between atoms: C_1  and  O_2
REMARK    2  A    between atoms: O_2  and  C_3
REMARK    3  A    between atoms: C_3  and  C_4
REMARK                            x       y       z     vdW  Elec       q    Type
REMARK                         _______ _______ _______ _____ _____    ______ ____
ROOT
ATOM      1  C   UNL     1       4.020   4.171  18.649  0.00  0.00    +0.000 A 
ATOM      2  C   UNL     1       4.663   4.551  17.426  0.00  0.00    +0.000 A 
ATOM      3  C   UNL     1       5.496   3.675  16.672  0.00  0.00    +0.000 A 
ATOM      4  C   UNL     1       6.140   4.059  15.496  0.00  0.00    +0.000 A 
ATOM      5  C   UNL     1       5.970   5.340  15.021  0.00  0.00    +0.000 A 
ATOM      6  C   UNL     1       5.147   6.219  15.722  0.00  0.00    +0.000 A 
ATOM      7  C   UNL     1       4.470   5.866  16.922  0.00  0.00    +0.000 A 
ATOM      8  C   UNL     1       3.614   6.785  17.621  0.00  0.00    +0.000 A 
ATOM      9  C   UNL     1       3.362   8.101  17.164  0.00  0.00    +0.000 A 
ATOM     10  C   UNL     1       2.525   8.994  17.838  0.00  0.00    +0.000 A 
ATOM     11  C   UNL     1       1.891   8.608  19.010  0.00  0.00    +0.000 A 
ATOM     12  C   UNL     1       1.045   9.498  19.689  0.00  0.00    +0.000 A 
ATOM     13  C   UNL     1       0.406   9.113  20.862  0.00  0.00    +0.000 A 
ATOM     14  C   UNL     1       0.610   7.833  21.368  0.00  0.00    +0.000 A 
ATOM     15  C   UNL     1       1.455   6.930  20.704  0.00  0.00    +0.000 A 
ATOM     16  C   UNL     1       1.661   5.653  21.212  0.00  0.00    +0.000 A 
ATOM     17  C   UNL     1       2.505   4.763  20.549  0.00  0.00    +0.000 A 
ATOM     18  C   UNL     1       3.173   5.089  19.345  0.00  0.00    +0.000 A 
ATOM     19  C   UNL     1       2.970   6.389  18.820  0.00  0.00    +0.000 A 
ATOM     20  C   UNL     1       2.109   7.304  19.510  0.00  0.00    +0.000 A 
ENDROOT
BRANCH   1  21
ATOM     21  C   UNL     1       4.247   2.785  19.252  0.00  0.00    +0.000 C 
BRANCH  21  23
ATOM     22  C   UNL     1       2.192   1.769  18.596  0.00  0.00    +0.000 C 
ATOM     23  O   UNL     1       3.612   1.717  18.542  0.00  0.00    +0.000 OA
ENDBRANCH  21  23
ENDBRANCH   1  21
TORSDOF 2
ENDMDL
MODEL 2
REMARK VINA RESULT:      -7.4      1.526      2.733
REMARK  Name = 
REMARK  3 active torsions:
REMARK  status: ('A' for Active; 'I' for Inactive)
REMARK    1  A    between atoms: C_1  and  O_2
REMARK    2  A    between atoms: O_2  and  C_3
REMARK    3  A    between atoms: C_3  and  C_4
REMARK                            x       y       z     vdW  Elec       q    Type
REMARK                         _______ _______ _______ _____ _____    ______ ____
ROOT
ATOM      1  C   UNL     1       2.251   6.020  20.136  0.00  0.00    +0.000 A 
ATOM      2  C   UNL     1       3.070   5.903  18.966  0.00  0.00    +0.000 A 
ATOM      3  C   UNL     1       3.775   4.716  18.619  0.00  0.00    +0.000 A 
ATOM      4  C   UNL     1       4.592   4.616  17.491  0.00  0.00    +0.000 A 
ATOM      5  C   UNL     1       4.730   5.705  16.661  0.00  0.00    +0.000 A 
ATOM      6  C   UNL     1       4.040   6.877  16.959  0.00  0.00    +0.000 A 
ATOM      7  C   UNL     1       3.195   7.019  18.095  0.00  0.00    +0.000 A 
ATOM      8  C   UNL     1       2.481   8.234  18.375  0.00  0.00    +0.000 A 
ATOM      9  C   UNL     1       2.545   9.375  17.539  0.00  0.00    +0.000 A 
ATOM     10  C   UNL     1       1.846  10.554  17.806  0.00  0.00    +0.000 A 
ATOM     11  C   UNL     1       1.039  10.649  18.930  0.00  0.00    +0.000 A 
ATOM     12  C   UNL     1       0.331  11.830  19.201  0.00  0.00    +0.000 A 
ATOM     13  C   UNL     1      -0.481  11.927  20.326  0.00  0.00    +0.000 A 
ATOM     14  C   UNL     1      -0.589  10.843  21.191  0.00  0.00    +0.000 A 
ATOM     15  C   UNL     1       0.114   9.655  20.938  0.00  0.00    +0.000 A 
ATOM     16  C   UNL     1       0.008   8.574  21.805  0.00  0.00    +0.000 A 
ATOM     17  C   UNL     1       0.714   7.399  21.549  0.00  0.00    +0.000 A 
ATOM     18  C   UNL     1       1.545   7.233  20.415  0.00  0.00    +0.000 A 
ATOM     19  C   UNL     1       1.660   8.329  19.527  0.00  0.00    +0.000 A 
ATOM     20  C   UNL     1       0.940   9.539  19.799  0.00  0.00    +0.000 A 
ENDROOT
BRANCH   1  21
ATOM     21  C   UNL     1       2.134   4.862  21.126  0.00  0.00    +0.000 C 
BRANCH  21  23
ATOM     22  C   UNL     1       1.388   2.609  21.355  0.00  0.00    +0.000 C 
ATOM     23  O   UNL     1       1.140   3.890  20.790  0.00  0.00    +0.000 OA
ENDBRANCH  21  23
ENDBRANCH   1  21
TORSDOF 2
ENDMDL
MODEL 3
REMARK VINA RESULT:      -7.3      1.355      5.356
REMARK  Name = 
REMARK  3 active torsions:
REMARK  status: ('A' for Active; 'I' for Inactive)
REMARK    1  A    between atoms: C_1  and  O_2
REMARK    2  A    between atoms: O_2  and  C_3
REMARK    3  A    between atoms: C_3  and  C_4
REMARK                            x       y       z     vdW  Elec       q    Type
REMARK                         _______ _______ _______ _____ _____    ______ ____
ROOT
ATOM      1  C   UNL     1       1.986   5.048  19.890  0.00  0.00    +0.000 A 
ATOM      2  C   UNL     1       1.721   6.448  20.043  0.00  0.00    +0.000 A 
ATOM      3  C   UNL     1       0.877   6.980  21.060  0.00  0.00    +0.000 A 
ATOM      4  C   UNL     1       0.602   8.342  21.187  0.00  0.00    +0.000 A 
ATOM      5  C   UNL     1       1.169   9.230  20.302  0.00  0.00    +0.000 A 
ATOM      6  C   UNL     1       2.016   8.748  19.307  0.00  0.00    +0.000 A 
ATOM      7  C   UNL     1       2.325   7.369  19.144  0.00  0.00    +0.000 A 
ATOM      8  C   UNL     1       3.212   6.895  18.118  0.00  0.00    +0.000 A 
ATOM      9  C   UNL     1       3.863   7.758  17.204  0.00  0.00    +0.000 A 
ATOM     10  C   UNL     1       4.731   7.301  16.210  0.00  0.00    +0.000 A 
ATOM     11  C   UNL     1       4.997   5.945  16.085  0.00  0.00    +0.000 A 
ATOM     12  C   UNL     1       5.872   5.479  15.092  0.00  0.00    +0.000 A 
ATOM     13  C   UNL     1       6.142   4.121  14.966  0.00  0.00    +0.000 A 
ATOM     14  C   UNL     1       5.537   3.216  15.832  0.00  0.00    +0.000 A 
ATOM     15  C   UNL     1       4.656   3.663  16.830  0.00  0.00    +0.000 A 
ATOM     16  C   UNL     1       4.049   2.758  17.692  0.00  0.00    +0.000 A 
ATOM     17  C   UNL     1       3.172   3.210  18.676  0.00  0.00    +0.000 A 
ATOM     18  C   UNL     1       2.866   4.579  18.865  0.00  0.00    +0.000 A 
ATOM     19  C   UNL     1       3.480   5.508  17.991  0.00  0.00    +0.000 A 
ATOM     20  C   UNL     1       4.373   5.039  16.973  0.00  0.00    +0.000 A 
ENDROOT
BRANCH   1  21
ATOM     21  C   UNL     1       1.313   4.022  20.802  0.00  0.00    +0.000 C 
BRANCH  21  23
ATOM     22  C   UNL     1       2.306   2.170  21.928  0.00  0.00    +0.000 C 
ATOM     23  O   UNL     1       2.121   3.579  21.897  0.00  0.00    +0.000 OA
ENDBRANCH  21  23
ENDBRANCH   1  21
TORSDOF 2
ENDMDL
MODEL 4
REMARK VINA RESULT:      -7.2      2.408      4.355
REMARK  Name = 
REMARK  3 active torsions:
REMARK  status: ('A' for Active; 'I' for Inactive)
REMARK    1  A    between atoms: C_1  and  O_2
REMARK    2  A    between atoms: O_2  and  C_3
REMARK    3  A    between atoms: C_3  and  C_4
REMARK                            x       y       z     vdW  Elec       q    Type
REMARK                         _______ _______ _______ _____ _____    ______ ____
ROOT
ATOM      1  C   UNL     1       5.287   6.318  16.954  0.00  0.00    +0.000 A 
ATOM      2  C   UNL     1       5.692   5.438  15.898  0.00  0.00    +0.000 A 
ATOM      3  C   UNL     1       6.698   5.767  14.945  0.00  0.00    +0.000 A 
ATOM      4  C   UNL     1       7.069   4.916  13.903  0.00  0.00    +0.000 A 
ATOM      5  C   UNL     1       6.449   3.694  13.777  0.00  0.00    +0.000 A 
ATOM      6  C   UNL     1       5.473   3.330  14.702  0.00  0.00    +0.000 A 
ATOM      7  C   UNL     1       5.068   4.166  15.780  0.00  0.00    +0.000 A 
ATOM      8  C   UNL     1       4.069   3.764  16.731  0.00  0.00    +0.000 A 
ATOM      9  C   UNL     1       3.424   2.504  16.684  0.00  0.00    +0.000 A 
ATOM     10  C   UNL     1       2.458   2.109  17.612  0.00  0.00    +0.000 A 
ATOM     11  C   UNL     1       2.089   2.961  18.643  0.00  0.00    +0.000 A 
ATOM     12  C   UNL     1       1.122   2.568  19.581  0.00  0.00    +0.000 A 
ATOM     13  C   UNL     1       0.753   3.419  20.617  0.00  0.00    +0.000 A 
ATOM     14  C   UNL     1       1.347   4.672  20.723  0.00  0.00    +0.000 A 
ATOM     15  C   UNL     1       2.314   5.084  19.792  0.00  0.00    +0.000 A 
ATOM     16  C   UNL     1       2.905   6.338  19.896  0.00  0.00    +0.000 A 
ATOM     17  C   UNL     1       3.860   6.741  18.964  0.00  0.00    +0.000 A 
ATOM     18  C   UNL     1       4.289   5.917  17.896  0.00  0.00    +0.000 A 
ATOM     19  C   UNL     1       3.692   4.638  17.782  0.00  0.00    +0.000 A 
ATOM     20  C   UNL     1       2.703   4.231  18.736  0.00  0.00    +0.000 A 
ENDROOT
BRANCH   1  21
ATOM     21  C   UNL     1       5.894   7.715  17.081  0.00  0.00    +0.000 C 
BRANCH  21  23
ATOM     22  C   UNL     1       7.819   7.001  18.293  0.00  0.00    +0.000 C 
ATOM     23  O   UNL     1       7.322   7.736  17.183  0.00  0.00    +0.000 OA
ENDBRANCH  21  23
ENDBRANCH   1  21
TORSDOF 2
ENDMDL
MODEL 5
REMARK VINA RESULT:      -7.1      1.369      4.111
REMARK  Name = 
REMARK  3 active torsions:
REMARK  status: ('A' for Active; 'I' for Inactive)
REMARK    1  A    between atoms: C_1  and  O_2
REMARK    2  A    between atoms: O_2  and  C_3
REMARK    3  A    between atoms: C_3  and  C_4
REMARK                            x       y       z     vdW  Elec       q    Type
REMARK                         _______ _______ _______ _____ _____    ______ ____
ROOT
ATOM      1  C   UNL     1       3.823   5.041  18.419  0.00  0.00    +0.000 A 
ATOM      2  C   UNL     1       3.408   4.217  19.516  0.00  0.00    +0.000 A 
ATOM      3  C   UNL     1       3.869   2.884  19.713  0.00  0.00    +0.000 A 
ATOM      4  C   UNL     1       3.441   2.078  20.769  0.00  0.00    +0.000 A 
ATOM      5  C   UNL     1       2.536   2.580  21.677  0.00  0.00    +0.000 A 
ATOM      6  C   UNL     1       2.079   3.887  21.527  0.00  0.00    +0.000 A 
ATOM      7  C   UNL     1       2.492   4.742  20.467  0.00  0.00    +0.000 A 
ATOM      8  C   UNL     1       2.018   6.092  20.340  0.00  0.00    +0.000 A 
ATOM      9  C   UNL     1       1.121   6.684  21.262  0.00  0.00    +0.000 A 
ATOM     10  C   UNL     1       0.664   7.998  21.144  0.00  0.00    +0.000 A 
ATOM     11  C   UNL     1       1.089   8.793  20.089  0.00  0.00    +0.000 A 
ATOM     12  C   UNL     1       0.637  10.116  19.968  0.00  0.00    +0.000 A 
ATOM     13  C   UNL     1       1.064  10.916  18.914  0.00  0.00    +0.000 A 
ATOM     14  C   UNL     1       1.945  10.399  17.970  0.00  0.00    +0.000 A 
ATOM     15  C   UNL     1       2.405   9.076  18.074  0.00  0.00    +0.000 A 
ATOM     16  C   UNL     1       3.283   8.559  17.128  0.00  0.00    +0.000 A 
ATOM     17  C   UNL     1       3.731   7.243  17.236  0.00  0.00    +0.000 A 
ATOM     18  C   UNL     1       3.346   6.383  18.292  0.00  0.00    +0.000 A 
ATOM     19  C   UNL     1       2.451   6.902  19.259  0.00  0.00    +0.000 A 
ATOM     20  C   UNL     1       1.985   8.252  19.139  0.00  0.00    +0.000 A 
ENDROOT
BRANCH   1  21
ATOM     21  C   UNL     1       4.764   4.495  17.345  0.00  0.00    +0.000 C 
BRANCH  21  23
ATOM     22  C   UNL     1       7.005   4.531  16.533  0.00  0.00    +0.000 C 
ATOM     23  O   UNL     1       6.155   4.587  17.671  0.00  0.00    +0.000 OA
ENDBRANCH  21  23
ENDBRANCH   1  21
TORSDOF 2
ENDMDL
MODEL 6
REMARK VINA RESULT:      -7.1      1.696      4.397
REMARK  Name = 
REMARK  3 active torsions:
REMARK  status: ('A' for Active; 'I' for Inactive)
REMARK    1  A    between atoms: C_1  and  O_2
REMARK    2  A    between atoms: O_2  and  C_3
REMARK    3  A    between atoms: C_3  and  C_4
REMARK                            x       y       z     vdW  Elec       q    Type
REMARK                         _______ _______ _______ _____ _____    ______ ____
ROOT
ATOM      1  C   UNL     1       3.267   6.610  18.268  0.00  0.00    +0.000 A 
ATOM      2  C   UNL     1       3.060   5.539  19.197  0.00  0.00    +0.000 A 
ATOM      3  C   UNL     1       3.717   4.279  19.099  0.00  0.00    +0.000 A 
ATOM      4  C   UNL     1       3.491   3.230  19.992  0.00  0.00    +0.000 A 
ATOM      5  C   UNL     1       2.600   3.404  21.025  0.00  0.00    +0.000 A 
ATOM      6  C   UNL     1       1.953   4.630  21.163  0.00  0.00    +0.000 A 
ATOM      7  C   UNL     1       2.157   5.725  20.278  0.00  0.00    +0.000 A 
ATOM      8  C   UNL     1       1.489   6.986  20.448  0.00  0.00    +0.000 A 
ATOM      9  C   UNL     1       0.594   7.245  21.514  0.00  0.00    +0.000 A 
ATOM     10  C   UNL     1      -0.051   8.472  21.684  0.00  0.00    +0.000 A 
ATOM     11  C   UNL     1       0.173   9.510  20.791  0.00  0.00    +0.000 A 
ATOM     12  C   UNL     1      -0.468  10.747  20.960  0.00  0.00    +0.000 A 
ATOM     13  C   UNL     1      -0.243  11.789  20.068  0.00  0.00    +0.000 A 
ATOM     14  C   UNL     1       0.625  11.603  18.997  0.00  0.00    +0.000 A 
ATOM     15  C   UNL     1       1.274  10.372  18.811  0.00  0.00    +0.000 A 
ATOM     16  C   UNL     1       2.138  10.185  17.738  0.00  0.00    +0.000 A 
ATOM     17  C   UNL     1       2.774   8.957  17.557  0.00  0.00    +0.000 A 
ATOM     18  C   UNL     1       2.598   7.863  18.437  0.00  0.00    +0.000 A 
ATOM     19  C   UNL     1       1.718   8.044  19.532  0.00  0.00    +0.000 A 
ATOM     20  C   UNL     1       1.058   9.304  19.708  0.00  0.00    +0.000 A 
ENDROOT
BRANCH   1  21
ATOM     21  C   UNL     1       4.188   6.431  17.062  0.00  0.00    +0.000 C 
BRANCH  21  23
ATOM     22  C   UNL     1       6.484   5.896  16.708  0.00  0.00    +0.000 C 
ATOM     23  O   UNL     1       5.553   6.794  17.295  0.00  0.00    +0.000 OA
ENDBRANCH  21  23
ENDBRANCH   1  21
TORSDOF 2
ENDMDL
MODEL 7
REMARK VINA RESULT:      -6.9      1.961      4.551
REMARK  Name = 
REMARK  3 active torsions:
REMARK  status: ('A' for Active; 'I' for Inactive)
REMARK    1  A    between atoms: C_1  and  O_2
REMARK    2  A    between atoms: O_2  and  C_3
REMARK    3  A    between atoms: C_3  and  C_4
REMARK                            x       y       z     vdW  Elec       q    Type
REMARK                         _______ _______ _______ _____ _____    ______ ____
ROOT
ATOM      1  C   UNL     1       3.903   6.582  17.483  0.00  0.00    +0.000 A 
ATOM      2  C   UNL     1       4.662   5.882  16.490  0.00  0.00    +0.000 A 
ATOM      3  C   UNL     1       5.366   6.535  15.437  0.00  0.00    +0.000 A 
ATOM      4  C   UNL     1       6.082   5.847  14.457  0.00  0.00    +0.000 A 
ATOM      5  C   UNL     1       6.128   4.472  14.496  0.00  0.00    +0.000 A 
ATOM      6  C   UNL     1       5.468   3.800  15.522  0.00  0.00    +0.000 A 
ATOM      7  C   UNL     1       4.730   4.464  16.542  0.00  0.00    +0.000 A 
ATOM      8  C   UNL     1       4.069   3.751  17.600  0.00  0.00    +0.000 A 
ATOM      9  C   UNL     1       4.113   2.341  17.723  0.00  0.00    +0.000 A 
ATOM     10  C   UNL     1       3.476   1.647  18.754  0.00  0.00    +0.000 A 
ATOM     11  C   UNL     1       2.761   2.336  19.723  0.00  0.00    +0.000 A 
ATOM     12  C   UNL     1       2.123   1.644  20.764  0.00  0.00    +0.000 A 
ATOM     13  C   UNL     1       1.409   2.332  21.738  0.00  0.00    +0.000 A 
ATOM     14  C   UNL     1       1.324   3.720  21.678  0.00  0.00    +0.000 A 
ATOM     15  C   UNL     1       1.953   4.428  20.642  0.00  0.00    +0.000 A 
ATOM     16  C   UNL     1       1.865   5.814  20.580  0.00  0.00    +0.000 A 
ATOM     17  C   UNL     1       2.488   6.509  19.545  0.00  0.00    +0.000 A 
ATOM     18  C   UNL     1       3.242   5.869  18.533  0.00  0.00    +0.000 A 
ATOM     19  C   UNL     1       3.336   4.458  18.587  0.00  0.00    +0.000 A 
ATOM     20  C   UNL     1       2.685   3.745  19.647  0.00  0.00    +0.000 A 
ENDROOT
BRANCH   1  21
ATOM     21  C   UNL     1       3.761   8.103  17.430  0.00  0.00    +0.000 C 
BRANCH  21  23
ATOM     22  C   UNL     1       2.023   9.665  17.901  0.00  0.00    +0.000 C 
ATOM     23  O   UNL     1       2.446   8.566  17.105  0.00  0.00    +0.000 OA
ENDBRANCH  21  23
ENDBRANCH   1  21
TORSDOF 2
ENDMDL
MODEL 8
REMARK VINA RESULT:      -6.9      6.772     10.228
REMARK  Name = 
REMARK  3 active torsions:
REMARK  status: ('A' for Active; 'I' for Inactive)
REMARK    1  A    between atoms: C_1  and  O_2
REMARK    2  A    between atoms: O_2  and  C_3
REMARK    3  A    between atoms: C_3  and  C_4
REMARK                            x       y       z     vdW  Elec       q    Type
REMARK                         _______ _______ _______ _____ _____    ______ ____
ROOT
ATOM      1  C   UNL     1      -1.659  12.103  21.560  0.00  0.00    +0.000 A 
ATOM      2  C   UNL     1      -2.714  12.858  22.166  0.00  0.00    +0.000 A 
ATOM      3  C   UNL     1      -2.627  13.421  23.472  0.00  0.00    +0.000 A 
ATOM      4  C   UNL     1      -3.669  14.134  24.067  0.00  0.00    +0.000 A 
ATOM      5  C   UNL     1      -4.842  14.318  23.372  0.00  0.00    +0.000 A 
ATOM      6  C   UNL     1      -4.957  13.799  22.084  0.00  0.00    +0.000 A 
ATOM      7  C   UNL     1      -3.918  13.069  21.441  0.00  0.00    +0.000 A 
ATOM      8  C   UNL     1      -4.054  12.555  20.106  0.00  0.00    +0.000 A 
ATOM      9  C   UNL     1      -5.216  12.747  19.321  0.00  0.00    +0.000 A 
ATOM     10  C   UNL     1      -5.347  12.253  18.021  0.00  0.00    +0.000 A 
ATOM     11  C   UNL     1      -4.310  11.541  17.437  0.00  0.00    +0.000 A 
ATOM     12  C   UNL     1      -4.433  11.046  16.129  0.00  0.00    +0.000 A 
ATOM     13  C   UNL     1      -3.394  10.335  15.540  0.00  0.00    +0.000 A 
ATOM     14  C   UNL     1      -2.222  10.109  16.255  0.00  0.00    +0.000 A 
ATOM     15  C   UNL     1      -2.082  10.594  17.565  0.00  0.00    +0.000 A 
ATOM     16  C   UNL     1      -0.912  10.364  18.281  0.00  0.00    +0.000 A 
ATOM     17  C   UNL     1      -0.784  10.845  19.583  0.00  0.00    +0.000 A 
ATOM     18  C   UNL     1      -1.798  11.587  20.233  0.00  0.00    +0.000 A 
ATOM     19  C   UNL     1      -2.993  11.824  19.512  0.00  0.00    +0.000 A 
ATOM     20  C   UNL     1      -3.126  11.320  18.177  0.00  0.00    +0.000 A 
ENDROOT
BRANCH   1  21
ATOM     21  C   UNL     1      -0.370  11.807  22.328  0.00  0.00    +0.000 C 
BRANCH  21  23
ATOM     22  C   UNL     1       0.094   9.560  22.975  0.00  0.00    +0.000 C 
ATOM     23  O   UNL     1      -0.497  10.801  23.338  0.00  0.00    +0.000 OA
ENDBRANCH  21  23
ENDBRANCH   1  21
TORSDOF 2
ENDMDL
MODEL 9
REMARK VINA RESULT:      -6.8      2.429      6.921
REMARK  Name = 
REMARK  3 active torsions:
REMARK  status: ('A' for Active; 'I' for Inactive)
REMARK    1  A    between atoms: C_1  and  O_2
REMARK    2  A    between atoms: O_2  and  C_3
REMARK    3  A    between atoms: C_3  and  C_4
REMARK                            x       y       z     vdW  Elec       q    Type
REMARK                         _______ _______ _______ _____ _____    ______ ____
ROOT
ATOM      1  C   UNL     1       1.739   9.405  18.747  0.00  0.00    +0.000 A 
ATOM      2  C   UNL     1       0.952   9.446  19.943  0.00  0.00    +0.000 A 
ATOM      3  C   UNL     1       0.193  10.583  20.345  0.00  0.00    +0.000 A 
ATOM      4  C   UNL     1      -0.551  10.625  21.525  0.00  0.00    +0.000 A 
ATOM      5  C   UNL     1      -0.570   9.525  22.350  0.00  0.00    +0.000 A 
ATOM      6  C   UNL     1       0.144   8.387  21.980  0.00  0.00    +0.000 A 
ATOM      7  C   UNL     1       0.912   8.301  20.785  0.00  0.00    +0.000 A 
ATOM      8  C   UNL     1       1.630   7.113  20.417  0.00  0.00    +0.000 A 
ATOM      9  C   UNL     1       1.617   5.932  21.198  0.00  0.00    +0.000 A 
ATOM     10  C   UNL     1       2.309   4.773  20.838  0.00  0.00    +0.000 A 
ATOM     11  C   UNL     1       3.051   4.738  19.666  0.00  0.00    +0.000 A 
ATOM     12  C   UNL     1       3.744   3.575  19.296  0.00  0.00    +0.000 A 
ATOM     13  C   UNL     1       4.486   3.536  18.121  0.00  0.00    +0.000 A 
ATOM     14  C   UNL     1       4.543   4.661  17.306  0.00  0.00    +0.000 A 
ATOM     15  C   UNL     1       3.858   5.835  17.661  0.00  0.00    +0.000 A 
ATOM     16  C   UNL     1       3.918   6.960  16.847  0.00  0.00    +0.000 A 
ATOM     17  C   UNL     1       3.240   8.123  17.210  0.00  0.00    +0.000 A 
ATOM     18  C   UNL     1       2.456   8.222  18.385  0.00  0.00    +0.000 A 
ATOM     19  C   UNL     1       2.390   7.080  19.220  0.00  0.00    +0.000 A 
ATOM     20  C   UNL     1       3.098   5.890  18.849  0.00  0.00    +0.000 A 
ENDROOT
BRANCH   1  21
ATOM     21  C   UNL     1       1.851  10.633  17.844  0.00  0.00    +0.000 C 
BRANCH  21  23
ATOM     22  C   UNL     1       2.158  12.974  18.179  0.00  0.00    +0.000 C 
ATOM     23  O   UNL     1       2.697  11.670  18.352  0.00  0.00    +0.000 OA
ENDBRANCH  21  23
ENDBRANCH   1  21
TORSDOF 2
ENDMDL
