MODEL 1
REMARK VINA RESULT:      -7.3      0.000      0.000
REMARK  Name = 
REMARK  7 active torsions:
REMARK  status: ('A' for Active; 'I' for Inactive)
REMARK    1  A    between atoms: C_2  and  C_3
REMARK    2  A    between atoms: C_3  and  C_4
REMARK    3  A    between atoms: C_6  and  C_7
REMARK    4  A    between atoms: N_9  and  C1*_10
REMARK    5  A    between atoms: C3*_12  and  O3*_13
REMARK    6  A    between atoms: C4*_14  and  C5*_15
REMARK    7  A    between atoms: C5*_15  and  O5*_16
REMARK                            x       y       z     vdW  Elec       q    Type
REMARK                         _______ _______ _______ _____ _____    ______ ____
ROOT
ATOM      1  C   UNL     1       2.589   5.116  19.943  0.00  0.00    +0.000 A 
ATOM      2  C   UNL     1       3.737   5.199  19.259  0.00  0.00    +0.000 A 
ATOM      3  N   UNL     1       4.194   4.197  18.424  0.00  0.00    +0.000 N 
ATOM      4  C   UNL     1       3.535   2.976  18.333  0.00  0.00    +0.000 A 
ATOM      5  O   UNL     1       3.891   2.054  17.604  0.00  0.00    +0.000 OA
ATOM      6  N   UNL     1       2.398   2.858  19.087  0.00  0.00    +0.000 N 
ATOM      7  C   UNL     1       1.796   3.866  19.785  0.00  0.00    +0.000 A 
ATOM      8  O   UNL     1       0.665   3.758  20.249  0.00  0.00    +0.000 OA
ATOM      9  H   UNL     1       1.871   2.007  18.968  0.00  0.00    +0.000 HD
ENDROOT
BRANCH   3  10
ATOM     10  C1* UNL     1       5.372   4.391  17.574  0.00  0.00    +0.000 C 
ATOM     11  C2* UNL     1       5.497   5.815  17.038  0.00  0.00    +0.000 C 
ATOM     12  C3* UNL     1       6.988   6.019  16.939  0.00  0.00    +0.000 C 
ATOM     13  C4* UNL     1       7.526   5.201  18.104  0.00  0.00    +0.000 C 
ATOM     14  O4* UNL     1       6.589   4.114  18.302  0.00  0.00    +0.000 OA
BRANCH  12  15
ATOM     15  O3* UNL     1       7.458   5.513  15.691  0.00  0.00    +0.000 OA
ATOM     16  H3* UNL     1       8.133   4.831  15.849  0.00  0.00    +0.000 HD
ENDBRANCH  12  15
BRANCH  13  17
ATOM     17  C5* UNL     1       7.614   6.022  19.398  0.00  0.00    +0.000 C 
BRANCH  17  18
ATOM     18  O5* UNL     1       8.160   5.238  20.458  0.00  0.00    +0.000 OA
ATOM     19  H5* UNL     1       7.876   4.319  20.304  0.00  0.00    +0.000 HD
ENDBRANCH  17  18
ENDBRANCH  13  17
ENDBRANCH   3  10
BRANCH   1  21
ATOM     20  C   UNL     1       1.827   7.484  20.286  0.00  0.00    +0.000 C 
ATOM     21  C   UNL     1       2.044   6.220  20.706  0.00  0.00    +0.000 C 
BRANCH  20  23
ATOM     22  N   UNL     1       2.493   8.298  17.929  0.00  0.00    +0.000 NA
ATOM     23  C   UNL     1       2.187   7.922  18.981  0.00  0.00    +0.000 C 
ENDBRANCH  20  23
BRANCH  20  24
ATOM     24  C   UNL     1       1.228   8.417  21.178  0.00  0.00    +0.000 C 
ATOM     25  N   UNL     1       0.768   9.197  21.900  0.00  0.00    +0.000 NA
ENDBRANCH  20  24
ENDBRANCH   1  21
TORSDOF 7
ENDMDL
MODEL 2
REMARK VINA RESULT:      -7.0      2.451      5.910
REMARK  Name = 
REMARK  7 active torsions:
REMARK  status: ('A' for Active; 'I' for Inactive)
REMARK    1  A    between atoms: C_2  and  C_3
REMARK    2  A    between atoms: C_3  and  C_4
REMARK    3  A    between atoms: C_6  and  C_7
REMARK    4  A    between atoms: N_9  and  C1*_10
REMARK    5  A    between atoms: C3*_12  and  O3*_13
REMARK    6  A    between atoms: C4*_14  and  C5*_15
REMARK    7  A    between atoms: C5*_15  and  O5*_16
REMARK                            x       y       z     vdW  Elec       q    Type
REMARK                         _______ _______ _______ _____ _____    ______ ____
ROOT
ATOM      1  C   UNL     1       3.596   6.649  17.926  0.00  0.00    +0.000 A 
ATOM      2  C   UNL     1       3.374   5.741  18.885  0.00  0.00    +0.000 A 
ATOM      3  N   UNL     1       2.488   5.943  19.926  0.00  0.00    +0.000 N 
ATOM      4  C   UNL     1       1.851   7.165  20.106  0.00  0.00    +0.000 A 
ATOM      5  O   UNL     1       1.050   7.398  21.008  0.00  0.00    +0.000 OA
ATOM      6  N   UNL     1       2.130   8.123  19.168  0.00  0.00    +0.000 N 
ATOM      7  C   UNL     1       2.847   7.932  18.021  0.00  0.00    +0.000 A 
ATOM      8  O   UNL     1       2.869   8.759  17.115  0.00  0.00    +0.000 OA
ATOM      9  H   UNL     1       1.613   8.986  19.245  0.00  0.00    +0.000 HD
ENDROOT
BRANCH   3  10
ATOM     10  C1* UNL     1       2.156   4.866  20.863  0.00  0.00    +0.000 C 
ATOM     11  C2* UNL     1       1.081   3.920  20.335  0.00  0.00    +0.000 C 
ATOM     12  C3* UNL     1       1.453   2.593  20.949  0.00  0.00    +0.000 C 
ATOM     13  C4* UNL     1       2.972   2.654  21.005  0.00  0.00    +0.000 C 
ATOM     14  O4* UNL     1       3.316   4.054  21.153  0.00  0.00    +0.000 OA
BRANCH  12  15
ATOM     15  O3* UNL     1       0.890   2.497  22.256  0.00  0.00    +0.000 OA
ATOM     16  H3* UNL     1      -0.076   2.604  22.203  0.00  0.00    +0.000 HD
ENDBRANCH  12  15
BRANCH  13  17
ATOM     17  C5* UNL     1       3.623   2.116  19.724  0.00  0.00    +0.000 C 
BRANCH  17  18
ATOM     18  O5* UNL     1       4.993   2.507  19.649  0.00  0.00    +0.000 OA
ATOM     19  H5* UNL     1       5.153   2.800  18.734  0.00  0.00    +0.000 HD
ENDBRANCH  17  18
ENDBRANCH  13  17
ENDBRANCH   3  10
BRANCH   1  21
ATOM     20  C   UNL     1       5.609   5.751  16.722  0.00  0.00    +0.000 C 
ATOM     21  C   UNL     1       4.417   6.382  16.763  0.00  0.00    +0.000 C 
BRANCH  20  23
ATOM     22  N   UNL     1       6.807   4.907  18.847  0.00  0.00    +0.000 NA
ATOM     23  C   UNL     1       6.268   5.299  17.899  0.00  0.00    +0.000 C 
ENDBRANCH  20  23
BRANCH  20  24
ATOM     24  C   UNL     1       6.237   5.537  15.463  0.00  0.00    +0.000 C 
ATOM     25  N   UNL     1       6.763   5.334  14.451  0.00  0.00    +0.000 NA
ENDBRANCH  20  24
ENDBRANCH   1  21
TORSDOF 7
ENDMDL
MODEL 3
REMARK VINA RESULT:      -6.7      2.411      5.701
REMARK  Name = 
REMARK  7 active torsions:
REMARK  status: ('A' for Active; 'I' for Inactive)
REMARK    1  A    between atoms: C_2  and  C_3
REMARK    2  A    between atoms: C_3  and  C_4
REMARK    3  A    between atoms: C_6  and  C_7
REMARK    4  A    between atoms: N_9  and  C1*_10
REMARK    5  A    between atoms: C3*_12  and  O3*_13
REMARK    6  A    between atoms: C4*_14  and  C5*_15
REMARK    7  A    between atoms: C5*_15  and  O5*_16
REMARK                            x       y       z     vdW  Elec       q    Type
REMARK                         _______ _______ _______ _____ _____    ______ ____
ROOT
ATOM      1  C   UNL     1       5.640   5.568  17.178  0.00  0.00    +0.000 A 
ATOM      2  C   UNL     1       4.499   5.357  17.846  0.00  0.00    +0.000 A 
ATOM      3  N   UNL     1       3.870   4.127  17.899  0.00  0.00    +0.000 N 
ATOM      4  C   UNL     1       4.331   3.048  17.153  0.00  0.00    +0.000 A 
ATOM      5  O   UNL     1       3.817   1.932  17.166  0.00  0.00    +0.000 OA
ATOM      6  N   UNL     1       5.457   3.278  16.410  0.00  0.00    +0.000 N 
ATOM      7  C   UNL     1       6.227   4.406  16.456  0.00  0.00    +0.000 A 
ATOM      8  O   UNL     1       7.340   4.461  15.943  0.00  0.00    +0.000 OA
ATOM      9  H   UNL     1       5.843   2.481  15.928  0.00  0.00    +0.000 HD
ENDROOT
BRANCH   3  10
ATOM     10  C1* UNL     1       2.713   3.900  18.769  0.00  0.00    +0.000 C 
ATOM     11  C2* UNL     1       3.094   3.690  20.232  0.00  0.00    +0.000 C 
ATOM     12  C3* UNL     1       1.920   4.268  20.983  0.00  0.00    +0.000 C 
ATOM     13  C4* UNL     1       1.469   5.413  20.089  0.00  0.00    +0.000 C 
ATOM     14  O4* UNL     1       1.808   5.027  18.734  0.00  0.00    +0.000 OA
BRANCH  12  15
ATOM     15  O3* UNL     1       0.901   3.278  21.111  0.00  0.00    +0.000 OA
ATOM     16  H3* UNL     1       0.046   3.653  20.833  0.00  0.00    +0.000 HD
ENDBRANCH  12  15
BRANCH  13  17
ATOM     17  C5* UNL     1       2.186   6.728  20.423  0.00  0.00    +0.000 C 
BRANCH  17  18
ATOM     18  O5* UNL     1       1.402   7.518  21.316  0.00  0.00    +0.000 OA
ATOM     19  H5* UNL     1       1.288   6.995  22.129  0.00  0.00    +0.000 HD
ENDBRANCH  17  18
ENDBRANCH  13  17
ENDBRANCH   3  10
BRANCH   1  21
ATOM     20  C   UNL     1       7.414   7.125  18.035  0.00  0.00    +0.000 C 
ATOM     21  C   UNL     1       6.370   6.818  17.239  0.00  0.00    +0.000 C 
BRANCH  20  23
ATOM     22  N   UNL     1       8.321   5.462  19.789  0.00  0.00    +0.000 NA
ATOM     23  C   UNL     1       7.914   6.219  19.012  0.00  0.00    +0.000 C 
ENDBRANCH  20  23
BRANCH  20  24
ATOM     24  C   UNL     1       8.033   8.399  17.906  0.00  0.00    +0.000 C 
ATOM     25  N   UNL     1       8.532   9.442  17.834  0.00  0.00    +0.000 NA
ENDBRANCH  20  24
ENDBRANCH   1  21
TORSDOF 7
ENDMDL
MODEL 4
REMARK VINA RESULT:      -6.4      2.901      5.882
REMARK  Name = 
REMARK  7 active torsions:
REMARK  status: ('A' for Active; 'I' for Inactive)
REMARK    1  A    between atoms: C_2  and  C_3
REMARK    2  A    between atoms: C_3  and  C_4
REMARK    3  A    between atoms: C_6  and  C_7
REMARK    4  A    between atoms: N_9  and  C1*_10
REMARK    5  A    between atoms: C3*_12  and  O3*_13
REMARK    6  A    between atoms: C4*_14  and  C5*_15
REMARK    7  A    between atoms: C5*_15  and  O5*_16
REMARK                            x       y       z     vdW  Elec       q    Type
REMARK                         _______ _______ _______ _____ _____    ______ ____
ROOT
ATOM      1  C   UNL     1       5.344   5.806  17.339  0.00  0.00    +0.000 A 
ATOM      2  C   UNL     1       4.743   5.332  18.439  0.00  0.00    +0.000 A 
ATOM      3  N   UNL     1       4.086   4.117  18.477  0.00  0.00    +0.000 N 
ATOM      4  C   UNL     1       3.907   3.356  17.327  0.00  0.00    +0.000 A 
ATOM      5  O   UNL     1       3.337   2.268  17.303  0.00  0.00    +0.000 OA
ATOM      6  N   UNL     1       4.456   3.872  16.184  0.00  0.00    +0.000 N 
ATOM      7  C   UNL     1       5.270   4.967  16.113  0.00  0.00    +0.000 A 
ATOM      8  O   UNL     1       5.912   5.242  15.104  0.00  0.00    +0.000 OA
ATOM      9  H   UNL     1       4.399   3.290  15.361  0.00  0.00    +0.000 HD
ENDROOT
BRANCH   3  10
ATOM     10  C1* UNL     1       3.581   3.563  19.736  0.00  0.00    +0.000 C 
ATOM     11  C2* UNL     1       2.695   4.537  20.509  0.00  0.00    +0.000 C 
ATOM     12  C3* UNL     1       1.713   3.632  21.209  0.00  0.00    +0.000 C 
ATOM     13  C4* UNL     1       1.537   2.486  20.225  0.00  0.00    +0.000 C 
ATOM     14  O4* UNL     1       2.787   2.378  19.501  0.00  0.00    +0.000 OA
BRANCH  12  15
ATOM     15  O3* UNL     1       2.276   3.177  22.439  0.00  0.00    +0.000 OA
ATOM     16  H3* UNL     1       1.869   3.657  23.181  0.00  0.00    +0.000 HD
ENDBRANCH  12  15
BRANCH  13  17
ATOM     17  C5* UNL     1       0.405   2.751  19.223  0.00  0.00    +0.000 C 
BRANCH  17  18
ATOM     18  O5* UNL     1       0.400   1.763  18.193  0.00  0.00    +0.000 OA
ATOM     19  H5* UNL     1       1.330   1.594  17.959  0.00  0.00    +0.000 HD
ENDBRANCH  17  18
ENDBRANCH  13  17
ENDBRANCH   3  10
BRANCH   1  21
ATOM     20  C   UNL     1       7.313   7.224  17.987  0.00  0.00    +0.000 C 
ATOM     21  C   UNL     1       6.149   7.010  17.338  0.00  0.00    +0.000 C 
BRANCH  20  23
ATOM     22  N   UNL     1       8.338   5.461  19.570  0.00  0.00    +0.000 NA
ATOM     23  C   UNL     1       7.889   6.251  18.850  0.00  0.00    +0.000 C 
ENDBRANCH  20  23
BRANCH  20  24
ATOM     24  C   UNL     1       7.984   8.466  17.814  0.00  0.00    +0.000 C 
ATOM     25  N   UNL     1       8.547   9.472  17.703  0.00  0.00    +0.000 NA
ENDBRANCH  20  24
ENDBRANCH   1  21
TORSDOF 7
ENDMDL
MODEL 5
REMARK VINA RESULT:      -6.4      1.258      1.527
REMARK  Name = 
REMARK  7 active torsions:
REMARK  status: ('A' for Active; 'I' for Inactive)
REMARK    1  A    between atoms: C_2  and  C_3
REMARK    2  A    between atoms: C_3  and  C_4
REMARK    3  A    between atoms: C_6  and  C_7
REMARK    4  A    between atoms: N_9  and  C1*_10
REMARK    5  A    between atoms: C3*_12  and  O3*_13
REMARK    6  A    between atoms: C4*_14  and  C5*_15
REMARK    7  A    between atoms: C5*_15  and  O5*_16
REMARK                            x       y       z     vdW  Elec       q    Type
REMARK                         _______ _______ _______ _____ _____    ______ ____
ROOT
ATOM      1  C   UNL     1       2.570   5.653  20.089  0.00  0.00    +0.000 A 
ATOM      2  C   UNL     1       3.834   5.531  19.662  0.00  0.00    +0.000 A 
ATOM      3  N   UNL     1       4.375   4.334  19.235  0.00  0.00    +0.000 N 
ATOM      4  C   UNL     1       3.663   3.144  19.332  0.00  0.00    +0.000 A 
ATOM      5  O   UNL     1       4.090   2.053  18.962  0.00  0.00    +0.000 OA
ATOM      6  N   UNL     1       2.394   3.251  19.835  0.00  0.00    +0.000 N 
ATOM      7  C   UNL     1       1.738   4.420  20.103  0.00  0.00    +0.000 A 
ATOM      8  O   UNL     1       0.533   4.458  20.331  0.00  0.00    +0.000 OA
ATOM      9  H   UNL     1       1.842   2.407  19.836  0.00  0.00    +0.000 HD
ENDROOT
BRANCH   3  10
ATOM     10  C1* UNL     1       5.708   4.273  18.628  0.00  0.00    +0.000 C 
ATOM     11  C2* UNL     1       5.675   4.288  17.102  0.00  0.00    +0.000 C 
ATOM     12  C3* UNL     1       6.950   5.004  16.734  0.00  0.00    +0.000 C 
ATOM     13  C4* UNL     1       7.124   6.004  17.868  0.00  0.00    +0.000 C 
ATOM     14  O4* UNL     1       6.515   5.401  19.036  0.00  0.00    +0.000 OA
BRANCH  12  15
ATOM     15  O3* UNL     1       8.028   4.071  16.697  0.00  0.00    +0.000 OA
ATOM     16  H3* UNL     1       7.783   3.311  16.140  0.00  0.00    +0.000 HD
ENDBRANCH  12  15
BRANCH  13  17
ATOM     17  C5* UNL     1       6.423   7.338  17.577  0.00  0.00    +0.000 C 
BRANCH  17  18
ATOM     18  O5* UNL     1       7.378   8.354  17.269  0.00  0.00    +0.000 OA
ATOM     19  H5* UNL     1       8.141   7.908  16.860  0.00  0.00    +0.000 HD
ENDBRANCH  17  18
ENDBRANCH  13  17
ENDBRANCH   3  10
BRANCH   1  21
ATOM     20  C   UNL     1       1.846   8.008  19.599  0.00  0.00    +0.000 C 
ATOM     21  C   UNL     1       1.965   6.931  20.403  0.00  0.00    +0.000 C 
BRANCH  20  23
ATOM     22  N   UNL     1       2.817   8.038  17.207  0.00  0.00    +0.000 NA
ATOM     23  C   UNL     1       2.390   8.035  18.285  0.00  0.00    +0.000 C 
ENDBRANCH  20  23
BRANCH  20  24
ATOM     24  C   UNL     1       1.165   9.161  20.080  0.00  0.00    +0.000 C 
ATOM     25  N   UNL     1       0.602  10.107  20.438  0.00  0.00    +0.000 NA
ENDBRANCH  20  24
ENDBRANCH   1  21
TORSDOF 7
ENDMDL
MODEL 6
REMARK VINA RESULT:      -6.3      3.874      7.177
REMARK  Name = 
REMARK  7 active torsions:
REMARK  status: ('A' for Active; 'I' for Inactive)
REMARK    1  A    between atoms: C_2  and  C_3
REMARK    2  A    between atoms: C_3  and  C_4
REMARK    3  A    between atoms: C_6  and  C_7
REMARK    4  A    between atoms: N_9  and  C1*_10
REMARK    5  A    between atoms: C3*_12  and  O3*_13
REMARK    6  A    between atoms: C4*_14  and  C5*_15
REMARK    7  A    between atoms: C5*_15  and  O5*_16
REMARK                            x       y       z     vdW  Elec       q    Type
REMARK                         _______ _______ _______ _____ _____    ______ ____
ROOT
ATOM      1  C   UNL     1       5.521   4.427  14.366  0.00  0.00    +0.000 A 
ATOM      2  C   UNL     1       5.030   4.312  15.607  0.00  0.00    +0.000 A 
ATOM      3  N   UNL     1       5.774   4.573  16.742  0.00  0.00    +0.000 N 
ATOM      4  C   UNL     1       7.132   4.863  16.664  0.00  0.00    +0.000 A 
ATOM      5  O   UNL     1       7.840   5.109  17.637  0.00  0.00    +0.000 OA
ATOM      6  N   UNL     1       7.657   4.910  15.400  0.00  0.00    +0.000 N 
ATOM      7  C   UNL     1       6.944   4.845  14.237  0.00  0.00    +0.000 A 
ATOM      8  O   UNL     1       7.438   5.122  13.148  0.00  0.00    +0.000 OA
ATOM      9  H   UNL     1       8.621   5.197  15.329  0.00  0.00    +0.000 HD
ENDROOT
BRANCH   3  10
ATOM     10  C1* UNL     1       5.157   4.589  18.070  0.00  0.00    +0.000 C 
ATOM     11  C2* UNL     1       3.664   4.906  18.035  0.00  0.00    +0.000 C 
ATOM     12  C3* UNL     1       3.115   4.127  19.204  0.00  0.00    +0.000 C 
ATOM     13  C4* UNL     1       4.005   2.894  19.244  0.00  0.00    +0.000 C 
ATOM     14  O4* UNL     1       5.292   3.305  18.721  0.00  0.00    +0.000 OA
BRANCH  12  15
ATOM     15  O3* UNL     1       3.247   4.899  20.397  0.00  0.00    +0.000 OA
ATOM     16  H3* UNL     1       2.500   4.709  20.992  0.00  0.00    +0.000 HD
ENDBRANCH  12  15
BRANCH  13  17
ATOM     17  C5* UNL     1       3.457   1.755  18.374  0.00  0.00    +0.000 C 
BRANCH  17  18
ATOM     18  O5* UNL     1       4.350   0.642  18.376  0.00  0.00    +0.000 OA
ATOM     19  H5* UNL     1       4.788   0.630  17.506  0.00  0.00    +0.000 HD
ENDBRANCH  17  18
ENDBRANCH  13  17
ENDBRANCH   3  10
BRANCH   1  21
ATOM     20  C   UNL     1       4.924   3.493  12.112  0.00  0.00    +0.000 C 
ATOM     21  C   UNL     1       4.703   4.289  13.178  0.00  0.00    +0.000 C 
BRANCH  20  23
ATOM     22  N   UNL     1       7.038   2.031  11.876  0.00  0.00    +0.000 NA
ATOM     23  C   UNL     1       6.092   2.690  11.996  0.00  0.00    +0.000 C 
ENDBRANCH  20  23
BRANCH  20  24
ATOM     24  C   UNL     1       3.966   3.460  11.061  0.00  0.00    +0.000 C 
ATOM     25  N   UNL     1       3.205   3.456  10.187  0.00  0.00    +0.000 NA
ENDBRANCH  20  24
ENDBRANCH   1  21
TORSDOF 7
ENDMDL
MODEL 7
REMARK VINA RESULT:      -6.3      2.701      6.484
REMARK  Name = 
REMARK  7 active torsions:
REMARK  status: ('A' for Active; 'I' for Inactive)
REMARK    1  A    between atoms: C_2  and  C_3
REMARK    2  A    between atoms: C_3  and  C_4
REMARK    3  A    between atoms: C_6  and  C_7
REMARK    4  A    between atoms: N_9  and  C1*_10
REMARK    5  A    between atoms: C3*_12  and  O3*_13
REMARK    6  A    between atoms: C4*_14  and  C5*_15
REMARK    7  A    between atoms: C5*_15  and  O5*_16
REMARK                            x       y       z     vdW  Elec       q    Type
REMARK                         _______ _______ _______ _____ _____    ______ ____
ROOT
ATOM      1  C   UNL     1       4.496   5.435  16.294  0.00  0.00    +0.000 A 
ATOM      2  C   UNL     1       3.738   4.693  17.111  0.00  0.00    +0.000 A 
ATOM      3  N   UNL     1       3.104   5.207  18.227  0.00  0.00    +0.000 N 
ATOM      4  C   UNL     1       3.313   6.519  18.637  0.00  0.00    +0.000 A 
ATOM      5  O   UNL     1       2.772   7.030  19.614  0.00  0.00    +0.000 OA
ATOM      6  N   UNL     1       4.146   7.262  17.844  0.00  0.00    +0.000 N 
ATOM      7  C   UNL     1       4.655   6.875  16.637  0.00  0.00    +0.000 A 
ATOM      8  O   UNL     1       5.202   7.663  15.872  0.00  0.00    +0.000 OA
ATOM      9  H   UNL     1       4.241   8.237  18.088  0.00  0.00    +0.000 HD
ENDROOT
BRANCH   3  10
ATOM     10  C1* UNL     1       2.158   4.402  19.004  0.00  0.00    +0.000 C 
ATOM     11  C2* UNL     1       1.361   3.420  18.149  0.00  0.00    +0.000 C 
ATOM     12  C3* UNL     1       1.130   2.256  19.080  0.00  0.00    +0.000 C 
ATOM     13  C4* UNL     1       2.389   2.243  19.934  0.00  0.00    +0.000 C 
ATOM     14  O4* UNL     1       2.845   3.617  20.005  0.00  0.00    +0.000 OA
BRANCH  12  15
ATOM     15  O3* UNL     1      -0.031   2.501  19.872  0.00  0.00    +0.000 OA
ATOM     16  H3* UNL     1       0.109   3.295  20.418  0.00  0.00    +0.000 HD
ENDBRANCH  12  15
BRANCH  13  17
ATOM     17  C5* UNL     1       3.500   1.383  19.318  0.00  0.00    +0.000 C 
BRANCH  17  18
ATOM     18  O5* UNL     1       4.772   2.010  19.475  0.00  0.00    +0.000 OA
ATOM     19  H5* UNL     1       4.966   2.018  20.429  0.00  0.00    +0.000 HD
ENDBRANCH  17  18
ENDBRANCH  13  17
ENDBRANCH   3  10
BRANCH   1  21
ATOM     20  C   UNL     1       6.269   4.402  14.845  0.00  0.00    +0.000 C 
ATOM     21  C   UNL     1       5.044   4.929  15.052  0.00  0.00    +0.000 C 
BRANCH  20  23
ATOM     22  N   UNL     1       8.030   4.293  16.729  0.00  0.00    +0.000 NA
ATOM     23  C   UNL     1       7.248   4.334  15.874  0.00  0.00    +0.000 C 
ENDBRANCH  20  23
BRANCH  20  24
ATOM     24  C   UNL     1       6.601   3.907  13.553  0.00  0.00    +0.000 C 
ATOM     25  N   UNL     1       6.842   3.518  12.489  0.00  0.00    +0.000 NA
ENDBRANCH  20  24
ENDBRANCH   1  21
TORSDOF 7
ENDMDL
MODEL 8
REMARK VINA RESULT:      -6.3      2.820      5.714
REMARK  Name = 
REMARK  7 active torsions:
REMARK  status: ('A' for Active; 'I' for Inactive)
REMARK    1  A    between atoms: C_2  and  C_3
REMARK    2  A    between atoms: C_3  and  C_4
REMARK    3  A    between atoms: C_6  and  C_7
REMARK    4  A    between atoms: N_9  and  C1*_10
REMARK    5  A    between atoms: C3*_12  and  O3*_13
REMARK    6  A    between atoms: C4*_14  and  C5*_15
REMARK    7  A    between atoms: C5*_15  and  O5*_16
REMARK                            x       y       z     vdW  Elec       q    Type
REMARK                         _______ _______ _______ _____ _____    ______ ____
ROOT
ATOM      1  C   UNL     1       5.547   6.424  17.042  0.00  0.00    +0.000 A 
ATOM      2  C   UNL     1       4.546   6.121  17.878  0.00  0.00    +0.000 A 
ATOM      3  N   UNL     1       3.780   4.977  17.757  0.00  0.00    +0.000 N 
ATOM      4  C   UNL     1       3.932   4.117  16.675  0.00  0.00    +0.000 A 
ATOM      5  O   UNL     1       3.285   3.085  16.519  0.00  0.00    +0.000 OA
ATOM      6  N   UNL     1       4.906   4.461  15.776  0.00  0.00    +0.000 N 
ATOM      7  C   UNL     1       5.815   5.469  15.932  0.00  0.00    +0.000 A 
ATOM      8  O   UNL     1       6.800   5.582  15.209  0.00  0.00    +0.000 OA
ATOM      9  H   UNL     1       5.077   3.803  15.031  0.00  0.00    +0.000 HD
ENDROOT
BRANCH   3  10
ATOM     10  C1* UNL     1       2.801   4.603  18.782  0.00  0.00    +0.000 C 
ATOM     11  C2* UNL     1       1.527   3.993  18.202  0.00  0.00    +0.000 C 
ATOM     12  C3* UNL     1       1.094   3.017  19.266  0.00  0.00    +0.000 C 
ATOM     13  C4* UNL     1       2.414   2.530  19.846  0.00  0.00    +0.000 C 
ATOM     14  O4* UNL     1       3.351   3.625  19.692  0.00  0.00    +0.000 OA
BRANCH  12  15
ATOM     15  O3* UNL     1       0.316   3.696  20.250  0.00  0.00    +0.000 OA
ATOM     16  H3* UNL     1       0.401   4.658  20.125  0.00  0.00    +0.000 HD
ENDBRANCH  12  15
BRANCH  13  17
ATOM     17  C5* UNL     1       2.958   1.304  19.101  0.00  0.00    +0.000 C 
BRANCH  17  18
ATOM     18  O5* UNL     1       4.358   1.438  18.860  0.00  0.00    +0.000 OA
ATOM     19  H5* UNL     1       4.744   1.841  19.658  0.00  0.00    +0.000 HD
ENDBRANCH  17  18
ENDBRANCH  13  17
ENDBRANCH   3  10
BRANCH   1  21
ATOM     20  C   UNL     1       7.544   7.592  18.021  0.00  0.00    +0.000 C 
ATOM     21  C   UNL     1       6.436   7.548  17.252  0.00  0.00    +0.000 C 
BRANCH  20  23
ATOM     22  N   UNL     1       8.275   5.585  19.471  0.00  0.00    +0.000 NA
ATOM     23  C   UNL     1       7.959   6.485  18.813  0.00  0.00    +0.000 C 
ENDBRANCH  20  23
BRANCH  20  24
ATOM     24  C   UNL     1       8.319   8.784  18.053  0.00  0.00    +0.000 C 
ATOM     25  N   UNL     1       8.921   9.773  18.085  0.00  0.00    +0.000 NA
ENDBRANCH  20  24
ENDBRANCH   1  21
TORSDOF 7
ENDMDL
MODEL 9
REMARK VINA RESULT:      -6.3      1.273      1.334
REMARK  Name = 
REMARK  7 active torsions:
REMARK  status: ('A' for Active; 'I' for Inactive)
REMARK    1  A    between atoms: C_2  and  C_3
REMARK    2  A    between atoms: C_3  and  C_4
REMARK    3  A    between atoms: C_6  and  C_7
REMARK    4  A    between atoms: N_9  and  C1*_10
REMARK    5  A    between atoms: C3*_12  and  O3*_13
REMARK    6  A    between atoms: C4*_14  and  C5*_15
REMARK    7  A    between atoms: C5*_15  and  O5*_16
REMARK                            x       y       z     vdW  Elec       q    Type
REMARK                         _______ _______ _______ _____ _____    ______ ____
ROOT
ATOM      1  C   UNL     1       2.190   5.457  19.841  0.00  0.00    +0.000 A 
ATOM      2  C   UNL     1       3.118   5.514  18.877  0.00  0.00    +0.000 A 
ATOM      3  N   UNL     1       3.225   4.569  17.874  0.00  0.00    +0.000 N 
ATOM      4  C   UNL     1       2.439   3.423  17.875  0.00  0.00    +0.000 A 
ATOM      5  O   UNL     1       2.487   2.554  17.008  0.00  0.00    +0.000 OA
ATOM      6  N   UNL     1       1.537   3.323  18.900  0.00  0.00    +0.000 N 
ATOM      7  C   UNL     1       1.254   4.300  19.812  0.00  0.00    +0.000 A 
ATOM      8  O   UNL     1       0.282   4.239  20.559  0.00  0.00    +0.000 OA
ATOM      9  H   UNL     1       0.909   2.534  18.866  0.00  0.00    +0.000 HD
ENDROOT
BRANCH   3  10
ATOM     10  C1* UNL     1       4.148   4.752  16.751  0.00  0.00    +0.000 C 
ATOM     11  C2* UNL     1       4.766   6.147  16.701  0.00  0.00    +0.000 C 
ATOM     12  C3* UNL     1       6.132   5.902  16.111  0.00  0.00    +0.000 C 
ATOM     13  C4* UNL     1       6.497   4.525  16.646  0.00  0.00    +0.000 C 
ATOM     14  O4* UNL     1       5.247   3.815  16.823  0.00  0.00    +0.000 OA
BRANCH  12  15
ATOM     15  O3* UNL     1       6.042   5.897  14.687  0.00  0.00    +0.000 OA
ATOM     16  H3* UNL     1       6.633   5.213  14.326  0.00  0.00    +0.000 HD
ENDBRANCH  12  15
BRANCH  13  17
ATOM     17  C5* UNL     1       7.220   4.602  17.997  0.00  0.00    +0.000 C 
BRANCH  17  18
ATOM     18  O5* UNL     1       8.531   4.048  17.901  0.00  0.00    +0.000 OA
ATOM     19  H5* UNL     1       9.145   4.796  17.787  0.00  0.00    +0.000 HD
ENDBRANCH  17  18
ENDBRANCH  13  17
ENDBRANCH   3  10
BRANCH   1  21
ATOM     20  C   UNL     1       1.706   7.814  20.560  0.00  0.00    +0.000 C 
ATOM     21  C   UNL     1       1.990   6.518  20.807  0.00  0.00    +0.000 C 
BRANCH  20  23
ATOM     22  N   UNL     1       1.568   8.734  18.152  0.00  0.00    +0.000 NA
ATOM     23  C   UNL     1       1.624   8.333  19.238  0.00  0.00    +0.000 C 
ENDBRANCH  20  23
BRANCH  20  24
ATOM     24  C   UNL     1       1.490   8.696  21.655  0.00  0.00    +0.000 C 
ATOM     25  N   UNL     1       1.344   9.431  22.538  0.00  0.00    +0.000 NA
ENDBRANCH  20  24
ENDBRANCH   1  21
TORSDOF 7
ENDMDL
