MODEL 1
REMARK VINA RESULT:      -7.6      0.000      0.000
REMARK  Name = 
REMARK  1 active torsions:
REMARK  status: ('A' for Active; 'I' for Inactive)
REMARK    1  A    between atoms: C_2  and  C_3
REMARK                            x       y       z     vdW  Elec       q    Type
REMARK                         _______ _______ _______ _____ _____    ______ ____
ROOT
ATOM      1  C   UNL     1       5.565   4.519  16.288  0.00  0.00    +0.000 C 
ATOM      2  C   UNL     1       4.477   4.194  17.066  0.00  0.00    +0.000 C 
ATOM      3  C   UNL     1       3.293   3.491  16.504  0.00  0.00    +0.000 C 
ATOM      4  C   UNL     1       2.232   3.091  17.239  0.00  0.00    +0.000 C 
ATOM      5  C   UNL     1       2.183   3.324  18.686  0.00  0.00    +0.000 A 
ATOM      6  C   UNL     1       1.109   2.907  19.491  0.00  0.00    +0.000 A 
ATOM      7  C   UNL     1       1.117   3.140  20.872  0.00  0.00    +0.000 A 
ATOM      8  C   UNL     1       2.207   3.756  21.467  0.00  0.00    +0.000 A 
ATOM      9  C   UNL     1       3.275   4.160  20.675  0.00  0.00    +0.000 A 
ATOM     10  C   UNL     1       3.274   3.981  19.272  0.00  0.00    +0.000 A 
ATOM     11  N   UNL     1       4.348   4.444  18.437  0.00  0.00    +0.000 N 
ATOM     12  C   UNL     1       5.244   5.247  19.244  0.00  0.00    +0.000 C 
ATOM     13  C   UNL     1       6.695   5.589  19.406  0.00  0.00    +0.000 C 
ATOM     14  C   UNL     1       7.413   5.638  18.076  0.00  0.00    +0.000 C 
ATOM     15  C   UNL     1       6.869   5.192  16.678  0.00  0.00    +0.000 C 
ATOM     16  O   UNL     1       7.670   5.408  15.756  0.00  0.00    +0.000 OA
ENDROOT
BRANCH   1  18
ATOM     17  N   UNL     1       5.387   4.002  13.562  0.00  0.00    +0.000 NA
ATOM     18  C   UNL     1       5.468   4.236  14.798  0.00  0.00    +0.000 C 
ENDBRANCH   1  18
TORSDOF 1
ENDMDL
MODEL 2
REMARK VINA RESULT:      -7.1      2.799      5.896
REMARK  Name = 
REMARK  1 active torsions:
REMARK  status: ('A' for Active; 'I' for Inactive)
REMARK    1  A    between atoms: C_2  and  C_3
REMARK                            x       y       z     vdW  Elec       q    Type
REMARK                         _______ _______ _______ _____ _____    ______ ____
ROOT
ATOM      1  C   UNL     1       2.380   5.053  19.586  0.00  0.00    +0.000 C 
ATOM      2  C   UNL     1       3.196   5.292  18.503  0.00  0.00    +0.000 C 
ATOM      3  C   UNL     1       3.617   6.668  18.128  0.00  0.00    +0.000 C 
ATOM      4  C   UNL     1       4.470   6.948  17.117  0.00  0.00    +0.000 C 
ATOM      5  C   UNL     1       5.059   5.877  16.306  0.00  0.00    +0.000 A 
ATOM      6  C   UNL     1       5.964   6.122  15.258  0.00  0.00    +0.000 A 
ATOM      7  C   UNL     1       6.512   5.063  14.523  0.00  0.00    +0.000 A 
ATOM      8  C   UNL     1       6.191   3.754  14.846  0.00  0.00    +0.000 A 
ATOM      9  C   UNL     1       5.304   3.508  15.887  0.00  0.00    +0.000 A 
ATOM     10  C   UNL     1       4.699   4.559  16.616  0.00  0.00    +0.000 A 
ATOM     11  N   UNL     1       3.740   4.318  17.659  0.00  0.00    +0.000 N 
ATOM     12  C   UNL     1       3.400   2.909  17.653  0.00  0.00    +0.000 C 
ATOM     13  C   UNL     1       3.033   1.784  18.573  0.00  0.00    +0.000 C 
ATOM     14  C   UNL     1       2.195   2.259  19.737  0.00  0.00    +0.000 C 
ATOM     15  C   UNL     1       1.877   3.736  20.149  0.00  0.00    +0.000 C 
ATOM     16  O   UNL     1       1.109   3.813  21.119  0.00  0.00    +0.000 OA
ENDROOT
BRANCH   1  18
ATOM     17  N   UNL     1       1.367   7.264  20.935  0.00  0.00    +0.000 NA
ATOM     18  C   UNL     1       1.827   6.261  20.323  0.00  0.00    +0.000 C 
ENDBRANCH   1  18
TORSDOF 1
ENDMDL
MODEL 3
REMARK VINA RESULT:      -6.8      3.493      4.548
REMARK  Name = 
REMARK  1 active torsions:
REMARK  status: ('A' for Active; 'I' for Inactive)
REMARK    1  A    between atoms: C_2  and  C_3
REMARK                            x       y       z     vdW  Elec       q    Type
REMARK                         _______ _______ _______ _____ _____    ______ ____
ROOT
ATOM      1  C   UNL     1       3.674   4.154  18.431  0.00  0.00    +0.000 C 
ATOM      2  C   UNL     1       3.214   5.433  18.647  0.00  0.00    +0.000 C 
ATOM      3  C   UNL     1       3.435   6.523  17.659  0.00  0.00    +0.000 C 
ATOM      4  C   UNL     1       2.945   7.776  17.793  0.00  0.00    +0.000 C 
ATOM      5  C   UNL     1       2.131   8.149  18.954  0.00  0.00    +0.000 A 
ATOM      6  C   UNL     1       1.586   9.434  19.124  0.00  0.00    +0.000 A 
ATOM      7  C   UNL     1       0.801   9.736  20.244  0.00  0.00    +0.000 A 
ATOM      8  C   UNL     1       0.524   8.756  21.184  0.00  0.00    +0.000 A 
ATOM      9  C   UNL     1       1.053   7.483  21.014  0.00  0.00    +0.000 A 
ATOM     10  C   UNL     1       1.887   7.161  19.918  0.00  0.00    +0.000 A 
ATOM     11  N   UNL     1       2.484   5.863  19.760  0.00  0.00    +0.000 N 
ATOM     12  C   UNL     1       2.241   5.097  20.967  0.00  0.00    +0.000 C 
ATOM     13  C   UNL     1       1.976   3.699  21.439  0.00  0.00    +0.000 C 
ATOM     14  C   UNL     1       2.722   2.676  20.615  0.00  0.00    +0.000 C 
ATOM     15  C   UNL     1       3.517   2.911  19.287  0.00  0.00    +0.000 C 
ATOM     16  O   UNL     1       4.078   1.886  18.871  0.00  0.00    +0.000 OA
ENDROOT
BRANCH   1  18
ATOM     17  N   UNL     1       5.227   3.720  16.165  0.00  0.00    +0.000 NA
ATOM     18  C   UNL     1       4.523   3.917  17.193  0.00  0.00    +0.000 C 
ENDBRANCH   1  18
TORSDOF 1
ENDMDL
MODEL 4
REMARK VINA RESULT:      -6.8      3.790      5.464
REMARK  Name = 
REMARK  1 active torsions:
REMARK  status: ('A' for Active; 'I' for Inactive)
REMARK    1  A    between atoms: C_2  and  C_3
REMARK                            x       y       z     vdW  Elec       q    Type
REMARK                         _______ _______ _______ _____ _____    ______ ____
ROOT
ATOM      1  C   UNL     1       3.035   4.169  20.003  0.00  0.00    +0.000 C 
ATOM      2  C   UNL     1       2.492   5.432  19.928  0.00  0.00    +0.000 C 
ATOM      3  C   UNL     1       1.633   5.982  21.009  0.00  0.00    +0.000 C 
ATOM      4  C   UNL     1       1.133   7.238  21.013  0.00  0.00    +0.000 C 
ATOM      5  C   UNL     1       1.424   8.171  19.920  0.00  0.00    +0.000 A 
ATOM      6  C   UNL     1       0.941   9.491  19.894  0.00  0.00    +0.000 A 
ATOM      7  C   UNL     1       1.261  10.349  18.833  0.00  0.00    +0.000 A 
ATOM      8  C   UNL     1       2.089   9.913  17.811  0.00  0.00    +0.000 A 
ATOM      9  C   UNL     1       2.576   8.611  17.840  0.00  0.00    +0.000 A 
ATOM     10  C   UNL     1       2.232   7.708  18.873  0.00  0.00    +0.000 A 
ATOM     11  N   UNL     1       2.685   6.344  18.884  0.00  0.00    +0.000 N 
ATOM     12  C   UNL     1       3.331   6.065  17.617  0.00  0.00    +0.000 C 
ATOM     13  C   UNL     1       4.455   5.273  17.019  0.00  0.00    +0.000 C 
ATOM     14  C   UNL     1       4.641   3.945  17.716  0.00  0.00    +0.000 C 
ATOM     15  C   UNL     1       3.958   3.452  19.035  0.00  0.00    +0.000 C 
ATOM     16  O   UNL     1       4.263   2.287  19.331  0.00  0.00    +0.000 OA
ENDROOT
BRANCH   1  18
ATOM     17  N   UNL     1       2.293   2.587  22.166  0.00  0.00    +0.000 NA
ATOM     18  C   UNL     1       2.630   3.305  21.185  0.00  0.00    +0.000 C 
ENDBRANCH   1  18
TORSDOF 1
ENDMDL
MODEL 5
REMARK VINA RESULT:      -6.6      2.978      5.658
REMARK  Name = 
REMARK  1 active torsions:
REMARK  status: ('A' for Active; 'I' for Inactive)
REMARK    1  A    between atoms: C_2  and  C_3
REMARK                            x       y       z     vdW  Elec       q    Type
REMARK                         _______ _______ _______ _____ _____    ______ ____
ROOT
ATOM      1  C   UNL     1       2.622   5.344  19.879  0.00  0.00    +0.000 C 
ATOM      2  C   UNL     1       3.475   4.929  18.881  0.00  0.00    +0.000 C 
ATOM      3  C   UNL     1       3.977   3.531  18.810  0.00  0.00    +0.000 C 
ATOM      4  C   UNL     1       4.760   3.059  17.815  0.00  0.00    +0.000 C 
ATOM      5  C   UNL     1       5.169   3.920  16.700  0.00  0.00    +0.000 A 
ATOM      6  C   UNL     1       5.965   3.465  15.635  0.00  0.00    +0.000 A 
ATOM      7  C   UNL     1       6.315   4.324  14.586  0.00  0.00    +0.000 A 
ATOM      8  C   UNL     1       5.849   5.630  14.570  0.00  0.00    +0.000 A 
ATOM      9  C   UNL     1       5.053   6.079  15.617  0.00  0.00    +0.000 A 
ATOM     10  C   UNL     1       4.722   5.249  16.713  0.00  0.00    +0.000 A 
ATOM     11  N   UNL     1       3.945   5.719  17.828  0.00  0.00    +0.000 N 
ATOM     12  C   UNL     1       3.776   7.152  17.696  0.00  0.00    +0.000 C 
ATOM     13  C   UNL     1       2.791   8.250  17.966  0.00  0.00    +0.000 C 
ATOM     14  C   UNL     1       2.002   8.000  19.230  0.00  0.00    +0.000 C 
ATOM     15  C   UNL     1       1.976   6.699  20.100  0.00  0.00    +0.000 C 
ATOM     16  O   UNL     1       1.277   6.812  21.118  0.00  0.00    +0.000 OA
ENDROOT
BRANCH   1  18
ATOM     17  N   UNL     1       2.033   3.521  21.895  0.00  0.00    +0.000 NA
ATOM     18  C   UNL     1       2.300   4.347  20.981  0.00  0.00    +0.000 C 
ENDBRANCH   1  18
TORSDOF 1
ENDMDL
MODEL 6
REMARK VINA RESULT:      -6.6      4.131      4.806
REMARK  Name = 
REMARK  1 active torsions:
REMARK  status: ('A' for Active; 'I' for Inactive)
REMARK    1  A    between atoms: C_2  and  C_3
REMARK                            x       y       z     vdW  Elec       q    Type
REMARK                         _______ _______ _______ _____ _____    ______ ____
ROOT
ATOM      1  C   UNL     1       3.786   6.051  17.904  0.00  0.00    +0.000 C 
ATOM      2  C   UNL     1       3.028   7.086  18.403  0.00  0.00    +0.000 C 
ATOM      3  C   UNL     1       2.882   8.373  17.673  0.00  0.00    +0.000 C 
ATOM      4  C   UNL     1       2.096   9.392  18.087  0.00  0.00    +0.000 C 
ATOM      5  C   UNL     1       1.306   9.286  19.318  0.00  0.00    +0.000 A 
ATOM      6  C   UNL     1       0.462  10.313  19.775  0.00  0.00    +0.000 A 
ATOM      7  C   UNL     1      -0.285  10.156  20.950  0.00  0.00    +0.000 A 
ATOM      8  C   UNL     1      -0.225   8.966  21.659  0.00  0.00    +0.000 A 
ATOM      9  C   UNL     1       0.601   7.946  21.204  0.00  0.00    +0.000 A 
ATOM     10  C   UNL     1       1.403   8.093  20.047  0.00  0.00    +0.000 A 
ATOM     11  N   UNL     1       2.302   7.065  19.598  0.00  0.00    +0.000 N 
ATOM     12  C   UNL     1       2.360   6.032  20.613  0.00  0.00    +0.000 C 
ATOM     13  C   UNL     1       2.504   4.548  20.774  0.00  0.00    +0.000 C 
ATOM     14  C   UNL     1       3.424   3.955  19.731  0.00  0.00    +0.000 C 
ATOM     15  C   UNL     1       4.025   4.663  18.471  0.00  0.00    +0.000 C 
ATOM     16  O   UNL     1       4.798   3.936  17.830  0.00  0.00    +0.000 OA
ENDROOT
BRANCH   1  18
ATOM     17  N   UNL     1       5.217   6.526  15.568  0.00  0.00    +0.000 NA
ATOM     18  C   UNL     1       4.569   6.311  16.627  0.00  0.00    +0.000 C 
ENDBRANCH   1  18
TORSDOF 1
ENDMDL
MODEL 7
REMARK VINA RESULT:      -6.4      1.832      2.038
REMARK  Name = 
REMARK  1 active torsions:
REMARK  status: ('A' for Active; 'I' for Inactive)
REMARK    1  A    between atoms: C_2  and  C_3
REMARK                            x       y       z     vdW  Elec       q    Type
REMARK                         _______ _______ _______ _____ _____    ______ ____
ROOT
ATOM      1  C   UNL     1       4.766   5.050  16.308  0.00  0.00    +0.000 C 
ATOM      2  C   UNL     1       4.070   4.301  17.229  0.00  0.00    +0.000 C 
ATOM      3  C   UNL     1       4.195   2.821  17.293  0.00  0.00    +0.000 C 
ATOM      4  C   UNL     1       3.586   2.050  18.221  0.00  0.00    +0.000 C 
ATOM      5  C   UNL     1       2.742   2.644  19.263  0.00  0.00    +0.000 A 
ATOM      6  C   UNL     1       2.106   1.882  20.258  0.00  0.00    +0.000 A 
ATOM      7  C   UNL     1       1.322   2.499  21.241  0.00  0.00    +0.000 A 
ATOM      8  C   UNL     1       1.193   3.879  21.262  0.00  0.00    +0.000 A 
ATOM      9  C   UNL     1       1.829   4.636  20.286  0.00  0.00    +0.000 A 
ATOM     10  C   UNL     1       2.588   4.037  19.253  0.00  0.00    +0.000 A 
ATOM     11  N   UNL     1       3.205   4.806  18.207  0.00  0.00    +0.000 N 
ATOM     12  C   UNL     1       2.744   6.175  18.311  0.00  0.00    +0.000 C 
ATOM     13  C   UNL     1       3.199   7.590  18.106  0.00  0.00    +0.000 C 
ATOM     14  C   UNL     1       4.145   7.711  16.934  0.00  0.00    +0.000 C 
ATOM     15  C   UNL     1       4.803   6.554  16.111  0.00  0.00    +0.000 C 
ATOM     16  O   UNL     1       5.490   6.965  15.163  0.00  0.00    +0.000 OA
ENDROOT
BRANCH   1  18
ATOM     17  N   UNL     1       6.269   3.672  14.417  0.00  0.00    +0.000 NA
ATOM     18  C   UNL     1       5.588   4.297  15.274  0.00  0.00    +0.000 C 
ENDBRANCH   1  18
TORSDOF 1
ENDMDL
MODEL 8
REMARK VINA RESULT:      -6.4      6.657      7.895
REMARK  Name = 
REMARK  1 active torsions:
REMARK  status: ('A' for Active; 'I' for Inactive)
REMARK    1  A    between atoms: C_2  and  C_3
REMARK                            x       y       z     vdW  Elec       q    Type
REMARK                         _______ _______ _______ _____ _____    ______ ____
ROOT
ATOM      1  C   UNL     1       0.157  11.326  20.081  0.00  0.00    +0.000 C 
ATOM      2  C   UNL     1       0.792  10.205  19.594  0.00  0.00    +0.000 C 
ATOM      3  C   UNL     1       1.438  10.190  18.254  0.00  0.00    +0.000 C 
ATOM      4  C   UNL     1       2.130   9.140  17.760  0.00  0.00    +0.000 C 
ATOM      5  C   UNL     1       2.301   7.911  18.544  0.00  0.00    +0.000 A 
ATOM      6  C   UNL     1       3.029   6.803  18.077  0.00  0.00    +0.000 A 
ATOM      7  C   UNL     1       3.177   5.658  18.870  0.00  0.00    +0.000 A 
ATOM      8  C   UNL     1       2.632   5.620  20.145  0.00  0.00    +0.000 A 
ATOM      9  C   UNL     1       1.921   6.718  20.612  0.00  0.00    +0.000 A 
ATOM     10  C   UNL     1       1.715   7.869  19.816  0.00  0.00    +0.000 A 
ATOM     11  N   UNL     1       0.935   8.989  20.269  0.00  0.00    +0.000 N 
ATOM     12  C   UNL     1       0.289   8.624  21.514  0.00  0.00    +0.000 C 
ATOM     13  C   UNL     1      -0.147   9.202  22.826  0.00  0.00    +0.000 C 
ATOM     14  C   UNL     1      -0.626  10.628  22.681  0.00  0.00    +0.000 C 
ATOM     15  C   UNL     1      -0.519  11.551  21.421  0.00  0.00    +0.000 C 
ATOM     16  O   UNL     1      -1.057  12.656  21.584  0.00  0.00    +0.000 OA
ENDROOT
BRANCH   1  18
ATOM     17  N   UNL     1      -0.061  13.512  18.377  0.00  0.00    +0.000 NA
ATOM     18  C   UNL     1       0.038  12.521  19.150  0.00  0.00    +0.000 C 
ENDBRANCH   1  18
TORSDOF 1
ENDMDL
MODEL 9
REMARK VINA RESULT:      -6.4      1.601      3.165
REMARK  Name = 
REMARK  1 active torsions:
REMARK  status: ('A' for Active; 'I' for Inactive)
REMARK    1  A    between atoms: C_2  and  C_3
REMARK                            x       y       z     vdW  Elec       q    Type
REMARK                         _______ _______ _______ _____ _____    ______ ____
ROOT
ATOM      1  C   UNL     1       6.209   5.847  16.927  0.00  0.00    +0.000 C 
ATOM      2  C   UNL     1       5.149   5.439  17.705  0.00  0.00    +0.000 C 
ATOM      3  C   UNL     1       4.747   6.177  18.931  0.00  0.00    +0.000 C 
ATOM      4  C   UNL     1       3.674   5.856  19.689  0.00  0.00    +0.000 C 
ATOM      5  C   UNL     1       2.806   4.729  19.332  0.00  0.00    +0.000 A 
ATOM      6  C   UNL     1       1.670   4.373  20.081  0.00  0.00    +0.000 A 
ATOM      7  C   UNL     1       0.863   3.297  19.689  0.00  0.00    +0.000 A 
ATOM      8  C   UNL     1       1.160   2.590  18.534  0.00  0.00    +0.000 A 
ATOM      9  C   UNL     1       2.276   2.946  17.787  0.00  0.00    +0.000 A 
ATOM     10  C   UNL     1       3.135   3.998  18.183  0.00  0.00    +0.000 A 
ATOM     11  N   UNL     1       4.323   4.339  17.448  0.00  0.00    +0.000 N 
ATOM     12  C   UNL     1       4.540   3.329  16.433  0.00  0.00    +0.000 C 
ATOM     13  C   UNL     1       5.058   3.156  15.036  0.00  0.00    +0.000 C 
ATOM     14  C   UNL     1       6.216   4.083  14.747  0.00  0.00    +0.000 C 
ATOM     15  C   UNL     1       6.745   5.260  15.634  0.00  0.00    +0.000 C 
ATOM     16  O   UNL     1       7.753   5.806  15.162  0.00  0.00    +0.000 OA
ENDROOT
BRANCH   1  18
ATOM     17  N   UNL     1       7.717   7.993  17.849  0.00  0.00    +0.000 NA
ATOM     18  C   UNL     1       7.033   7.020  17.431  0.00  0.00    +0.000 C 
ENDBRANCH   1  18
TORSDOF 1
ENDMDL
