MODEL 1
REMARK VINA RESULT:      -7.1      0.000      0.000
REMARK  Name = 
REMARK  3 active torsions:
REMARK  status: ('A' for Active; 'I' for Inactive)
REMARK    1  A    between atoms: C_2  and  C_3
REMARK    2  A    between atoms: C_3  and  C_4
REMARK    3  A    between atoms: N_24  and  C_25
REMARK                            x       y       z     vdW  Elec       q    Type
REMARK                         _______ _______ _______ _____ _____    ______ ____
ROOT
ATOM      1  C   UNL     1       7.111   4.499  14.924  0.00  0.00    +0.000 C 
ATOM      2  C   UNL     1       7.008   5.594  16.001  0.00  0.00    +0.000 C 
ATOM      3  C   UNL     1       5.578   5.953  16.382  0.00  0.00    +0.000 C 
ATOM      4  C   UNL     1       4.744   4.732  16.803  0.00  0.00    +0.000 C 
ATOM      5  C   UNL     1       4.716   3.775  15.598  0.00  0.00    +0.000 C 
ATOM      6  C   UNL     1       6.131   3.336  15.197  0.00  0.00    +0.000 C 
ATOM      7  O   UNL     1       5.319   4.118  17.976  0.00  0.00    +0.000 OA
ATOM      8  O   UNL     1       4.449   2.989  18.400  0.00  0.00    +0.000 OA
ATOM      9  C   UNL     1       3.144   3.515  18.712  0.00  0.00    +0.000 C 
ATOM     10  O   UNL     1       2.613   4.168  17.535  0.00  0.00    +0.000 OA
ATOM     11  O   UNL     1       3.470   5.273  17.155  0.00  0.00    +0.000 OA
ATOM     12  C   UNL     1       3.146   4.391  19.999  0.00  0.00    +0.000 C 
ATOM     13  C   UNL     1       1.757   5.031  20.171  0.00  0.00    +0.000 C 
ATOM     14  C   UNL     1       0.681   3.937  20.295  0.00  0.00    +0.000 C 
ATOM     15  C   UNL     1       0.967   3.107  21.555  0.00  0.00    +0.000 C 
ATOM     16  C   UNL     1       2.359   2.454  21.446  0.00  0.00    +0.000 C 
ATOM     17  C   UNL     1       3.435   3.537  21.269  0.00  0.00    +0.000 C 
ATOM     18  C   UNL     1       2.418   1.540  20.214  0.00  0.00    +0.000 C 
ATOM     19  C   UNL     1       2.129   2.356  18.942  0.00  0.00    +0.000 C 
ATOM     20  C   UNL     1       0.715   2.980  19.085  0.00  0.00    +0.000 C 
ENDROOT
BRANCH   1  21
ATOM     21  C   UNL     1       6.937   5.046  13.494  0.00  0.00    +0.000 C 
BRANCH  21  23
ATOM     22  O   UNL     1       7.308   3.369  11.810  0.00  0.00    +0.000 OA
ATOM     23  C   UNL     1       6.492   4.029  12.450  0.00  0.00    +0.000 C 
ATOM     24  N   UNL     1       5.126   3.960  12.244  0.00  0.00    +0.000 N 
ATOM     25  H   UNL     1       4.504   4.454  12.871  0.00  0.00    +0.000 HD
BRANCH  24  26
ATOM     26  C   UNL     1       4.544   3.147  11.226  0.00  0.00    +0.000 C 
ATOM     27  C   UNL     1       3.060   2.897  11.209  0.00  0.00    +0.000 C 
ATOM     28  C   UNL     1       3.689   3.758  10.156  0.00  0.00    +0.000 C 
ENDBRANCH  24  26
ENDBRANCH  21  23
ENDBRANCH   1  21
TORSDOF 3
ENDMDL
MODEL 2
REMARK VINA RESULT:      -7.1      9.131     11.832
REMARK  Name = 
REMARK  3 active torsions:
REMARK  status: ('A' for Active; 'I' for Inactive)
REMARK    1  A    between atoms: C_2  and  C_3
REMARK    2  A    between atoms: C_3  and  C_4
REMARK    3  A    between atoms: N_24  and  C_25
REMARK                            x       y       z     vdW  Elec       q    Type
REMARK                         _______ _______ _______ _____ _____    ______ ____
ROOT
ATOM      1  C   UNL     1      -0.003   9.243  20.824  0.00  0.00    +0.000 C 
ATOM      2  C   UNL     1      -0.546   9.072  22.254  0.00  0.00    +0.000 C 
ATOM      3  C   UNL     1      -0.336  10.290  23.144  0.00  0.00    +0.000 C 
ATOM      4  C   UNL     1      -0.893  11.584  22.531  0.00  0.00    +0.000 C 
ATOM      5  C   UNL     1      -0.150  11.802  21.201  0.00  0.00    +0.000 C 
ATOM      6  C   UNL     1      -0.366  10.627  20.239  0.00  0.00    +0.000 C 
ATOM      7  O   UNL     1      -2.321  11.474  22.350  0.00  0.00    +0.000 OA
ATOM      8  O   UNL     1      -2.838  12.767  21.826  0.00  0.00    +0.000 OA
ATOM      9  C   UNL     1      -2.544  13.795  22.792  0.00  0.00    +0.000 C 
ATOM     10  O   UNL     1      -1.113  13.851  22.993  0.00  0.00    +0.000 OA
ATOM     11  O   UNL     1      -0.639  12.586  23.518  0.00  0.00    +0.000 OA
ATOM     12  C   UNL     1      -3.381  13.645  24.097  0.00  0.00    +0.000 C 
ATOM     13  C   UNL     1      -2.899  14.685  25.123  0.00  0.00    +0.000 C 
ATOM     14  C   UNL     1      -3.077  16.107  24.559  0.00  0.00    +0.000 C 
ATOM     15  C   UNL     1      -4.572  16.356  24.316  0.00  0.00    +0.000 C 
ATOM     16  C   UNL     1      -5.116  15.327  23.305  0.00  0.00    +0.000 C 
ATOM     17  C   UNL     1      -4.895  13.902  23.836  0.00  0.00    +0.000 C 
ATOM     18  C   UNL     1      -4.359  15.445  21.974  0.00  0.00    +0.000 C 
ATOM     19  C   UNL     1      -2.857  15.203  22.201  0.00  0.00    +0.000 C 
ATOM     20  C   UNL     1      -2.348  16.268  23.209  0.00  0.00    +0.000 C 
ENDROOT
BRANCH   1  21
ATOM     21  C   UNL     1       1.511   8.977  20.720  0.00  0.00    +0.000 C 
BRANCH  21  23
ATOM     22  O   UNL     1       2.202   7.633  18.849  0.00  0.00    +0.000 OA
ATOM     23  C   UNL     1       1.905   7.671  20.042  0.00  0.00    +0.000 C 
ATOM     24  N   UNL     1       1.838   6.548  20.847  0.00  0.00    +0.000 N 
ATOM     25  H   UNL     1       1.685   6.659  21.842  0.00  0.00    +0.000 HD
BRANCH  24  26
ATOM     26  C   UNL     1       2.062   5.231  20.347  0.00  0.00    +0.000 C 
ATOM     27  C   UNL     1       2.163   4.065  21.294  0.00  0.00    +0.000 C 
ATOM     28  C   UNL     1       0.973   4.201  20.394  0.00  0.00    +0.000 C 
ENDBRANCH  24  26
ENDBRANCH  21  23
ENDBRANCH   1  21
TORSDOF 3
ENDMDL
MODEL 3
REMARK VINA RESULT:      -6.8      1.173      1.330
REMARK  Name = 
REMARK  3 active torsions:
REMARK  status: ('A' for Active; 'I' for Inactive)
REMARK    1  A    between atoms: C_2  and  C_3
REMARK    2  A    between atoms: C_3  and  C_4
REMARK    3  A    between atoms: N_24  and  C_25
REMARK                            x       y       z     vdW  Elec       q    Type
REMARK                         _______ _______ _______ _____ _____    ______ ____
ROOT
ATOM      1  C   UNL     1       7.332   4.651  15.042  0.00  0.00    +0.000 C 
ATOM      2  C   UNL     1       7.456   5.435  16.360  0.00  0.00    +0.000 C 
ATOM      3  C   UNL     1       6.135   5.998  16.870  0.00  0.00    +0.000 C 
ATOM      4  C   UNL     1       5.040   4.928  17.005  0.00  0.00    +0.000 C 
ATOM      5  C   UNL     1       4.822   4.335  15.601  0.00  0.00    +0.000 C 
ATOM      6  C   UNL     1       6.110   3.705  15.053  0.00  0.00    +0.000 C 
ATOM      7  O   UNL     1       5.437   3.929  17.967  0.00  0.00    +0.000 OA
ATOM      8  O   UNL     1       4.326   2.952  18.129  0.00  0.00    +0.000 OA
ATOM      9  C   UNL     1       3.167   3.662  18.608  0.00  0.00    +0.000 C 
ATOM     10  O   UNL     1       2.821   4.689  17.651  0.00  0.00    +0.000 OA
ATOM     11  O   UNL     1       3.912   5.634  17.526  0.00  0.00    +0.000 OA
ATOM     12  C   UNL     1       3.339   4.165  20.072  0.00  0.00    +0.000 C 
ATOM     13  C   UNL     1       2.126   5.034  20.448  0.00  0.00    +0.000 C 
ATOM     14  C   UNL     1       0.829   4.212  20.335  0.00  0.00    +0.000 C 
ATOM     15  C   UNL     1       0.894   3.052  21.339  0.00  0.00    +0.000 C 
ATOM     16  C   UNL     1       2.106   2.153  21.021  0.00  0.00    +0.000 C 
ATOM     17  C   UNL     1       3.401   2.978  21.079  0.00  0.00    +0.000 C 
ATOM     18  C   UNL     1       1.983   1.587  19.598  0.00  0.00    +0.000 C 
ATOM     19  C   UNL     1       1.912   2.738  18.580  0.00  0.00    +0.000 C 
ATOM     20  C   UNL     1       0.673   3.606  18.925  0.00  0.00    +0.000 C 
ENDROOT
BRANCH   1  21
ATOM     21  C   UNL     1       7.316   5.562  13.799  0.00  0.00    +0.000 C 
BRANCH  21  23
ATOM     22  O   UNL     1       7.618   5.406  11.418  0.00  0.00    +0.000 OA
ATOM     23  C   UNL     1       7.273   4.844  12.456  0.00  0.00    +0.000 C 
ATOM     24  N   UNL     1       6.767   3.558  12.495  0.00  0.00    +0.000 N 
ATOM     25  H   UNL     1       6.596   3.118  13.391  0.00  0.00    +0.000 HD
BRANCH  24  26
ATOM     26  C   UNL     1       6.549   2.783  11.317  0.00  0.00    +0.000 C 
ATOM     27  C   UNL     1       7.177   1.422  11.175  0.00  0.00    +0.000 C 
ATOM     28  C   UNL     1       5.695   1.551  11.360  0.00  0.00    +0.000 C 
ENDBRANCH  24  26
ENDBRANCH  21  23
ENDBRANCH   1  21
TORSDOF 3
ENDMDL
MODEL 4
REMARK VINA RESULT:      -6.8      5.131      7.725
REMARK  Name = 
REMARK  3 active torsions:
REMARK  status: ('A' for Active; 'I' for Inactive)
REMARK    1  A    between atoms: C_2  and  C_3
REMARK    2  A    between atoms: C_3  and  C_4
REMARK    3  A    between atoms: N_24  and  C_25
REMARK                            x       y       z     vdW  Elec       q    Type
REMARK                         _______ _______ _______ _____ _____    ______ ____
ROOT
ATOM      1  C   UNL     1       0.618   9.932  19.189  0.00  0.00    +0.000 C 
ATOM      2  C   UNL     1       1.350   9.565  17.885  0.00  0.00    +0.000 C 
ATOM      3  C   UNL     1       2.616   8.746  18.097  0.00  0.00    +0.000 C 
ATOM      4  C   UNL     1       2.377   7.477  18.931  0.00  0.00    +0.000 C 
ATOM      5  C   UNL     1       1.844   7.937  20.299  0.00  0.00    +0.000 C 
ATOM      6  C   UNL     1       0.537   8.728  20.155  0.00  0.00    +0.000 C 
ATOM      7  O   UNL     1       1.454   6.601  18.249  0.00  0.00    +0.000 OA
ATOM      8  O   UNL     1       1.303   5.353  19.045  0.00  0.00    +0.000 OA
ATOM      9  C   UNL     1       2.595   4.722  19.145  0.00  0.00    +0.000 C 
ATOM     10  O   UNL     1       3.512   5.639  19.785  0.00  0.00    +0.000 OA
ATOM     11  O   UNL     1       3.653   6.837  18.982  0.00  0.00    +0.000 OA
ATOM     12  C   UNL     1       3.087   4.151  17.782  0.00  0.00    +0.000 C 
ATOM     13  C   UNL     1       4.527   3.634  17.947  0.00  0.00    +0.000 C 
ATOM     14  C   UNL     1       4.573   2.527  19.016  0.00  0.00    +0.000 C 
ATOM     15  C   UNL     1       3.712   1.348  18.541  0.00  0.00    +0.000 C 
ATOM     16  C   UNL     1       2.255   1.813  18.341  0.00  0.00    +0.000 C 
ATOM     17  C   UNL     1       2.205   2.955  17.313  0.00  0.00    +0.000 C 
ATOM     18  C   UNL     1       1.689   2.356  19.661  0.00  0.00    +0.000 C 
ATOM     19  C   UNL     1       2.545   3.535  20.153  0.00  0.00    +0.000 C 
ATOM     20  C   UNL     1       3.995   3.021  20.358  0.00  0.00    +0.000 C 
ENDROOT
BRANCH   1  21
ATOM     21  C   UNL     1       1.220  11.165  19.889  0.00  0.00    +0.000 C 
BRANCH  21  23
ATOM     22  O   UNL     1       0.248  12.862  18.490  0.00  0.00    +0.000 OA
ATOM     23  C   UNL     1       1.253  12.443  19.060  0.00  0.00    +0.000 C 
ATOM     24  N   UNL     1       2.496  13.041  18.955  0.00  0.00    +0.000 N 
ATOM     25  H   UNL     1       3.259  12.705  19.528  0.00  0.00    +0.000 HD
BRANCH  24  26
ATOM     26  C   UNL     1       2.732  14.179  18.126  0.00  0.00    +0.000 C 
ATOM     27  C   UNL     1       2.999  15.526  18.741  0.00  0.00    +0.000 C 
ATOM     28  C   UNL     1       4.098  14.789  18.038  0.00  0.00    +0.000 C 
ENDBRANCH  24  26
ENDBRANCH  21  23
ENDBRANCH   1  21
TORSDOF 3
ENDMDL
MODEL 5
REMARK VINA RESULT:      -6.8      5.208      8.416
REMARK  Name = 
REMARK  3 active torsions:
REMARK  status: ('A' for Active; 'I' for Inactive)
REMARK    1  A    between atoms: C_2  and  C_3
REMARK    2  A    between atoms: C_3  and  C_4
REMARK    3  A    between atoms: N_24  and  C_25
REMARK                            x       y       z     vdW  Elec       q    Type
REMARK                         _______ _______ _______ _____ _____    ______ ____
ROOT
ATOM      1  C   UNL     1       0.581  10.067  19.361  0.00  0.00    +0.000 C 
ATOM      2  C   UNL     1       0.867   9.583  17.929  0.00  0.00    +0.000 C 
ATOM      3  C   UNL     1       2.164   8.797  17.791  0.00  0.00    +0.000 C 
ATOM      4  C   UNL     1       2.254   7.611  18.766  0.00  0.00    +0.000 C 
ATOM      5  C   UNL     1       2.173   8.197  20.187  0.00  0.00    +0.000 C 
ATOM      6  C   UNL     1       0.860   8.962  20.404  0.00  0.00    +0.000 C 
ATOM      7  O   UNL     1       1.194   6.668  18.500  0.00  0.00    +0.000 OA
ATOM      8  O   UNL     1       1.354   5.501  19.408  0.00  0.00    +0.000 OA
ATOM      9  C   UNL     1       2.632   4.891  19.141  0.00  0.00    +0.000 C 
ATOM     10  O   UNL     1       3.672   5.871  19.365  0.00  0.00    +0.000 OA
ATOM     11  O   UNL     1       3.502   6.988  18.457  0.00  0.00    +0.000 OA
ATOM     12  C   UNL     1       2.680   4.195  17.748  0.00  0.00    +0.000 C 
ATOM     13  C   UNL     1       4.115   3.707  17.483  0.00  0.00    +0.000 C 
ATOM     14  C   UNL     1       4.544   2.707  18.572  0.00  0.00    +0.000 C 
ATOM     15  C   UNL     1       3.620   1.483  18.507  0.00  0.00    +0.000 C 
ATOM     16  C   UNL     1       2.161   1.917  18.749  0.00  0.00    +0.000 C 
ATOM     17  C   UNL     1       1.740   2.955  17.697  0.00  0.00    +0.000 C 
ATOM     18  C   UNL     1       2.029   2.579  20.128  0.00  0.00    +0.000 C 
ATOM     19  C   UNL     1       2.953   3.806  20.211  0.00  0.00    +0.000 C 
ATOM     20  C   UNL     1       4.410   3.324  19.980  0.00  0.00    +0.000 C 
ENDROOT
BRANCH   1  21
ATOM     21  C   UNL     1       1.330  11.366  19.718  0.00  0.00    +0.000 C 
BRANCH  21  23
ATOM     22  O   UNL     1       1.306  12.914  21.559  0.00  0.00    +0.000 OA
ATOM     23  C   UNL     1       0.652  12.254  20.753  0.00  0.00    +0.000 C 
ATOM     24  N   UNL     1      -0.730  12.207  20.752  0.00  0.00    +0.000 N 
ATOM     25  H   UNL     1      -1.210  11.725  20.001  0.00  0.00    +0.000 HD
BRANCH  24  26
ATOM     26  C   UNL     1      -1.523  12.885  21.725  0.00  0.00    +0.000 C 
ATOM     27  C   UNL     1      -2.953  12.478  21.959  0.00  0.00    +0.000 C 
ATOM     28  C   UNL     1      -1.913  12.203  23.002  0.00  0.00    +0.000 C 
ENDBRANCH  24  26
ENDBRANCH  21  23
ENDBRANCH   1  21
TORSDOF 3
ENDMDL
MODEL 6
REMARK VINA RESULT:      -6.8     10.998     14.547
REMARK  Name = 
REMARK  3 active torsions:
REMARK  status: ('A' for Active; 'I' for Inactive)
REMARK    1  A    between atoms: C_2  and  C_3
REMARK    2  A    between atoms: C_3  and  C_4
REMARK    3  A    between atoms: N_24  and  C_25
REMARK                            x       y       z     vdW  Elec       q    Type
REMARK                         _______ _______ _______ _____ _____    ______ ____
ROOT
ATOM      1  C   UNL     1       7.073  11.921  25.268  0.00  0.00    +0.000 C 
ATOM      2  C   UNL     1       6.206  11.673  24.020  0.00  0.00    +0.000 C 
ATOM      3  C   UNL     1       6.413  12.698  22.912  0.00  0.00    +0.000 C 
ATOM      4  C   UNL     1       7.886  12.845  22.498  0.00  0.00    +0.000 C 
ATOM      5  C   UNL     1       8.656  13.301  23.750  0.00  0.00    +0.000 C 
ATOM      6  C   UNL     1       8.528  12.281  24.890  0.00  0.00    +0.000 C 
ATOM      7  O   UNL     1       8.382  11.596  21.974  0.00  0.00    +0.000 OA
ATOM      8  O   UNL     1       9.783  11.793  21.514  0.00  0.00    +0.000 OA
ATOM      9  C   UNL     1       9.783  12.794  20.478  0.00  0.00    +0.000 C 
ATOM     10  O   UNL     1       9.234  14.020  21.015  0.00  0.00    +0.000 OA
ATOM     11  O   UNL     1       7.865  13.804  21.439  0.00  0.00    +0.000 OA
ATOM     12  C   UNL     1       9.106  12.295  19.167  0.00  0.00    +0.000 C 
ATOM     13  C   UNL     1       9.014  13.467  18.174  0.00  0.00    +0.000 C 
ATOM     14  C   UNL     1      10.421  14.002  17.854  0.00  0.00    +0.000 C 
ATOM     15  C   UNL     1      11.230  12.886  17.178  0.00  0.00    +0.000 C 
ATOM     16  C   UNL     1      11.339  11.673  18.124  0.00  0.00    +0.000 C 
ATOM     17  C   UNL     1       9.936  11.165  18.491  0.00  0.00    +0.000 C 
ATOM     18  C   UNL     1      12.036  12.084  19.429  0.00  0.00    +0.000 C 
ATOM     19  C   UNL     1      11.241  13.207  20.117  0.00  0.00    +0.000 C 
ATOM     20  C   UNL     1      11.170  14.411  19.140  0.00  0.00    +0.000 C 
ENDROOT
BRANCH   1  21
ATOM     21  C   UNL     1       6.471  12.974  26.218  0.00  0.00    +0.000 C 
BRANCH  21  23
ATOM     22  O   UNL     1       7.619  12.724  28.317  0.00  0.00    +0.000 OA
ATOM     23  C   UNL     1       7.382  13.441  27.347  0.00  0.00    +0.000 C 
ATOM     24  N   UNL     1       7.859  14.733  27.219  0.00  0.00    +0.000 N 
ATOM     25  H   UNL     1       7.710  15.234  26.351  0.00  0.00    +0.000 HD
BRANCH  24  26
ATOM     26  C   UNL     1       8.630  15.370  28.236  0.00  0.00    +0.000 C 
ATOM     27  C   UNL     1       9.880  16.130  27.879  0.00  0.00    +0.000 C 
ATOM     28  C   UNL     1       8.661  16.865  28.348  0.00  0.00    +0.000 C 
ENDBRANCH  24  26
ENDBRANCH  21  23
ENDBRANCH   1  21
TORSDOF 3
ENDMDL
MODEL 7
REMARK VINA RESULT:      -6.8      8.510     11.273
REMARK  Name = 
REMARK  3 active torsions:
REMARK  status: ('A' for Active; 'I' for Inactive)
REMARK    1  A    between atoms: C_2  and  C_3
REMARK    2  A    between atoms: C_3  and  C_4
REMARK    3  A    between atoms: N_24  and  C_25
REMARK                            x       y       z     vdW  Elec       q    Type
REMARK                         _______ _______ _______ _____ _____    ______ ____
ROOT
ATOM      1  C   UNL     1       0.470   8.702  20.427  0.00  0.00    +0.000 C 
ATOM      2  C   UNL     1      -0.486   8.608  21.629  0.00  0.00    +0.000 C 
ATOM      3  C   UNL     1      -0.306   9.725  22.650  0.00  0.00    +0.000 C 
ATOM      4  C   UNL     1      -0.394  11.127  22.027  0.00  0.00    +0.000 C 
ATOM      5  C   UNL     1       0.730  11.220  20.979  0.00  0.00    +0.000 C 
ATOM      6  C   UNL     1       0.574  10.149  19.892  0.00  0.00    +0.000 C 
ATOM      7  O   UNL     1      -1.701  11.332  21.448  0.00  0.00    +0.000 OA
ATOM      8  O   UNL     1      -1.778  12.722  20.922  0.00  0.00    +0.000 OA
ATOM      9  C   UNL     1      -1.579  13.633  22.021  0.00  0.00    +0.000 C 
ATOM     10  O   UNL     1      -0.285  13.372  22.613  0.00  0.00    +0.000 OA
ATOM     11  O   UNL     1      -0.244  12.020  23.132  0.00  0.00    +0.000 OA
ATOM     12  C   UNL     1      -2.770  13.627  23.024  0.00  0.00    +0.000 C 
ATOM     13  C   UNL     1      -2.409  14.507  24.234  0.00  0.00    +0.000 C 
ATOM     14  C   UNL     1      -2.131  15.950  23.775  0.00  0.00    +0.000 C 
ATOM     15  C   UNL     1      -3.412  16.523  23.152  0.00  0.00    +0.000 C 
ATOM     16  C   UNL     1      -3.832  15.667  21.940  0.00  0.00    +0.000 C 
ATOM     17  C   UNL     1      -4.061  14.212  22.380  0.00  0.00    +0.000 C 
ATOM     18  C   UNL     1      -2.715  15.660  20.887  0.00  0.00    +0.000 C 
ATOM     19  C   UNL     1      -1.422  15.092  21.497  0.00  0.00    +0.000 C 
ATOM     20  C   UNL     1      -1.026  15.991  22.699  0.00  0.00    +0.000 C 
ENDROOT
BRANCH   1  21
ATOM     21  C   UNL     1       1.865   8.119  20.721  0.00  0.00    +0.000 C 
BRANCH  21  23
ATOM     22  O   UNL     1       2.326   6.597  18.916  0.00  0.00    +0.000 OA
ATOM     23  C   UNL     1       2.144   6.745  20.123  0.00  0.00    +0.000 C 
ATOM     24  N   UNL     1       2.114   5.697  21.024  0.00  0.00    +0.000 N 
ATOM     25  H   UNL     1       2.059   5.895  22.016  0.00  0.00    +0.000 HD
BRANCH  24  26
ATOM     26  C   UNL     1       2.240   4.334  20.621  0.00  0.00    +0.000 C 
ATOM     27  C   UNL     1       1.785   3.226  21.532  0.00  0.00    +0.000 C 
ATOM     28  C   UNL     1       1.026   3.524  20.274  0.00  0.00    +0.000 C 
ENDBRANCH  24  26
ENDBRANCH  21  23
ENDBRANCH   1  21
TORSDOF 3
ENDMDL
MODEL 8
REMARK VINA RESULT:      -6.7      9.124     11.701
REMARK  Name = 
REMARK  3 active torsions:
REMARK  status: ('A' for Active; 'I' for Inactive)
REMARK    1  A    between atoms: C_2  and  C_3
REMARK    2  A    between atoms: C_3  and  C_4
REMARK    3  A    between atoms: N_24  and  C_25
REMARK                            x       y       z     vdW  Elec       q    Type
REMARK                         _______ _______ _______ _____ _____    ______ ____
ROOT
ATOM      1  C   UNL     1       1.048   9.479  21.813  0.00  0.00    +0.000 C 
ATOM      2  C   UNL     1       0.985  10.586  20.746  0.00  0.00    +0.000 C 
ATOM      3  C   UNL     1      -0.404  11.180  20.554  0.00  0.00    +0.000 C 
ATOM      4  C   UNL     1      -1.026  11.688  21.866  0.00  0.00    +0.000 C 
ATOM      5  C   UNL     1      -1.126  10.476  22.809  0.00  0.00    +0.000 C 
ATOM      6  C   UNL     1       0.254   9.862  23.082  0.00  0.00    +0.000 C 
ATOM      7  O   UNL     1      -0.220  12.749  22.420  0.00  0.00    +0.000 OA
ATOM      8  O   UNL     1      -0.888  13.267  23.644  0.00  0.00    +0.000 OA
ATOM      9  C   UNL     1      -2.182  13.778  23.272  0.00  0.00    +0.000 C 
ATOM     10  O   UNL     1      -2.951  12.709  22.673  0.00  0.00    +0.000 OA
ATOM     11  O   UNL     1      -2.287  12.235  21.475  0.00  0.00    +0.000 OA
ATOM     12  C   UNL     1      -2.087  15.074  22.412  0.00  0.00    +0.000 C 
ATOM     13  C   UNL     1      -3.498  15.462  21.935  0.00  0.00    +0.000 C 
ATOM     14  C   UNL     1      -4.415  15.714  23.145  0.00  0.00    +0.000 C 
ATOM     15  C   UNL     1      -3.857  16.898  23.948  0.00  0.00    +0.000 C 
ATOM     16  C   UNL     1      -2.432  16.571  24.438  0.00  0.00    +0.000 C 
ATOM     17  C   UNL     1      -1.521  16.266  23.239  0.00  0.00    +0.000 C 
ATOM     18  C   UNL     1      -2.455  15.320  25.329  0.00  0.00    +0.000 C 
ATOM     19  C   UNL     1      -3.017  14.125  24.540  0.00  0.00    +0.000 C 
ATOM     20  C   UNL     1      -4.455  14.488  24.082  0.00  0.00    +0.000 C 
ENDROOT
BRANCH   1  21
ATOM     21  C   UNL     1       0.605   8.103  21.277  0.00  0.00    +0.000 C 
BRANCH  21  23
ATOM     22  O   UNL     1       2.177   7.862  19.473  0.00  0.00    +0.000 OA
ATOM     23  C   UNL     1       1.645   7.350  20.456  0.00  0.00    +0.000 C 
ATOM     24  N   UNL     1       1.886   6.051  20.865  0.00  0.00    +0.000 N 
ATOM     25  H   UNL     1       1.492   5.724  21.738  0.00  0.00    +0.000 HD
BRANCH  24  26
ATOM     26  C   UNL     1       2.743   5.166  20.144  0.00  0.00    +0.000 C 
ATOM     27  C   UNL     1       2.567   3.676  20.259  0.00  0.00    +0.000 C 
ATOM     28  C   UNL     1       2.221   4.378  18.980  0.00  0.00    +0.000 C 
ENDBRANCH  24  26
ENDBRANCH  21  23
ENDBRANCH   1  21
TORSDOF 3
ENDMDL
MODEL 9
REMARK VINA RESULT:      -6.6      4.887      7.807
REMARK  Name = 
REMARK  3 active torsions:
REMARK  status: ('A' for Active; 'I' for Inactive)
REMARK    1  A    between atoms: C_2  and  C_3
REMARK    2  A    between atoms: C_3  and  C_4
REMARK    3  A    between atoms: N_24  and  C_25
REMARK                            x       y       z     vdW  Elec       q    Type
REMARK                         _______ _______ _______ _____ _____    ______ ____
ROOT
ATOM      1  C   UNL     1       0.709  10.037  19.552  0.00  0.00    +0.000 C 
ATOM      2  C   UNL     1       1.185   9.011  20.596  0.00  0.00    +0.000 C 
ATOM      3  C   UNL     1       1.331   7.597  20.051  0.00  0.00    +0.000 C 
ATOM      4  C   UNL     1       2.231   7.524  18.807  0.00  0.00    +0.000 C 
ATOM      5  C   UNL     1       1.576   8.409  17.732  0.00  0.00    +0.000 C 
ATOM      6  C   UNL     1       1.447   9.864  18.205  0.00  0.00    +0.000 C 
ATOM      7  O   UNL     1       3.568   7.957  19.134  0.00  0.00    +0.000 OA
ATOM      8  O   UNL     1       4.429   7.803  17.931  0.00  0.00    +0.000 OA
ATOM      9  C   UNL     1       4.442   6.411  17.559  0.00  0.00    +0.000 C 
ATOM     10  O   UNL     1       3.085   5.989  17.285  0.00  0.00    +0.000 OA
ATOM     11  O   UNL     1       2.274   6.134  18.478  0.00  0.00    +0.000 OA
ATOM     12  C   UNL     1       5.205   5.526  18.588  0.00  0.00    +0.000 C 
ATOM     13  C   UNL     1       5.041   4.047  18.196  0.00  0.00    +0.000 C 
ATOM     14  C   UNL     1       5.612   3.806  16.786  0.00  0.00    +0.000 C 
ATOM     15  C   UNL     1       7.116   4.114  16.807  0.00  0.00    +0.000 C 
ATOM     16  C   UNL     1       7.343   5.584  17.213  0.00  0.00    +0.000 C 
ATOM     17  C   UNL     1       6.729   5.847  18.597  0.00  0.00    +0.000 C 
ATOM     18  C   UNL     1       6.648   6.521  16.215  0.00  0.00    +0.000 C 
ATOM     19  C   UNL     1       5.139   6.221  16.179  0.00  0.00    +0.000 C 
ATOM     20  C   UNL     1       4.955   4.741  15.750  0.00  0.00    +0.000 C 
ENDROOT
BRANCH   1  21
ATOM     21  C   UNL     1      -0.818  10.026  19.352  0.00  0.00    +0.000 C 
BRANCH  21  23
ATOM     22  O   UNL     1      -1.368  12.137  18.337  0.00  0.00    +0.000 OA
ATOM     23  C   UNL     1      -1.341  10.912  18.228  0.00  0.00    +0.000 C 
ATOM     24  N   UNL     1      -1.831  10.234  17.126  0.00  0.00    +0.000 N 
ATOM     25  H   UNL     1      -1.689   9.234  17.055  0.00  0.00    +0.000 HD
BRANCH  24  26
ATOM     26  C   UNL     1      -2.462  10.900  16.033  0.00  0.00    +0.000 C 
ATOM     27  C   UNL     1      -3.031  10.108  14.887  0.00  0.00    +0.000 C 
ATOM     28  C   UNL     1      -3.946  10.815  15.840  0.00  0.00    +0.000 C 
ENDBRANCH  24  26
ENDBRANCH  21  23
ENDBRANCH   1  21
TORSDOF 3
ENDMDL
