MODEL 1
REMARK VINA RESULT:      -9.2      0.000      0.000
REMARK  Name = 
REMARK  9 active torsions:
REMARK  status: ('A' for Active; 'I' for Inactive)
REMARK    1  A    between atoms: C_1  and  O_2
REMARK    2  A    between atoms: O_2  and  C_3
REMARK    3  A    between atoms: C_10  and  C_11
REMARK    4  A    between atoms: C_11  and  O_12
REMARK    5  A    between atoms: C_11  and  C_13
REMARK    6  A    between atoms: C_13  and  N_14
REMARK    7  A    between atoms: C_17  and  N_18
REMARK    8  A    between atoms: N_18  and  C_19
REMARK    9  A    between atoms: C_19  and  C_20
REMARK                            x       y       z     vdW  Elec       q    Type
REMARK                         _______ _______ _______ _____ _____    ______ ____
ROOT
ATOM      1  N   UNL     1       1.637   7.384  19.128  0.00  0.00    +0.000 NA
ATOM      2  C   UNL     1       2.430   6.646  18.132  0.00  0.00    +0.000 C 
ATOM      3  C   UNL     1       2.208   5.133  18.189  0.00  0.00    +0.000 C 
ATOM      4  C   UNL     1       2.455   4.558  19.589  0.00  0.00    +0.000 C 
ATOM      5  C   UNL     1       1.569   5.345  20.565  0.00  0.00    +0.000 C 
ATOM      6  C   UNL     1       1.841   6.845  20.489  0.00  0.00    +0.000 C 
ENDROOT
BRANCH   4   7
ATOM      7  N   UNL     1       3.897   4.598  19.895  0.00  0.00    +0.000 NA
ATOM      8  H   UNL     1       4.048   4.531  20.899  0.00  0.00    +0.000 HD
BRANCH   7   9
ATOM      9  C   UNL     1       4.655   3.535  19.235  0.00  0.00    +0.000 C 
BRANCH   9  10
ATOM     10  C   UNL     1       5.481   4.085  18.101  0.00  0.00    +0.000 A 
ATOM     11  C   UNL     1       5.234   3.668  16.781  0.00  0.00    +0.000 A 
ATOM     12  C   UNL     1       6.030   4.193  15.789  0.00  0.00    +0.000 A 
ATOM     13  O   UNL     1       5.939   3.901  14.440  0.00  0.00    +0.000 OA
ATOM     14  C   UNL     1       6.967   4.683  13.898  0.00  0.00    +0.000 A 
ATOM     15  O   UNL     1       7.244   4.723  12.711  0.00  0.00    +0.000 OA
ATOM     16  N   UNL     1       7.621   5.396  14.879  0.00  0.00    +0.000 N 
ATOM     17  C   UNL     1       7.038   5.093  16.071  0.00  0.00    +0.000 A 
ATOM     18  C   UNL     1       7.317   5.532  17.343  0.00  0.00    +0.000 A 
ATOM     19  C   UNL     1       6.519   5.013  18.358  0.00  0.00    +0.000 A 
ATOM     20  F   UNL     1       6.752   5.418  19.615  0.00  0.00    +0.000 F 
ATOM     21  H   UNL     1       8.392   6.016  14.694  0.00  0.00    +0.000 HD
ENDBRANCH   9  10
ENDBRANCH   7   9
ENDBRANCH   4   7
BRANCH   1  22
ATOM     22  C   UNL     1       1.958   8.834  19.145  0.00  0.00    +0.000 C 
BRANCH  22  23
ATOM     23  C   UNL     1       1.251   9.759  18.106  0.00  0.00    +0.000 C 
BRANCH  23  31
ATOM     24  C   UNL     1      -2.977  10.132  16.519  0.00  0.00    +0.000 A 
ATOM     25  C   UNL     1      -3.867  10.916  17.233  0.00  0.00    +0.000 A 
ATOM     26  C   UNL     1      -3.439  11.549  18.402  0.00  0.00    +0.000 A 
ATOM     27  C   UNL     1      -2.142  11.431  18.883  0.00  0.00    +0.000 A 
ATOM     28  N   UNL     1      -1.849  12.092  20.012  0.00  0.00    +0.000 NA
ATOM     29  C   UNL     1      -0.601  11.987  20.506  0.00  0.00    +0.000 A 
ATOM     30  C   UNL     1       0.398  11.250  19.908  0.00  0.00    +0.000 A 
ATOM     31  C   UNL     1       0.115  10.560  18.722  0.00  0.00    +0.000 A 
ATOM     32  C   UNL     1      -1.210  10.634  18.181  0.00  0.00    +0.000 A 
ATOM     33  C   UNL     1      -1.675   9.979  17.005  0.00  0.00    +0.000 A 
BRANCH  24  35
ATOM     34  C   UNL     1      -3.768  10.228  14.290  0.00  0.00    +0.000 C 
ATOM     35  O   UNL     1      -3.258   9.451  15.368  0.00  0.00    +0.000 OA
ENDBRANCH  24  35
ENDBRANCH  23  31
BRANCH  23  36
ATOM     36  O   UNL     1       2.092  10.692  17.433  0.00  0.00    +0.000 OA
ATOM     37  H   UNL     1       1.551  11.440  17.146  0.00  0.00    +0.000 HD
ENDBRANCH  23  36
ENDBRANCH  22  23
ENDBRANCH   1  22
TORSDOF 8
ENDMDL
MODEL 2
REMARK VINA RESULT:      -8.7      1.187      1.473
REMARK  Name = 
REMARK  9 active torsions:
REMARK  status: ('A' for Active; 'I' for Inactive)
REMARK    1  A    between atoms: C_1  and  O_2
REMARK    2  A    between atoms: O_2  and  C_3
REMARK    3  A    between atoms: C_10  and  C_11
REMARK    4  A    between atoms: C_11  and  O_12
REMARK    5  A    between atoms: C_11  and  C_13
REMARK    6  A    between atoms: C_13  and  N_14
REMARK    7  A    between atoms: C_17  and  N_18
REMARK    8  A    between atoms: N_18  and  C_19
REMARK    9  A    between atoms: C_19  and  C_20
REMARK                            x       y       z     vdW  Elec       q    Type
REMARK                         _______ _______ _______ _____ _____    ______ ____
ROOT
ATOM      1  N   UNL     1       1.517   7.932  19.289  0.00  0.00    +0.000 NA
ATOM      2  C   UNL     1       2.426   7.581  18.186  0.00  0.00    +0.000 C 
ATOM      3  C   UNL     1       2.561   6.071  17.977  0.00  0.00    +0.000 C 
ATOM      4  C   UNL     1       2.977   5.337  19.257  0.00  0.00    +0.000 C 
ATOM      5  C   UNL     1       1.965   5.718  20.347  0.00  0.00    +0.000 C 
ATOM      6  C   UNL     1       1.882   7.230  20.536  0.00  0.00    +0.000 C 
ENDROOT
BRANCH   4   7
ATOM      7  N   UNL     1       4.379   5.657  19.579  0.00  0.00    +0.000 NA
ATOM      8  H   UNL     1       4.465   5.931  20.556  0.00  0.00    +0.000 HD
BRANCH   7   9
ATOM      9  C   UNL     1       5.297   4.548  19.322  0.00  0.00    +0.000 C 
BRANCH   9  10
ATOM     10  C   UNL     1       5.595   4.425  17.849  0.00  0.00    +0.000 A 
ATOM     11  C   UNL     1       6.590   5.224  17.261  0.00  0.00    +0.000 A 
ATOM     12  C   UNL     1       6.807   5.079  15.910  0.00  0.00    +0.000 A 
ATOM     13  O   UNL     1       7.736   5.778  15.160  0.00  0.00    +0.000 OA
ATOM     14  C   UNL     1       7.531   5.257  13.876  0.00  0.00    +0.000 A 
ATOM     15  O   UNL     1       8.155   5.609  12.888  0.00  0.00    +0.000 OA
ATOM     16  N   UNL     1       6.537   4.304  13.877  0.00  0.00    +0.000 N 
ATOM     17  C   UNL     1       6.076   4.186  15.152  0.00  0.00    +0.000 A 
ATOM     18  C   UNL     1       5.096   3.382  15.680  0.00  0.00    +0.000 A 
ATOM     19  C   UNL     1       4.865   3.514  17.047  0.00  0.00    +0.000 A 
ATOM     20  F   UNL     1       3.921   2.745  17.606  0.00  0.00    +0.000 F 
ATOM     21  H   UNL     1       6.239   3.812  13.051  0.00  0.00    +0.000 HD
ENDBRANCH   9  10
ENDBRANCH   7   9
ENDBRANCH   4   7
BRANCH   1  22
ATOM     22  C   UNL     1       1.496   9.393  19.562  0.00  0.00    +0.000 C 
BRANCH  22  23
ATOM     23  C   UNL     1       0.857  10.334  18.495  0.00  0.00    +0.000 C 
BRANCH  23  31
ATOM     24  C   UNL     1      -3.282  10.254  16.651  0.00  0.00    +0.000 A 
ATOM     25  C   UNL     1      -4.284  10.970  17.284  0.00  0.00    +0.000 A 
ATOM     26  C   UNL     1      -3.991  11.674  18.453  0.00  0.00    +0.000 A 
ATOM     27  C   UNL     1      -2.720  11.695  19.013  0.00  0.00    +0.000 A 
ATOM     28  N   UNL     1      -2.560  12.414  20.134  0.00  0.00    +0.000 NA
ATOM     29  C   UNL     1      -1.341  12.443  20.704  0.00  0.00    +0.000 A 
ATOM     30  C   UNL     1      -0.242  11.789  20.191  0.00  0.00    +0.000 A 
ATOM     31  C   UNL     1      -0.386  11.040  19.014  0.00  0.00    +0.000 A 
ATOM     32  C   UNL     1      -1.675  10.971  18.394  0.00  0.00    +0.000 A 
ATOM     33  C   UNL     1      -2.003  10.241  17.217  0.00  0.00    +0.000 A 
BRANCH  24  35
ATOM     34  C   UNL     1      -2.950  10.118  14.311  0.00  0.00    +0.000 C 
ATOM     35  O   UNL     1      -3.427   9.516  15.509  0.00  0.00    +0.000 OA
ENDBRANCH  24  35
ENDBRANCH  23  31
BRANCH  23  36
ATOM     36  O   UNL     1       1.711  11.346  17.967  0.00  0.00    +0.000 OA
ATOM     37  H   UNL     1       1.294  12.205  18.113  0.00  0.00    +0.000 HD
ENDBRANCH  23  36
ENDBRANCH  22  23
ENDBRANCH   1  22
TORSDOF 8
ENDMDL
MODEL 3
REMARK VINA RESULT:      -8.4      2.210      2.767
REMARK  Name = 
REMARK  9 active torsions:
REMARK  status: ('A' for Active; 'I' for Inactive)
REMARK    1  A    between atoms: C_1  and  O_2
REMARK    2  A    between atoms: O_2  and  C_3
REMARK    3  A    between atoms: C_10  and  C_11
REMARK    4  A    between atoms: C_11  and  O_12
REMARK    5  A    between atoms: C_11  and  C_13
REMARK    6  A    between atoms: C_13  and  N_14
REMARK    7  A    between atoms: C_17  and  N_18
REMARK    8  A    between atoms: N_18  and  C_19
REMARK    9  A    between atoms: C_19  and  C_20
REMARK                            x       y       z     vdW  Elec       q    Type
REMARK                         _______ _______ _______ _____ _____    ______ ____
ROOT
ATOM      1  N   UNL     1       1.922   5.798  19.196  0.00  0.00    +0.000 NA
ATOM      2  C   UNL     1       2.049   5.044  17.939  0.00  0.00    +0.000 C 
ATOM      3  C   UNL     1       1.591   3.590  18.061  0.00  0.00    +0.000 C 
ATOM      4  C   UNL     1       2.303   2.845  19.195  0.00  0.00    +0.000 C 
ATOM      5  C   UNL     1       2.095   3.664  20.477  0.00  0.00    +0.000 C 
ATOM      6  C   UNL     1       2.588   5.099  20.315  0.00  0.00    +0.000 C 
ENDROOT
BRANCH   4   7
ATOM      7  N   UNL     1       3.714   2.618  18.831  0.00  0.00    +0.000 NA
ATOM      8  H   UNL     1       3.998   1.674  19.084  0.00  0.00    +0.000 HD
BRANCH   7   9
ATOM      9  C   UNL     1       3.980   2.820  17.407  0.00  0.00    +0.000 C 
BRANCH   9  10
ATOM     10  C   UNL     1       4.962   3.944  17.195  0.00  0.00    +0.000 A 
ATOM     11  C   UNL     1       5.610   4.531  18.295  0.00  0.00    +0.000 A 
ATOM     12  C   UNL     1       6.484   5.564  18.041  0.00  0.00    +0.000 A 
ATOM     13  O   UNL     1       7.208   6.263  18.991  0.00  0.00    +0.000 OA
ATOM     14  C   UNL     1       7.910   7.186  18.206  0.00  0.00    +0.000 A 
ATOM     15  O   UNL     1       8.682   8.018  18.655  0.00  0.00    +0.000 OA
ATOM     16  N   UNL     1       7.615   7.032  16.870  0.00  0.00    +0.000 N 
ATOM     17  C   UNL     1       6.718   6.015  16.758  0.00  0.00    +0.000 A 
ATOM     18  C   UNL     1       6.111   5.473  15.651  0.00  0.00    +0.000 A 
ATOM     19  C   UNL     1       5.226   4.425  15.889  0.00  0.00    +0.000 A 
ATOM     20  F   UNL     1       4.614   3.862  14.838  0.00  0.00    +0.000 F 
ATOM     21  H   UNL     1       8.015   7.602  16.144  0.00  0.00    +0.000 HD
ENDBRANCH   9  10
ENDBRANCH   7   9
ENDBRANCH   4   7
BRANCH   1  22
ATOM     22  C   UNL     1       2.489   7.167  19.095  0.00  0.00    +0.000 C 
BRANCH  22  23
ATOM     23  C   UNL     1       1.608   8.286  18.458  0.00  0.00    +0.000 C 
BRANCH  23  31
ATOM     24  C   UNL     1      -1.813  11.184  17.797  0.00  0.00    +0.000 A 
ATOM     25  C   UNL     1      -2.268  11.904  18.888  0.00  0.00    +0.000 A 
ATOM     26  C   UNL     1      -1.672  11.710  20.136  0.00  0.00    +0.000 A 
ATOM     27  C   UNL     1      -0.624  10.819  20.332  0.00  0.00    +0.000 A 
ATOM     28  N   UNL     1      -0.129  10.726  21.575  0.00  0.00    +0.000 NA
ATOM     29  C   UNL     1       0.880   9.864  21.795  0.00  0.00    +0.000 A 
ATOM     30  C   UNL     1       1.446   9.082  20.811  0.00  0.00    +0.000 A 
ATOM     31  C   UNL     1       0.951   9.173  19.504  0.00  0.00    +0.000 A 
ATOM     32  C   UNL     1      -0.138  10.066  19.239  0.00  0.00    +0.000 A 
ATOM     33  C   UNL     1      -0.777  10.263  17.982  0.00  0.00    +0.000 A 
BRANCH  24  35
ATOM     34  C   UNL     1      -3.649  10.837  16.343  0.00  0.00    +0.000 C 
ATOM     35  O   UNL     1      -2.305  11.267  16.524  0.00  0.00    +0.000 OA
ENDBRANCH  24  35
ENDBRANCH  23  31
BRANCH  23  36
ATOM     36  O   UNL     1       2.272   9.154  17.543  0.00  0.00    +0.000 OA
ATOM     37  H   UNL     1       1.701   9.916  17.375  0.00  0.00    +0.000 HD
ENDBRANCH  23  36
ENDBRANCH  22  23
ENDBRANCH   1  22
TORSDOF 8
ENDMDL
MODEL 4
REMARK VINA RESULT:      -8.4      2.708      9.425
REMARK  Name = 
REMARK  9 active torsions:
REMARK  status: ('A' for Active; 'I' for Inactive)
REMARK    1  A    between atoms: C_1  and  O_2
REMARK    2  A    between atoms: O_2  and  C_3
REMARK    3  A    between atoms: C_10  and  C_11
REMARK    4  A    between atoms: C_11  and  O_12
REMARK    5  A    between atoms: C_11  and  C_13
REMARK    6  A    between atoms: C_13  and  N_14
REMARK    7  A    between atoms: C_17  and  N_18
REMARK    8  A    between atoms: N_18  and  C_19
REMARK    9  A    between atoms: C_19  and  C_20
REMARK                            x       y       z     vdW  Elec       q    Type
REMARK                         _______ _______ _______ _____ _____    ______ ____
ROOT
ATOM      1  N   UNL     1       2.452   6.431  18.795  0.00  0.00    +0.000 NA
ATOM      2  C   UNL     1       2.094   7.535  17.891  0.00  0.00    +0.000 C 
ATOM      3  C   UNL     1       2.223   8.912  18.544  0.00  0.00    +0.000 C 
ATOM      4  C   UNL     1       1.424   9.020  19.847  0.00  0.00    +0.000 C 
ATOM      5  C   UNL     1       1.878   7.866  20.753  0.00  0.00    +0.000 C 
ATOM      6  C   UNL     1       1.709   6.512  20.069  0.00  0.00    +0.000 C 
ENDROOT
BRANCH   4   7
ATOM      7  N   UNL     1      -0.019   9.035  19.545  0.00  0.00    +0.000 NA
ATOM      8  H   UNL     1      -0.521   8.421  20.183  0.00  0.00    +0.000 HD
BRANCH   7   9
ATOM      9  C   UNL     1      -0.609  10.372  19.623  0.00  0.00    +0.000 C 
BRANCH   9  10
ATOM     10  C   UNL     1      -1.647  10.566  18.547  0.00  0.00    +0.000 A 
ATOM     11  C   UNL     1      -1.511   9.917  17.308  0.00  0.00    +0.000 A 
ATOM     12  C   UNL     1      -2.482  10.146  16.360  0.00  0.00    +0.000 A 
ATOM     13  O   UNL     1      -2.515   9.600  15.089  0.00  0.00    +0.000 OA
ATOM     14  C   UNL     1      -3.685  10.160  14.558  0.00  0.00    +0.000 A 
ATOM     15  O   UNL     1      -4.096   9.942  13.431  0.00  0.00    +0.000 OA
ATOM     16  N   UNL     1      -4.302  10.985  15.472  0.00  0.00    +0.000 N 
ATOM     17  C   UNL     1      -3.552  10.982  16.607  0.00  0.00    +0.000 A 
ATOM     18  C   UNL     1      -3.730  11.637  17.802  0.00  0.00    +0.000 A 
ATOM     19  C   UNL     1      -2.759  11.415  18.773  0.00  0.00    +0.000 A 
ATOM     20  F   UNL     1      -2.895  12.029  19.957  0.00  0.00    +0.000 F 
ATOM     21  H   UNL     1      -5.155  11.483  15.282  0.00  0.00    +0.000 HD
ENDBRANCH   9  10
ENDBRANCH   7   9
ENDBRANCH   4   7
BRANCH   1  22
ATOM     22  C   UNL     1       2.200   5.098  18.189  0.00  0.00    +0.000 C 
BRANCH  22  23
ATOM     23  C   UNL     1       3.274   3.983  18.384  0.00  0.00    +0.000 C 
BRANCH  23  31
ATOM     24  C   UNL     1       5.673   4.299  14.553  0.00  0.00    +0.000 A 
ATOM     25  C   UNL     1       6.956   4.812  14.636  0.00  0.00    +0.000 A 
ATOM     26  C   UNL     1       7.456   5.214  15.876  0.00  0.00    +0.000 A 
ATOM     27  C   UNL     1       6.715   5.115  17.047  0.00  0.00    +0.000 A 
ATOM     28  N   UNL     1       7.307   5.526  18.178  0.00  0.00    +0.000 NA
ATOM     29  C   UNL     1       6.608   5.450  19.326  0.00  0.00    +0.000 A 
ATOM     30  C   UNL     1       5.324   4.958  19.408  0.00  0.00    +0.000 A 
ATOM     31  C   UNL     1       4.692   4.513  18.239  0.00  0.00    +0.000 A 
ATOM     32  C   UNL     1       5.401   4.599  16.996  0.00  0.00    +0.000 A 
ATOM     33  C   UNL     1       4.903   4.218  15.717  0.00  0.00    +0.000 A 
BRANCH  24  35
ATOM     34  C   UNL     1       5.905   3.354  12.394  0.00  0.00    +0.000 C 
ATOM     35  O   UNL     1       5.055   3.875  13.410  0.00  0.00    +0.000 OA
ENDBRANCH  24  35
ENDBRANCH  23  31
BRANCH  23  36
ATOM     36  O   UNL     1       3.224   3.283  19.625  0.00  0.00    +0.000 OA
ATOM     37  H   UNL     1       3.509   2.371  19.473  0.00  0.00    +0.000 HD
ENDBRANCH  23  36
ENDBRANCH  22  23
ENDBRANCH   1  22
TORSDOF 8
ENDMDL
MODEL 5
REMARK VINA RESULT:      -8.3      3.109      9.559
REMARK  Name = 
REMARK  9 active torsions:
REMARK  status: ('A' for Active; 'I' for Inactive)
REMARK    1  A    between atoms: C_1  and  O_2
REMARK    2  A    between atoms: O_2  and  C_3
REMARK    3  A    between atoms: C_10  and  C_11
REMARK    4  A    between atoms: C_11  and  O_12
REMARK    5  A    between atoms: C_11  and  C_13
REMARK    6  A    between atoms: C_13  and  N_14
REMARK    7  A    between atoms: C_17  and  N_18
REMARK    8  A    between atoms: N_18  and  C_19
REMARK    9  A    between atoms: C_19  and  C_20
REMARK                            x       y       z     vdW  Elec       q    Type
REMARK                         _______ _______ _______ _____ _____    ______ ____
ROOT
ATOM      1  N   UNL     1       1.563   8.910  20.717  0.00  0.00    +0.000 NA
ATOM      2  C   UNL     1       1.177  10.098  19.940  0.00  0.00    +0.000 C 
ATOM      3  C   UNL     1       0.991  11.347  20.804  0.00  0.00    +0.000 C 
ATOM      4  C   UNL     1      -0.002  11.123  21.950  0.00  0.00    +0.000 C 
ATOM      5  C   UNL     1       0.484   9.899  22.738  0.00  0.00    +0.000 C 
ATOM      6  C   UNL     1       0.633   8.673  21.840  0.00  0.00    +0.000 C 
ENDROOT
BRANCH   4   7
ATOM      7  N   UNL     1      -1.368  11.005  21.407  0.00  0.00    +0.000 NA
ATOM      8  H   UNL     1      -2.024  10.769  22.148  0.00  0.00    +0.000 HD
BRANCH   7   9
ATOM      9  C   UNL     1      -1.831  12.223  20.743  0.00  0.00    +0.000 C 
BRANCH   9  10
ATOM     10  C   UNL     1      -2.583  11.896  19.478  0.00  0.00    +0.000 A 
ATOM     11  C   UNL     1      -1.909  11.334  18.381  0.00  0.00    +0.000 A 
ATOM     12  C   UNL     1      -2.645  11.071  17.248  0.00  0.00    +0.000 A 
ATOM     13  O   UNL     1      -2.157  10.525  16.075  0.00  0.00    +0.000 OA
ATOM     14  C   UNL     1      -3.302  10.484  15.269  0.00  0.00    +0.000 A 
ATOM     15  O   UNL     1      -3.318  10.066  14.124  0.00  0.00    +0.000 OA
ATOM     16  N   UNL     1      -4.401  10.977  15.939  0.00  0.00    +0.000 N 
ATOM     17  C   UNL     1      -3.996  11.349  17.183  0.00  0.00    +0.000 A 
ATOM     18  C   UNL     1      -4.700  11.896  18.229  0.00  0.00    +0.000 A 
ATOM     19  C   UNL     1      -3.970  12.165  19.383  0.00  0.00    +0.000 A 
ATOM     20  F   UNL     1      -4.617  12.695  20.432  0.00  0.00    +0.000 F 
ATOM     21  H   UNL     1      -5.319  11.035  15.531  0.00  0.00    +0.000 HD
ENDBRANCH   9  10
ENDBRANCH   7   9
ENDBRANCH   4   7
BRANCH   1  22
ATOM     22  C   UNL     1       1.615   7.680  19.884  0.00  0.00    +0.000 C 
BRANCH  22  23
ATOM     23  C   UNL     1       2.448   7.717  18.566  0.00  0.00    +0.000 C 
BRANCH  23  31
ATOM     24  C   UNL     1       6.481   6.454  16.929  0.00  0.00    +0.000 A 
ATOM     25  C   UNL     1       6.638   5.133  16.551  0.00  0.00    +0.000 A 
ATOM     26  C   UNL     1       5.568   4.246  16.690  0.00  0.00    +0.000 A 
ATOM     27  C   UNL     1       4.335   4.639  17.193  0.00  0.00    +0.000 A 
ATOM     28  N   UNL     1       3.381   3.699  17.271  0.00  0.00    +0.000 NA
ATOM     29  C   UNL     1       2.179   4.050  17.764  0.00  0.00    +0.000 A 
ATOM     30  C   UNL     1       1.866   5.327  18.177  0.00  0.00    +0.000 A 
ATOM     31  C   UNL     1       2.845   6.327  18.092  0.00  0.00    +0.000 A 
ATOM     32  C   UNL     1       4.142   5.981  17.592  0.00  0.00    +0.000 A 
ATOM     33  C   UNL     1       5.254   6.861  17.464  0.00  0.00    +0.000 A 
BRANCH  24  35
ATOM     34  C   UNL     1       8.100   7.748  18.075  0.00  0.00    +0.000 C 
ATOM     35  O   UNL     1       7.440   7.426  16.856  0.00  0.00    +0.000 OA
ENDBRANCH  24  35
ENDBRANCH  23  31
BRANCH  23  36
ATOM     36  O   UNL     1       1.829   8.365  17.458  0.00  0.00    +0.000 OA
ATOM     37  H   UNL     1       1.797   9.314  17.638  0.00  0.00    +0.000 HD
ENDBRANCH  23  36
ENDBRANCH  22  23
ENDBRANCH   1  22
TORSDOF 8
ENDMDL
MODEL 6
REMARK VINA RESULT:      -8.2      3.535      5.444
REMARK  Name = 
REMARK  9 active torsions:
REMARK  status: ('A' for Active; 'I' for Inactive)
REMARK    1  A    between atoms: C_1  and  O_2
REMARK    2  A    between atoms: O_2  and  C_3
REMARK    3  A    between atoms: C_10  and  C_11
REMARK    4  A    between atoms: C_11  and  O_12
REMARK    5  A    between atoms: C_11  and  C_13
REMARK    6  A    between atoms: C_13  and  N_14
REMARK    7  A    between atoms: C_17  and  N_18
REMARK    8  A    between atoms: N_18  and  C_19
REMARK    9  A    between atoms: C_19  and  C_20
REMARK                            x       y       z     vdW  Elec       q    Type
REMARK                         _______ _______ _______ _____ _____    ______ ____
ROOT
ATOM      1  N   UNL     1      -0.184  11.553  19.925  0.00  0.00    +0.000 NA
ATOM      2  C   UNL     1       1.281  11.650  19.818  0.00  0.00    +0.000 C 
ATOM      3  C   UNL     1       1.804  11.321  18.418  0.00  0.00    +0.000 C 
ATOM      4  C   UNL     1       1.330   9.950  17.924  0.00  0.00    +0.000 C 
ATOM      5  C   UNL     1      -0.201   9.936  18.025  0.00  0.00    +0.000 C 
ATOM      6  C   UNL     1      -0.676  10.246  19.442  0.00  0.00    +0.000 C 
ENDROOT
BRANCH   4   7
ATOM      7  N   UNL     1       2.008   8.886  18.687  0.00  0.00    +0.000 NA
ATOM      8  H   UNL     1       1.325   8.300  19.162  0.00  0.00    +0.000 HD
BRANCH   7   9
ATOM      9  C   UNL     1       2.858   8.033  17.855  0.00  0.00    +0.000 C 
BRANCH   9  10
ATOM     10  C   UNL     1       2.942   6.639  18.423  0.00  0.00    +0.000 A 
ATOM     11  C   UNL     1       2.298   6.329  19.632  0.00  0.00    +0.000 A 
ATOM     12  C   UNL     1       2.424   5.043  20.109  0.00  0.00    +0.000 A 
ATOM     13  O   UNL     1       1.866   4.556  21.277  0.00  0.00    +0.000 OA
ATOM     14  C   UNL     1       2.307   3.226  21.282  0.00  0.00    +0.000 A 
ATOM     15  O   UNL     1       2.040   2.421  22.159  0.00  0.00    +0.000 OA
ATOM     16  N   UNL     1       3.078   2.952  20.175  0.00  0.00    +0.000 N 
ATOM     17  C   UNL     1       3.157   4.090  19.432  0.00  0.00    +0.000 A 
ATOM     18  C   UNL     1       3.803   4.343  18.247  0.00  0.00    +0.000 A 
ATOM     19  C   UNL     1       3.684   5.638  17.749  0.00  0.00    +0.000 A 
ATOM     20  F   UNL     1       4.294   5.929  16.591  0.00  0.00    +0.000 F 
ATOM     21  H   UNL     1       3.492   2.052  19.995  0.00  0.00    +0.000 HD
ENDBRANCH   9  10
ENDBRANCH   7   9
ENDBRANCH   4   7
BRANCH   1  22
ATOM     22  C   UNL     1      -0.665  11.750  21.316  0.00  0.00    +0.000 C 
BRANCH  22  23
ATOM     23  C   UNL     1      -1.311  13.121  21.687  0.00  0.00    +0.000 C 
BRANCH  23  31
ATOM     24  C   UNL     1      -4.993  12.331  19.167  0.00  0.00    +0.000 A 
ATOM     25  C   UNL     1      -6.210  12.230  19.818  0.00  0.00    +0.000 A 
ATOM     26  C   UNL     1      -6.260  12.366  21.207  0.00  0.00    +0.000 A 
ATOM     27  C   UNL     1      -5.127  12.607  21.973  0.00  0.00    +0.000 A 
ATOM     28  N   UNL     1      -5.303  12.726  23.298  0.00  0.00    +0.000 NA
ATOM     29  C   UNL     1      -4.221  12.951  24.066  0.00  0.00    +0.000 A 
ATOM     30  C   UNL     1      -2.943  13.083  23.567  0.00  0.00    +0.000 A 
ATOM     31  C   UNL     1      -2.740  12.972  22.185  0.00  0.00    +0.000 A 
ATOM     32  C   UNL     1      -3.868  12.712  21.341  0.00  0.00    +0.000 A 
ATOM     33  C   UNL     1      -3.839  12.546  19.926  0.00  0.00    +0.000 A 
BRANCH  24  35
ATOM     34  C   UNL     1      -4.246  10.979  17.373  0.00  0.00    +0.000 C 
ATOM     35  O   UNL     1      -4.796  12.213  17.819  0.00  0.00    +0.000 OA
ENDBRANCH  24  35
ENDBRANCH  23  31
BRANCH  23  36
ATOM     36  O   UNL     1      -0.616  13.891  22.664  0.00  0.00    +0.000 OA
ATOM     37  H   UNL     1      -0.391  14.748  22.276  0.00  0.00    +0.000 HD
ENDBRANCH  23  36
ENDBRANCH  22  23
ENDBRANCH   1  22
TORSDOF 8
ENDMDL
MODEL 7
REMARK VINA RESULT:      -8.2      3.005      4.548
REMARK  Name = 
REMARK  9 active torsions:
REMARK  status: ('A' for Active; 'I' for Inactive)
REMARK    1  A    between atoms: C_1  and  O_2
REMARK    2  A    between atoms: O_2  and  C_3
REMARK    3  A    between atoms: C_10  and  C_11
REMARK    4  A    between atoms: C_11  and  O_12
REMARK    5  A    between atoms: C_11  and  C_13
REMARK    6  A    between atoms: C_13  and  N_14
REMARK    7  A    between atoms: C_17  and  N_18
REMARK    8  A    between atoms: N_18  and  C_19
REMARK    9  A    between atoms: C_19  and  C_20
REMARK                            x       y       z     vdW  Elec       q    Type
REMARK                         _______ _______ _______ _____ _____    ______ ____
ROOT
ATOM      1  N   UNL     1       0.343   9.966  19.547  0.00  0.00    +0.000 NA
ATOM      2  C   UNL     1       0.211   9.228  20.814  0.00  0.00    +0.000 C 
ATOM      3  C   UNL     1       1.504   8.529  21.239  0.00  0.00    +0.000 C 
ATOM      4  C   UNL     1       2.057   7.606  20.148  0.00  0.00    +0.000 C 
ATOM      5  C   UNL     1       2.207   8.450  18.874  0.00  0.00    +0.000 C 
ATOM      6  C   UNL     1       0.888   9.108  18.476  0.00  0.00    +0.000 C 
ENDROOT
BRANCH   4   7
ATOM      7  N   UNL     1       1.185   6.426  20.007  0.00  0.00    +0.000 NA
ATOM      8  H   UNL     1       0.836   6.355  19.053  0.00  0.00    +0.000 HD
BRANCH   7   9
ATOM      9  C   UNL     1       1.853   5.172  20.355  0.00  0.00    +0.000 C 
BRANCH   9  10
ATOM     10  C   UNL     1       2.922   4.832  19.347  0.00  0.00    +0.000 A 
ATOM     11  C   UNL     1       4.279   4.981  19.679  0.00  0.00    +0.000 A 
ATOM     12  C   UNL     1       5.208   4.670  18.713  0.00  0.00    +0.000 A 
ATOM     13  O   UNL     1       6.582   4.756  18.854  0.00  0.00    +0.000 OA
ATOM     14  C   UNL     1       7.035   4.341  17.595  0.00  0.00    +0.000 A 
ATOM     15  O   UNL     1       8.211   4.270  17.281  0.00  0.00    +0.000 OA
ATOM     16  N   UNL     1       5.981   4.026  16.765  0.00  0.00    +0.000 N 
ATOM     17  C   UNL     1       4.830   4.231  17.460  0.00  0.00    +0.000 A 
ATOM     18  C   UNL     1       3.517   4.068  17.088  0.00  0.00    +0.000 A 
ATOM     19  C   UNL     1       2.564   4.375  18.055  0.00  0.00    +0.000 A 
ATOM     20  F   UNL     1       1.270   4.225  17.738  0.00  0.00    +0.000 F 
ATOM     21  H   UNL     1       6.098   3.709  15.817  0.00  0.00    +0.000 HD
ENDBRANCH   9  10
ENDBRANCH   7   9
ENDBRANCH   4   7
BRANCH   1  22
ATOM     22  C   UNL     1      -0.951  10.531  19.084  0.00  0.00    +0.000 C 
BRANCH  22  23
ATOM     23  C   UNL     1      -1.072  12.080  18.944  0.00  0.00    +0.000 C 
BRANCH  23  31
ATOM     24  C   UNL     1      -3.339  12.809  22.799  0.00  0.00    +0.000 A 
ATOM     25  C   UNL     1      -2.692  13.505  23.806  0.00  0.00    +0.000 A 
ATOM     26  C   UNL     1      -1.382  13.945  23.604  0.00  0.00    +0.000 A 
ATOM     27  C   UNL     1      -0.693  13.718  22.420  0.00  0.00    +0.000 A 
ATOM     28  N   UNL     1       0.558  14.197  22.343  0.00  0.00    +0.000 NA
ATOM     29  C   UNL     1       1.252  13.983  21.210  0.00  0.00    +0.000 A 
ATOM     30  C   UNL     1       0.745  13.313  20.117  0.00  0.00    +0.000 A 
ATOM     31  C   UNL     1      -0.564  12.815  20.175  0.00  0.00    +0.000 A 
ATOM     32  C   UNL     1      -1.323  13.007  21.374  0.00  0.00    +0.000 A 
ATOM     33  C   UNL     1      -2.650  12.547  21.611  0.00  0.00    +0.000 A 
BRANCH  24  35
ATOM     34  C   UNL     1      -5.587  13.167  23.450  0.00  0.00    +0.000 C 
ATOM     35  O   UNL     1      -4.612  12.314  22.861  0.00  0.00    +0.000 OA
ENDBRANCH  24  35
ENDBRANCH  23  31
BRANCH  23  36
ATOM     36  O   UNL     1      -0.410  12.656  17.821  0.00  0.00    +0.000 OA
ATOM     37  H   UNL     1      -1.073  12.864  17.149  0.00  0.00    +0.000 HD
ENDBRANCH  23  36
ENDBRANCH  22  23
ENDBRANCH   1  22
TORSDOF 8
ENDMDL
MODEL 8
REMARK VINA RESULT:      -8.2      3.288      4.175
REMARK  Name = 
REMARK  9 active torsions:
REMARK  status: ('A' for Active; 'I' for Inactive)
REMARK    1  A    between atoms: C_1  and  O_2
REMARK    2  A    between atoms: O_2  and  C_3
REMARK    3  A    between atoms: C_10  and  C_11
REMARK    4  A    between atoms: C_11  and  O_12
REMARK    5  A    between atoms: C_11  and  C_13
REMARK    6  A    between atoms: C_13  and  N_14
REMARK    7  A    between atoms: C_17  and  N_18
REMARK    8  A    between atoms: N_18  and  C_19
REMARK    9  A    between atoms: C_19  and  C_20
REMARK                            x       y       z     vdW  Elec       q    Type
REMARK                         _______ _______ _______ _____ _____    ______ ____
ROOT
ATOM      1  N   UNL     1       1.522   5.530  20.344  0.00  0.00    +0.000 NA
ATOM      2  C   UNL     1       1.861   5.284  18.934  0.00  0.00    +0.000 C 
ATOM      3  C   UNL     1       1.461   3.887  18.455  0.00  0.00    +0.000 C 
ATOM      4  C   UNL     1       2.041   2.776  19.338  0.00  0.00    +0.000 C 
ATOM      5  C   UNL     1       1.615   3.076  20.782  0.00  0.00    +0.000 C 
ATOM      6  C   UNL     1       2.056   4.470  21.223  0.00  0.00    +0.000 C 
ENDROOT
BRANCH   4   7
ATOM      7  N   UNL     1       3.499   2.689  19.131  0.00  0.00    +0.000 NA
ATOM      8  H   UNL     1       3.866   1.839  19.554  0.00  0.00    +0.000 HD
BRANCH   7   9
ATOM      9  C   UNL     1       3.882   2.712  17.719  0.00  0.00    +0.000 C 
BRANCH   9  10
ATOM     10  C   UNL     1       4.823   3.855  17.435  0.00  0.00    +0.000 A 
ATOM     11  C   UNL     1       5.564   4.436  18.478  0.00  0.00    +0.000 A 
ATOM     12  C   UNL     1       6.395   5.486  18.161  0.00  0.00    +0.000 A 
ATOM     13  O   UNL     1       7.195   6.182  19.049  0.00  0.00    +0.000 OA
ATOM     14  C   UNL     1       7.807   7.128  18.217  0.00  0.00    +0.000 A 
ATOM     15  O   UNL     1       8.605   7.964  18.605  0.00  0.00    +0.000 OA
ATOM     16  N   UNL     1       7.389   6.989  16.912  0.00  0.00    +0.000 N 
ATOM     17  C   UNL     1       6.500   5.959  16.868  0.00  0.00    +0.000 A 
ATOM     18  C   UNL     1       5.800   5.424  15.815  0.00  0.00    +0.000 A 
ATOM     19  C   UNL     1       4.957   4.359  16.118  0.00  0.00    +0.000 A 
ATOM     20  F   UNL     1       4.257   3.801  15.120  0.00  0.00    +0.000 F 
ATOM     21  H   UNL     1       7.712   7.575  16.160  0.00  0.00    +0.000 HD
ENDBRANCH   9  10
ENDBRANCH   7   9
ENDBRANCH   4   7
BRANCH   1  22
ATOM     22  C   UNL     1       2.031   6.840  20.828  0.00  0.00    +0.000 C 
BRANCH  22  23
ATOM     23  C   UNL     1       0.992   7.935  21.223  0.00  0.00    +0.000 C 
BRANCH  23  31
ATOM     24  C   UNL     1      -0.537  12.111  22.094  0.00  0.00    +0.000 A 
ATOM     25  C   UNL     1      -0.410  13.065  21.099  0.00  0.00    +0.000 A 
ATOM     26  C   UNL     1       0.180  12.714  19.883  0.00  0.00    +0.000 A 
ATOM     27  C   UNL     1       0.647  11.433  19.623  0.00  0.00    +0.000 A 
ATOM     28  N   UNL     1       1.189  11.216  18.415  0.00  0.00    +0.000 NA
ATOM     29  C   UNL     1       1.658   9.985  18.139  0.00  0.00    +0.000 A 
ATOM     30  C   UNL     1       1.599   8.929  19.022  0.00  0.00    +0.000 A 
ATOM     31  C   UNL     1       1.027   9.132  20.285  0.00  0.00    +0.000 A 
ATOM     32  C   UNL     1       0.537  10.437  20.619  0.00  0.00    +0.000 A 
ATOM     33  C   UNL     1      -0.047  10.823  21.859  0.00  0.00    +0.000 A 
BRANCH  24  35
ATOM     34  C   UNL     1      -2.005  13.395  23.437  0.00  0.00    +0.000 C 
ATOM     35  O   UNL     1      -1.085  12.314  23.330  0.00  0.00    +0.000 OA
ENDBRANCH  24  35
ENDBRANCH  23  31
BRANCH  23  36
ATOM     36  O   UNL     1      -0.366   7.508  21.290  0.00  0.00    +0.000 OA
ATOM     37  H   UNL     1      -0.615   7.143  20.430  0.00  0.00    +0.000 HD
ENDBRANCH  23  36
ENDBRANCH  22  23
ENDBRANCH   1  22
TORSDOF 8
ENDMDL
MODEL 9
REMARK VINA RESULT:      -8.1      4.313      9.340
REMARK  Name = 
REMARK  9 active torsions:
REMARK  status: ('A' for Active; 'I' for Inactive)
REMARK    1  A    between atoms: C_1  and  O_2
REMARK    2  A    between atoms: O_2  and  C_3
REMARK    3  A    between atoms: C_10  and  C_11
REMARK    4  A    between atoms: C_11  and  O_12
REMARK    5  A    between atoms: C_11  and  C_13
REMARK    6  A    between atoms: C_13  and  N_14
REMARK    7  A    between atoms: C_17  and  N_18
REMARK    8  A    between atoms: N_18  and  C_19
REMARK    9  A    between atoms: C_19  and  C_20
REMARK                            x       y       z     vdW  Elec       q    Type
REMARK                         _______ _______ _______ _____ _____    ______ ____
ROOT
ATOM      1  N   UNL     1       0.580   9.615  19.099  0.00  0.00    +0.000 NA
ATOM      2  C   UNL     1       0.871  10.819  19.895  0.00  0.00    +0.000 C 
ATOM      3  C   UNL     1      -0.376  11.648  20.207  0.00  0.00    +0.000 C 
ATOM      4  C   UNL     1      -1.158  12.028  18.944  0.00  0.00    +0.000 C 
ATOM      5  C   UNL     1      -1.461  10.726  18.190  0.00  0.00    +0.000 C 
ATOM      6  C   UNL     1      -0.186   9.945  17.880  0.00  0.00    +0.000 C 
ENDROOT
BRANCH   4   7
ATOM      7  N   UNL     1      -0.397  13.027  18.171  0.00  0.00    +0.000 NA
ATOM      8  H   UNL     1      -0.817  13.160  17.254  0.00  0.00    +0.000 HD
BRANCH   7   9
ATOM      9  C   UNL     1      -0.308  14.326  18.838  0.00  0.00    +0.000 C 
BRANCH   9  10
ATOM     10  C   UNL     1       1.079  14.904  18.711  0.00  0.00    +0.000 A 
ATOM     11  C   UNL     1       2.163  14.071  18.386  0.00  0.00    +0.000 A 
ATOM     12  C   UNL     1       3.408  14.653  18.299  0.00  0.00    +0.000 A 
ATOM     13  O   UNL     1       4.588  13.997  17.994  0.00  0.00    +0.000 OA
ATOM     14  C   UNL     1       5.525  15.036  18.049  0.00  0.00    +0.000 A 
ATOM     15  O   UNL     1       6.719  14.891  17.844  0.00  0.00    +0.000 OA
ATOM     16  N   UNL     1       4.924  16.235  18.365  0.00  0.00    +0.000 N 
ATOM     17  C   UNL     1       3.593  16.002  18.524  0.00  0.00    +0.000 A 
ATOM     18  C   UNL     1       2.565  16.856  18.843  0.00  0.00    +0.000 A 
ATOM     19  C   UNL     1       1.299  16.285  18.932  0.00  0.00    +0.000 A 
ATOM     20  F   UNL     1       0.265  17.082  19.235  0.00  0.00    +0.000 F 
ATOM     21  H   UNL     1       5.428  17.101  18.455  0.00  0.00    +0.000 HD
ENDBRANCH   9  10
ENDBRANCH   7   9
ENDBRANCH   4   7
BRANCH   1  22
ATOM     22  C   UNL     1       1.813   8.890  18.697  0.00  0.00    +0.000 C 
BRANCH  22  23
ATOM     23  C   UNL     1       2.016   7.434  19.218  0.00  0.00    +0.000 C 
BRANCH  23  31
ATOM     24  C   UNL     1       2.381   2.920  19.040  0.00  0.00    +0.000 A 
ATOM     25  C   UNL     1       3.309   2.382  18.165  0.00  0.00    +0.000 A 
ATOM     26  C   UNL     1       4.083   3.235  17.376  0.00  0.00    +0.000 A 
ATOM     27  C   UNL     1       3.966   4.617  17.435  0.00  0.00    +0.000 A 
ATOM     28  N   UNL     1       4.771   5.331  16.633  0.00  0.00    +0.000 NA
ATOM     29  C   UNL     1       4.672   6.673  16.663  0.00  0.00    +0.000 A 
ATOM     30  C   UNL     1       3.802   7.357  17.484  0.00  0.00    +0.000 A 
ATOM     31  C   UNL     1       2.960   6.630  18.337  0.00  0.00    +0.000 A 
ATOM     32  C   UNL     1       3.026   5.199  18.314  0.00  0.00    +0.000 A 
ATOM     33  C   UNL     1       2.230   4.310  19.092  0.00  0.00    +0.000 A 
BRANCH  24  35
ATOM     34  C   UNL     1       1.277   2.795  21.131  0.00  0.00    +0.000 C 
ATOM     35  O   UNL     1       1.553   2.209  19.864  0.00  0.00    +0.000 OA
ENDBRANCH  24  35
ENDBRANCH  23  31
BRANCH  23  36
ATOM     36  O   UNL     1       2.500   7.313  20.553  0.00  0.00    +0.000 OA
ATOM     37  H   UNL     1       1.830   6.859  21.081  0.00  0.00    +0.000 HD
ENDBRANCH  23  36
ENDBRANCH  22  23
ENDBRANCH   1  22
TORSDOF 8
ENDMDL
