MODEL 1
REMARK VINA RESULT:      -8.0      0.000      0.000
REMARK  Name = 
REMARK  4 active torsions:
REMARK  status: ('A' for Active; 'I' for Inactive)
REMARK    1  A    between atoms: C_2  and  C_21
REMARK    2  A    between atoms: N_3  and  C_4
REMARK    3  A    between atoms: C_7  and  N_8
REMARK    4  A    between atoms: C_9  and  C_11
REMARK                            x       y       z     vdW  Elec       q    Type
REMARK                         _______ _______ _______ _____ _____    ______ ____
ROOT
ATOM      1  C   UNL     1       2.089   8.168  18.992  0.00  0.00    +0.000 A 
ATOM      2  C   UNL     1       1.825   7.892  20.328  0.00  0.00    +0.000 A 
ATOM      3  C   UNL     1       0.928   8.675  21.054  0.00  0.00    +0.000 A 
ATOM      4  C   UNL     1       0.282   9.766  20.473  0.00  0.00    +0.000 A 
ATOM      5  C   UNL     1       0.528  10.040  19.125  0.00  0.00    +0.000 A 
ATOM      6  C   UNL     1       1.445   9.259  18.396  0.00  0.00    +0.000 A 
ENDROOT
BRANCH   1   9
ATOM      7  O   UNL     1       2.092   5.254  18.543  0.00  0.00    +0.000 OA
ATOM      8  C   UNL     1       2.936   6.012  18.078  0.00  0.00    +0.000 C 
ATOM      9  N   UNL     1       2.978   7.393  18.216  0.00  0.00    +0.000 N 
ATOM     10  H   UNL     1       3.611   7.901  17.615  0.00  0.00    +0.000 HD
BRANCH   8  11
ATOM     11  C   UNL     1       3.987   5.420  17.211  0.00  0.00    +0.000 A 
ATOM     12  C   UNL     1       4.810   6.291  16.483  0.00  0.00    +0.000 A 
ATOM     13  C   UNL     1       5.811   5.784  15.658  0.00  0.00    +0.000 A 
ATOM     14  C   UNL     1       5.984   4.406  15.546  0.00  0.00    +0.000 A 
ATOM     15  C   UNL     1       5.152   3.532  16.249  0.00  0.00    +0.000 A 
ATOM     16  C   UNL     1       4.148   4.036  17.079  0.00  0.00    +0.000 A 
ENDBRANCH   8  11
ENDBRANCH   1   9
BRANCH   4  17
ATOM     17  N   UNL     1      -0.609  10.592  21.204  0.00  0.00    +0.000 N 
ATOM     18  C   UNL     1      -0.241  11.806  21.768  0.00  0.00    +0.000 C 
ATOM     19  O   UNL     1       0.845  12.363  21.637  0.00  0.00    +0.000 OA
ATOM     20  H   UNL     1      -1.591  10.350  21.173  0.00  0.00    +0.000 HD
BRANCH  18  21
ATOM     21  C   UNL     1      -1.259  12.540  22.556  0.00  0.00    +0.000 A 
ATOM     22  C   UNL     1      -0.959  13.875  22.892  0.00  0.00    +0.000 A 
ATOM     23  C   UNL     1      -1.788  14.599  23.746  0.00  0.00    +0.000 A 
ATOM     24  C   UNL     1      -2.919  13.985  24.267  0.00  0.00    +0.000 A 
ATOM     25  F   UNL     1      -3.700  14.666  25.115  0.00  0.00    +0.000 F 
ATOM     26  C   UNL     1      -3.226  12.668  23.930  0.00  0.00    +0.000 A 
ATOM     27  F   UNL     1      -4.310  12.082  24.455  0.00  0.00    +0.000 F 
ATOM     28  C   UNL     1      -2.406  11.932  23.073  0.00  0.00    +0.000 A 
ENDBRANCH  18  21
ENDBRANCH   4  17
TORSDOF 4
ENDMDL
MODEL 2
REMARK VINA RESULT:      -7.9      4.426     10.762
REMARK  Name = 
REMARK  4 active torsions:
REMARK  status: ('A' for Active; 'I' for Inactive)
REMARK    1  A    between atoms: C_2  and  C_21
REMARK    2  A    between atoms: N_3  and  C_4
REMARK    3  A    between atoms: C_7  and  N_8
REMARK    4  A    between atoms: C_9  and  C_11
REMARK                            x       y       z     vdW  Elec       q    Type
REMARK                         _______ _______ _______ _____ _____    ______ ____
ROOT
ATOM      1  C   UNL     1      -0.007  10.056  21.045  0.00  0.00    +0.000 A 
ATOM      2  C   UNL     1       0.743   9.011  21.572  0.00  0.00    +0.000 A 
ATOM      3  C   UNL     1       1.578   8.250  20.755  0.00  0.00    +0.000 A 
ATOM      4  C   UNL     1       1.676   8.498  19.387  0.00  0.00    +0.000 A 
ATOM      5  C   UNL     1       0.939   9.557  18.851  0.00  0.00    +0.000 A 
ATOM      6  C   UNL     1       0.084  10.316  19.672  0.00  0.00    +0.000 A 
ENDROOT
BRANCH   1   9
ATOM      7  O   UNL     1       0.390  12.837  21.940  0.00  0.00    +0.000 OA
ATOM      8  C   UNL     1      -0.583  12.158  22.249  0.00  0.00    +0.000 C 
ATOM      9  N   UNL     1      -0.854  10.860  21.838  0.00  0.00    +0.000 N 
ATOM     10  H   UNL     1      -1.784  10.503  22.007  0.00  0.00    +0.000 HD
BRANCH   8  11
ATOM     11  C   UNL     1      -1.629  12.799  23.086  0.00  0.00    +0.000 A 
ATOM     12  C   UNL     1      -2.833  12.108  23.282  0.00  0.00    +0.000 A 
ATOM     13  C   UNL     1      -3.843  12.668  24.061  0.00  0.00    +0.000 A 
ATOM     14  C   UNL     1      -3.659  13.924  24.635  0.00  0.00    +0.000 A 
ATOM     15  C   UNL     1      -2.472  14.629  24.424  0.00  0.00    +0.000 A 
ATOM     16  C   UNL     1      -1.456  14.071  23.645  0.00  0.00    +0.000 A 
ENDBRANCH   8  11
ENDBRANCH   1   9
BRANCH   4  17
ATOM     17  N   UNL     1       2.496   7.715  18.535  0.00  0.00    +0.000 N 
ATOM     18  C   UNL     1       2.684   6.348  18.696  0.00  0.00    +0.000 C 
ATOM     19  O   UNL     1       2.111   5.632  19.511  0.00  0.00    +0.000 OA
ATOM     20  H   UNL     1       2.830   8.154  17.687  0.00  0.00    +0.000 HD
BRANCH  18  21
ATOM     21  C   UNL     1       3.616   5.664  17.767  0.00  0.00    +0.000 A 
ATOM     22  C   UNL     1       3.343   4.312  17.480  0.00  0.00    +0.000 A 
ATOM     23  C   UNL     1       4.237   3.548  16.731  0.00  0.00    +0.000 A 
ATOM     24  C   UNL     1       5.407   4.139  16.272  0.00  0.00    +0.000 A 
ATOM     25  F   UNL     1       6.284   3.400  15.582  0.00  0.00    +0.000 F 
ATOM     26  C   UNL     1       5.676   5.479  16.545  0.00  0.00    +0.000 A 
ATOM     27  F   UNL     1       6.818   6.030  16.113  0.00  0.00    +0.000 F 
ATOM     28  C   UNL     1       4.788   6.256  17.291  0.00  0.00    +0.000 A 
ENDBRANCH  18  21
ENDBRANCH   4  17
TORSDOF 4
ENDMDL
MODEL 3
REMARK VINA RESULT:      -7.9      1.075      1.119
REMARK  Name = 
REMARK  4 active torsions:
REMARK  status: ('A' for Active; 'I' for Inactive)
REMARK    1  A    between atoms: C_2  and  C_21
REMARK    2  A    between atoms: N_3  and  C_4
REMARK    3  A    between atoms: C_7  and  N_8
REMARK    4  A    between atoms: C_9  and  C_11
REMARK                            x       y       z     vdW  Elec       q    Type
REMARK                         _______ _______ _______ _____ _____    ______ ____
ROOT
ATOM      1  C   UNL     1       2.346   8.179  18.574  0.00  0.00    +0.000 A 
ATOM      2  C   UNL     1       1.974   7.980  19.898  0.00  0.00    +0.000 A 
ATOM      3  C   UNL     1       0.934   8.717  20.465  0.00  0.00    +0.000 A 
ATOM      4  C   UNL     1       0.249   9.685  19.733  0.00  0.00    +0.000 A 
ATOM      5  C   UNL     1       0.605   9.881  18.396  0.00  0.00    +0.000 A 
ATOM      6  C   UNL     1       1.664   9.148  17.828  0.00  0.00    +0.000 A 
ENDROOT
BRANCH   1   9
ATOM      7  O   UNL     1       2.509   5.280  18.066  0.00  0.00    +0.000 OA
ATOM      8  C   UNL     1       3.403   6.069  17.781  0.00  0.00    +0.000 C 
ATOM      9  N   UNL     1       3.382   7.446  17.956  0.00  0.00    +0.000 N 
ATOM     10  H   UNL     1       4.101   7.985  17.494  0.00  0.00    +0.000 HD
BRANCH   8  11
ATOM     11  C   UNL     1       4.610   5.525  17.107  0.00  0.00    +0.000 A 
ATOM     12  C   UNL     1       5.788   6.283  17.150  0.00  0.00    +0.000 A 
ATOM     13  C   UNL     1       6.946   5.814  16.534  0.00  0.00    +0.000 A 
ATOM     14  C   UNL     1       6.928   4.593  15.863  0.00  0.00    +0.000 A 
ATOM     15  C   UNL     1       5.751   3.844  15.795  0.00  0.00    +0.000 A 
ATOM     16  C   UNL     1       4.588   4.309  16.412  0.00  0.00    +0.000 A 
ENDBRANCH   8  11
ENDBRANCH   1   9
BRANCH   4  17
ATOM     17  N   UNL     1      -0.789  10.465  20.302  0.00  0.00    +0.000 N 
ATOM     18  C   UNL     1      -0.589  11.377  21.331  0.00  0.00    +0.000 C 
ATOM     19  O   UNL     1       0.495  11.695  21.811  0.00  0.00    +0.000 OA
ATOM     20  H   UNL     1      -1.682  10.463  19.825  0.00  0.00    +0.000 HD
BRANCH  18  21
ATOM     21  C   UNL     1      -1.774  12.084  21.870  0.00  0.00    +0.000 A 
ATOM     22  C   UNL     1      -2.258  13.173  21.119  0.00  0.00    +0.000 A 
ATOM     23  C   UNL     1      -3.278  13.984  21.614  0.00  0.00    +0.000 A 
ATOM     24  C   UNL     1      -3.813  13.703  22.864  0.00  0.00    +0.000 A 
ATOM     25  F   UNL     1      -4.770  14.500  23.358  0.00  0.00    +0.000 F 
ATOM     26  C   UNL     1      -3.346  12.621  23.606  0.00  0.00    +0.000 A 
ATOM     27  F   UNL     1      -3.858  12.374  24.819  0.00  0.00    +0.000 F 
ATOM     28  C   UNL     1      -2.327  11.800  23.122  0.00  0.00    +0.000 A 
ENDBRANCH  18  21
ENDBRANCH   4  17
TORSDOF 4
ENDMDL
MODEL 4
REMARK VINA RESULT:      -7.9      1.316      1.832
REMARK  Name = 
REMARK  4 active torsions:
REMARK  status: ('A' for Active; 'I' for Inactive)
REMARK    1  A    between atoms: C_2  and  C_21
REMARK    2  A    between atoms: N_3  and  C_4
REMARK    3  A    between atoms: C_7  and  N_8
REMARK    4  A    between atoms: C_9  and  C_11
REMARK                            x       y       z     vdW  Elec       q    Type
REMARK                         _______ _______ _______ _____ _____    ______ ____
ROOT
ATOM      1  C   UNL     1       2.347   8.268  18.483  0.00  0.00    +0.000 A 
ATOM      2  C   UNL     1       1.645   9.218  17.752  0.00  0.00    +0.000 A 
ATOM      3  C   UNL     1       0.616   9.954  18.339  0.00  0.00    +0.000 A 
ATOM      4  C   UNL     1       0.246   9.750  19.668  0.00  0.00    +0.000 A 
ATOM      5  C   UNL     1       0.957   8.808  20.416  0.00  0.00    +0.000 A 
ATOM      6  C   UNL     1       1.985   8.055  19.819  0.00  0.00    +0.000 A 
ENDROOT
BRANCH   1   9
ATOM      7  O   UNL     1       2.446   5.378  17.909  0.00  0.00    +0.000 OA
ATOM      8  C   UNL     1       3.389   6.139  17.721  0.00  0.00    +0.000 C 
ATOM      9  N   UNL     1       3.404   7.511  17.933  0.00  0.00    +0.000 N 
ATOM     10  H   UNL     1       4.177   8.033  17.546  0.00  0.00    +0.000 HD
BRANCH   8  11
ATOM     11  C   UNL     1       4.627   5.566  17.134  0.00  0.00    +0.000 A 
ATOM     12  C   UNL     1       5.814   6.303  17.247  0.00  0.00    +0.000 A 
ATOM     13  C   UNL     1       7.001   5.807  16.714  0.00  0.00    +0.000 A 
ATOM     14  C   UNL     1       7.005   4.579  16.055  0.00  0.00    +0.000 A 
ATOM     15  C   UNL     1       5.821   3.851  15.916  0.00  0.00    +0.000 A 
ATOM     16  C   UNL     1       4.628   4.344  16.450  0.00  0.00    +0.000 A 
ENDBRANCH   8  11
ENDBRANCH   1   9
BRANCH   4  17
ATOM     17  N   UNL     1      -0.817  10.466  20.273  0.00  0.00    +0.000 N 
ATOM     18  C   UNL     1      -0.631  11.435  21.251  0.00  0.00    +0.000 C 
ATOM     19  O   UNL     1       0.449  11.861  21.648  0.00  0.00    +0.000 OA
ATOM     20  H   UNL     1      -1.734  10.369  19.855  0.00  0.00    +0.000 HD
BRANCH  18  21
ATOM     21  C   UNL     1      -1.837  12.064  21.839  0.00  0.00    +0.000 A 
ATOM     22  C   UNL     1      -2.073  11.824  23.208  0.00  0.00    +0.000 A 
ATOM     23  C   UNL     1      -3.250  12.256  23.815  0.00  0.00    +0.000 A 
ATOM     24  C   UNL     1      -4.194  12.928  23.050  0.00  0.00    +0.000 A 
ATOM     25  F   UNL     1      -5.342  13.314  23.622  0.00  0.00    +0.000 F 
ATOM     26  C   UNL     1      -3.961  13.177  21.699  0.00  0.00    +0.000 A 
ATOM     27  F   UNL     1      -4.890  13.809  20.969  0.00  0.00    +0.000 F 
ATOM     28  C   UNL     1      -2.785  12.752  21.079  0.00  0.00    +0.000 A 
ENDBRANCH  18  21
ENDBRANCH   4  17
TORSDOF 4
ENDMDL
MODEL 5
REMARK VINA RESULT:      -7.8      0.342      1.008
REMARK  Name = 
REMARK  4 active torsions:
REMARK  status: ('A' for Active; 'I' for Inactive)
REMARK    1  A    between atoms: C_2  and  C_21
REMARK    2  A    between atoms: N_3  and  C_4
REMARK    3  A    between atoms: C_7  and  N_8
REMARK    4  A    between atoms: C_9  and  C_11
REMARK                            x       y       z     vdW  Elec       q    Type
REMARK                         _______ _______ _______ _____ _____    ______ ____
ROOT
ATOM      1  C   UNL     1       1.841   8.345  18.998  0.00  0.00    +0.000 A 
ATOM      2  C   UNL     1       1.663   8.092  20.353  0.00  0.00    +0.000 A 
ATOM      3  C   UNL     1       0.797   8.875  21.116  0.00  0.00    +0.000 A 
ATOM      4  C   UNL     1       0.098   9.943  20.554  0.00  0.00    +0.000 A 
ATOM      5  C   UNL     1       0.258  10.194  19.189  0.00  0.00    +0.000 A 
ATOM      6  C   UNL     1       1.143   9.413  18.421  0.00  0.00    +0.000 A 
ENDROOT
BRANCH   1   9
ATOM      7  O   UNL     1       2.637   5.524  19.317  0.00  0.00    +0.000 OA
ATOM      8  C   UNL     1       3.053   6.248  18.419  0.00  0.00    +0.000 C 
ATOM      9  N   UNL     1       2.696   7.569  18.185  0.00  0.00    +0.000 N 
ATOM     10  H   UNL     1       2.962   7.973  17.298  0.00  0.00    +0.000 HD
BRANCH   8  11
ATOM     11  C   UNL     1       3.975   5.645  17.423  0.00  0.00    +0.000 A 
ATOM     12  C   UNL     1       4.015   4.247  17.322  0.00  0.00    +0.000 A 
ATOM     13  C   UNL     1       4.862   3.636  16.401  0.00  0.00    +0.000 A 
ATOM     14  C   UNL     1       5.682   4.416  15.588  0.00  0.00    +0.000 A 
ATOM     15  C   UNL     1       5.665   5.808  15.702  0.00  0.00    +0.000 A 
ATOM     16  C   UNL     1       4.817   6.426  16.622  0.00  0.00    +0.000 A 
ENDBRANCH   8  11
ENDBRANCH   1   9
BRANCH   4  17
ATOM     17  N   UNL     1      -0.762  10.768  21.321  0.00  0.00    +0.000 N 
ATOM     18  C   UNL     1      -0.372  11.985  21.866  0.00  0.00    +0.000 C 
ATOM     19  O   UNL     1       0.705  12.544  21.687  0.00  0.00    +0.000 OA
ATOM     20  H   UNL     1      -1.744  10.524  21.334  0.00  0.00    +0.000 HD
BRANCH  18  21
ATOM     21  C   UNL     1      -1.357  12.718  22.696  0.00  0.00    +0.000 A 
ATOM     22  C   UNL     1      -0.989  14.010  23.122  0.00  0.00    +0.000 A 
ATOM     23  C   UNL     1      -1.786  14.720  24.018  0.00  0.00    +0.000 A 
ATOM     24  C   UNL     1      -2.953  14.133  24.490  0.00  0.00    +0.000 A 
ATOM     25  F   UNL     1      -3.704  14.798  25.378  0.00  0.00    +0.000 F 
ATOM     26  C   UNL     1      -3.327  12.860  24.065  0.00  0.00    +0.000 A 
ATOM     27  F   UNL     1      -4.445  12.299  24.544  0.00  0.00    +0.000 F 
ATOM     28  C   UNL     1      -2.539  12.140  23.166  0.00  0.00    +0.000 A 
ENDBRANCH  18  21
ENDBRANCH   4  17
TORSDOF 4
ENDMDL
MODEL 6
REMARK VINA RESULT:      -7.8      1.345      1.808
REMARK  Name = 
REMARK  4 active torsions:
REMARK  status: ('A' for Active; 'I' for Inactive)
REMARK    1  A    between atoms: C_2  and  C_21
REMARK    2  A    between atoms: N_3  and  C_4
REMARK    3  A    between atoms: C_7  and  N_8
REMARK    4  A    between atoms: C_9  and  C_11
REMARK                            x       y       z     vdW  Elec       q    Type
REMARK                         _______ _______ _______ _____ _____    ______ ____
ROOT
ATOM      1  C   UNL     1       2.391   8.185  18.533  0.00  0.00    +0.000 A 
ATOM      2  C   UNL     1       2.000   7.952  19.846  0.00  0.00    +0.000 A 
ATOM      3  C   UNL     1       0.955   8.677  20.418  0.00  0.00    +0.000 A 
ATOM      4  C   UNL     1       0.282   9.667  19.703  0.00  0.00    +0.000 A 
ATOM      5  C   UNL     1       0.657   9.897  18.377  0.00  0.00    +0.000 A 
ATOM      6  C   UNL     1       1.722   9.176  17.804  0.00  0.00    +0.000 A 
ENDROOT
BRANCH   1   9
ATOM      7  O   UNL     1       2.582   5.290  18.009  0.00  0.00    +0.000 OA
ATOM      8  C   UNL     1       3.468   6.090  17.727  0.00  0.00    +0.000 C 
ATOM      9  N   UNL     1       3.434   7.466  17.910  0.00  0.00    +0.000 N 
ATOM     10  H   UNL     1       4.147   8.014  17.449  0.00  0.00    +0.000 HD
BRANCH   8  11
ATOM     11  C   UNL     1       4.679   5.561  17.049  0.00  0.00    +0.000 A 
ATOM     12  C   UNL     1       4.591   4.311  16.421  0.00  0.00    +0.000 A 
ATOM     13  C   UNL     1       5.700   3.775  15.770  0.00  0.00    +0.000 A 
ATOM     14  C   UNL     1       6.903   4.478  15.756  0.00  0.00    +0.000 A 
ATOM     15  C   UNL     1       7.004   5.713  16.401  0.00  0.00    +0.000 A 
ATOM     16  C   UNL     1       5.895   6.255  17.054  0.00  0.00    +0.000 A 
ENDBRANCH   8  11
ENDBRANCH   1   9
BRANCH   4  17
ATOM     17  N   UNL     1      -0.761  10.435  20.278  0.00  0.00    +0.000 N 
ATOM     18  C   UNL     1      -0.548  11.447  21.206  0.00  0.00    +0.000 C 
ATOM     19  O   UNL     1       0.544  11.869  21.574  0.00  0.00    +0.000 OA
ATOM     20  H   UNL     1      -1.683  10.337  19.872  0.00  0.00    +0.000 HD
BRANCH  18  21
ATOM     21  C   UNL     1      -1.736  12.130  21.770  0.00  0.00    +0.000 A 
ATOM     22  C   UNL     1      -2.082  11.806  23.096  0.00  0.00    +0.000 A 
ATOM     23  C   UNL     1      -3.259  12.290  23.665  0.00  0.00    +0.000 A 
ATOM     24  C   UNL     1      -4.092  13.097  22.902  0.00  0.00    +0.000 A 
ATOM     25  F   UNL     1      -5.241  13.536  23.432  0.00  0.00    +0.000 F 
ATOM     26  C   UNL     1      -3.749  13.429  21.593  0.00  0.00    +0.000 A 
ATOM     27  F   UNL     1      -4.572  14.193  20.862  0.00  0.00    +0.000 F 
ATOM     28  C   UNL     1      -2.572  12.954  21.012  0.00  0.00    +0.000 A 
ENDBRANCH  18  21
ENDBRANCH   4  17
TORSDOF 4
ENDMDL
MODEL 7
REMARK VINA RESULT:      -7.7      4.461     10.766
REMARK  Name = 
REMARK  4 active torsions:
REMARK  status: ('A' for Active; 'I' for Inactive)
REMARK    1  A    between atoms: C_2  and  C_21
REMARK    2  A    between atoms: N_3  and  C_4
REMARK    3  A    between atoms: C_7  and  N_8
REMARK    4  A    between atoms: C_9  and  C_11
REMARK                            x       y       z     vdW  Elec       q    Type
REMARK                         _______ _______ _______ _____ _____    ______ ____
ROOT
ATOM      1  C   UNL     1       0.015  10.176  20.645  0.00  0.00    +0.000 A 
ATOM      2  C   UNL     1       0.042  10.325  19.263  0.00  0.00    +0.000 A 
ATOM      3  C   UNL     1       0.897   9.551  18.479  0.00  0.00    +0.000 A 
ATOM      4  C   UNL     1       1.762   8.620  19.051  0.00  0.00    +0.000 A 
ATOM      5  C   UNL     1       1.730   8.451  20.437  0.00  0.00    +0.000 A 
ATOM      6  C   UNL     1       0.878   9.242  21.231  0.00  0.00    +0.000 A 
ENDROOT
BRANCH   1   9
ATOM      7  O   UNL     1       0.504  12.784  21.929  0.00  0.00    +0.000 OA
ATOM      8  C   UNL     1      -0.530  12.140  22.074  0.00  0.00    +0.000 C 
ATOM      9  N   UNL     1      -0.844  10.928  21.475  0.00  0.00    +0.000 N 
ATOM     10  H   UNL     1      -1.804  10.617  21.528  0.00  0.00    +0.000 HD
BRANCH   8  11
ATOM     11  C   UNL     1      -1.599  12.739  22.913  0.00  0.00    +0.000 A 
ATOM     12  C   UNL     1      -1.308  13.919  23.610  0.00  0.00    +0.000 A 
ATOM     13  C   UNL     1      -2.279  14.520  24.409  0.00  0.00    +0.000 A 
ATOM     14  C   UNL     1      -3.540  13.936  24.523  0.00  0.00    +0.000 A 
ATOM     15  C   UNL     1      -3.828  12.746  23.851  0.00  0.00    +0.000 A 
ATOM     16  C   UNL     1      -2.858  12.142  23.048  0.00  0.00    +0.000 A 
ENDBRANCH   8  11
ENDBRANCH   1   9
BRANCH   4  17
ATOM     17  N   UNL     1       2.659   7.847  18.272  0.00  0.00    +0.000 N 
ATOM     18  C   UNL     1       2.875   6.489  18.472  0.00  0.00    +0.000 C 
ATOM     19  O   UNL     1       2.269   5.771  19.262  0.00  0.00    +0.000 OA
ATOM     20  H   UNL     1       3.036   8.279  17.439  0.00  0.00    +0.000 HD
BRANCH  18  21
ATOM     21  C   UNL     1       3.886   5.816  17.622  0.00  0.00    +0.000 A 
ATOM     22  C   UNL     1       3.621   4.481  17.259  0.00  0.00    +0.000 A 
ATOM     23  C   UNL     1       4.573   3.724  16.581  0.00  0.00    +0.000 A 
ATOM     24  C   UNL     1       5.795   4.304  16.268  0.00  0.00    +0.000 A 
ATOM     25  F   UNL     1       6.727   3.569  15.647  0.00  0.00    +0.000 F 
ATOM     26  C   UNL     1       6.059   5.627  16.616  0.00  0.00    +0.000 A 
ATOM     27  F   UNL     1       7.250   6.167  16.326  0.00  0.00    +0.000 F 
ATOM     28  C   UNL     1       5.113   6.398  17.293  0.00  0.00    +0.000 A 
ENDBRANCH  18  21
ENDBRANCH   4  17
TORSDOF 4
ENDMDL
MODEL 8
REMARK VINA RESULT:      -7.7      0.592      1.627
REMARK  Name = 
REMARK  4 active torsions:
REMARK  status: ('A' for Active; 'I' for Inactive)
REMARK    1  A    between atoms: C_2  and  C_21
REMARK    2  A    between atoms: N_3  and  C_4
REMARK    3  A    between atoms: C_7  and  N_8
REMARK    4  A    between atoms: C_9  and  C_11
REMARK                            x       y       z     vdW  Elec       q    Type
REMARK                         _______ _______ _______ _____ _____    ______ ____
ROOT
ATOM      1  C   UNL     1       1.960   8.313  19.090  0.00  0.00    +0.000 A 
ATOM      2  C   UNL     1       1.775   8.045  20.441  0.00  0.00    +0.000 A 
ATOM      3  C   UNL     1       0.900   8.814  21.208  0.00  0.00    +0.000 A 
ATOM      4  C   UNL     1       0.198   9.883  20.653  0.00  0.00    +0.000 A 
ATOM      5  C   UNL     1       0.365  10.150  19.292  0.00  0.00    +0.000 A 
ATOM      6  C   UNL     1       1.259   9.383  18.521  0.00  0.00    +0.000 A 
ENDROOT
BRANCH   1   9
ATOM      7  O   UNL     1       2.250   5.383  18.936  0.00  0.00    +0.000 OA
ATOM      8  C   UNL     1       2.929   6.167  18.281  0.00  0.00    +0.000 C 
ATOM      9  N   UNL     1       2.824   7.551  18.275  0.00  0.00    +0.000 N 
ATOM     10  H   UNL     1       3.308   8.051  17.541  0.00  0.00    +0.000 HD
BRANCH   8  11
ATOM     11  C   UNL     1       3.919   5.593  17.334  0.00  0.00    +0.000 A 
ATOM     12  C   UNL     1       3.996   4.197  17.226  0.00  0.00    +0.000 A 
ATOM     13  C   UNL     1       4.907   3.612  16.350  0.00  0.00    +0.000 A 
ATOM     14  C   UNL     1       5.753   4.417  15.589  0.00  0.00    +0.000 A 
ATOM     15  C   UNL     1       5.698   5.807  15.711  0.00  0.00    +0.000 A 
ATOM     16  C   UNL     1       4.786   6.399  16.587  0.00  0.00    +0.000 A 
ENDBRANCH   8  11
ENDBRANCH   1   9
BRANCH   4  17
ATOM     17  N   UNL     1      -0.672  10.695  21.423  0.00  0.00    +0.000 N 
ATOM     18  C   UNL     1      -0.314  11.938  21.929  0.00  0.00    +0.000 C 
ATOM     19  O   UNL     1       0.737  12.532  21.708  0.00  0.00    +0.000 OA
ATOM     20  H   UNL     1      -1.644  10.416  21.468  0.00  0.00    +0.000 HD
BRANCH  18  21
ATOM     21  C   UNL     1      -1.303  12.655  22.768  0.00  0.00    +0.000 A 
ATOM     22  C   UNL     1      -2.545  12.019  22.966  0.00  0.00    +0.000 A 
ATOM     23  C   UNL     1      -3.585  12.674  23.622  0.00  0.00    +0.000 A 
ATOM     24  C   UNL     1      -3.383  13.970  24.078  0.00  0.00    +0.000 A 
ATOM     25  F   UNL     1      -4.392  14.615  24.677  0.00  0.00    +0.000 F 
ATOM     26  C   UNL     1      -2.154  14.600  23.893  0.00  0.00    +0.000 A 
ATOM     27  F   UNL     1      -1.980  15.857  24.321  0.00  0.00    +0.000 F 
ATOM     28  C   UNL     1      -1.103  13.954  23.241  0.00  0.00    +0.000 A 
ENDBRANCH  18  21
ENDBRANCH   4  17
TORSDOF 4
ENDMDL
MODEL 9
REMARK VINA RESULT:      -7.7      4.560     10.731
REMARK  Name = 
REMARK  4 active torsions:
REMARK  status: ('A' for Active; 'I' for Inactive)
REMARK    1  A    between atoms: C_2  and  C_21
REMARK    2  A    between atoms: N_3  and  C_4
REMARK    3  A    between atoms: C_7  and  N_8
REMARK    4  A    between atoms: C_9  and  C_11
REMARK                            x       y       z     vdW  Elec       q    Type
REMARK                         _______ _______ _______ _____ _____    ______ ____
ROOT
ATOM      1  C   UNL     1      -0.226  10.093  19.968  0.00  0.00    +0.000 A 
ATOM      2  C   UNL     1       0.079  10.334  18.634  0.00  0.00    +0.000 A 
ATOM      3  C   UNL     1       1.118   9.649  18.004  0.00  0.00    +0.000 A 
ATOM      4  C   UNL     1       1.894   8.718  18.692  0.00  0.00    +0.000 A 
ATOM      5  C   UNL     1       1.584   8.456  20.029  0.00  0.00    +0.000 A 
ATOM      6  C   UNL     1       0.546   9.158  20.669  0.00  0.00    +0.000 A 
ENDROOT
BRANCH   1   9
ATOM      7  O   UNL     1      -0.069  12.124  22.100  0.00  0.00    +0.000 OA
ATOM      8  C   UNL     1      -1.125  11.680  21.663  0.00  0.00    +0.000 C 
ATOM      9  N   UNL     1      -1.277  10.753  20.640  0.00  0.00    +0.000 N 
ATOM     10  H   UNL     1      -2.203  10.634  20.254  0.00  0.00    +0.000 HD
BRANCH   8  11
ATOM     11  C   UNL     1      -2.385  12.234  22.221  0.00  0.00    +0.000 A 
ATOM     12  C   UNL     1      -3.215  12.975  21.367  0.00  0.00    +0.000 A 
ATOM     13  C   UNL     1      -4.408  13.513  21.843  0.00  0.00    +0.000 A 
ATOM     14  C   UNL     1      -4.770  13.326  23.176  0.00  0.00    +0.000 A 
ATOM     15  C   UNL     1      -3.936  12.610  24.038  0.00  0.00    +0.000 A 
ATOM     16  C   UNL     1      -2.740  12.067  23.565  0.00  0.00    +0.000 A 
ENDBRANCH   8  11
ENDBRANCH   1   9
BRANCH   4  17
ATOM     17  N   UNL     1       2.973   8.035  18.078  0.00  0.00    +0.000 N 
ATOM     18  C   UNL     1       3.039   6.652  17.960  0.00  0.00    +0.000 C 
ATOM     19  O   UNL     1       2.158   5.858  18.276  0.00  0.00    +0.000 OA
ATOM     20  H   UNL     1       3.644   8.596  17.569  0.00  0.00    +0.000 HD
BRANCH  18  21
ATOM     21  C   UNL     1       4.255   6.067  17.346  0.00  0.00    +0.000 A 
ATOM     22  C   UNL     1       4.176   4.717  16.949  0.00  0.00    +0.000 A 
ATOM     23  C   UNL     1       5.306   4.042  16.491  0.00  0.00    +0.000 A 
ATOM     24  C   UNL     1       6.517   4.718  16.435  0.00  0.00    +0.000 A 
ATOM     25  F   UNL     1       7.612   4.063  16.029  0.00  0.00    +0.000 F 
ATOM     26  C   UNL     1       6.598   6.056  16.817  0.00  0.00    +0.000 A 
ATOM     27  F   UNL     1       7.777   6.690  16.777  0.00  0.00    +0.000 F 
ATOM     28  C   UNL     1       5.474   6.745  17.275  0.00  0.00    +0.000 A 
ENDBRANCH  18  21
ENDBRANCH   4  17
TORSDOF 4
ENDMDL
