MODEL 1
REMARK VINA RESULT:      -7.9      0.000      0.000
REMARK  Name = 
REMARK  7 active torsions:
REMARK  status: ('A' for Active; 'I' for Inactive)
REMARK    1  A    between atoms: C_1  and  C_2
REMARK    2  A    between atoms: C_2  and  C_3
REMARK    3  A    between atoms: C_8  and  O_9
REMARK    4  A    between atoms: O_9  and  C_10
REMARK    5  A    between atoms: C_12  and  S_13
REMARK    6  A    between atoms: S_13  and  C_14
REMARK    7  A    between atoms: C_22  and  N_23
REMARK                            x       y       z     vdW  Elec       q    Type
REMARK                         _______ _______ _______ _____ _____    ______ ____
ROOT
ATOM      1  C   UNL     1       4.261   5.075  18.478  0.00  0.00    +0.000 A 
ATOM      2  C   UNL     1       3.896   6.412  18.273  0.00  0.00    +0.000 A 
ATOM      3  C   UNL     1       2.576   6.816  18.460  0.00  0.00    +0.000 A 
ATOM      4  C   UNL     1       1.688   5.870  18.949  0.00  0.00    +0.000 A 
ATOM      5  N   UNL     1       2.016   4.585  19.235  0.00  0.00    +0.000 NA
ATOM      6  C   UNL     1       3.295   4.198  18.998  0.00  0.00    +0.000 A 
ENDROOT
BRANCH   6   7
ATOM      7  N   UNL     1       3.665   2.872  19.272  0.00  0.00    +0.000 N 
ATOM      8  C   UNL     1       3.356   1.735  18.602  0.00  0.00    +0.000 C 
ATOM      9  N   UNL     1       2.529   1.822  17.543  0.00  0.00    +0.000 N 
ATOM     10  O   UNL     1       3.802   0.650  18.961  0.00  0.00    +0.000 OA
ATOM     11  H   UNL     1       4.252   2.719  20.079  0.00  0.00    +0.000 HD
ATOM     12  H   UNL     1       2.303   2.743  17.179  0.00  0.00    +0.000 HD
ATOM     13  H   UNL     1       2.365   0.997  16.981  0.00  0.00    +0.000 HD
ENDBRANCH   6   7
BRANCH   1  14
ATOM     14  O   UNL     1       5.538   4.598  18.234  0.00  0.00    +0.000 OA
BRANCH  14  20
ATOM     15  C   UNL     1       7.068   5.619  16.691  0.00  0.00    +0.000 A 
ATOM     16  N   UNL     1       7.588   5.794  15.443  0.00  0.00    +0.000 NA
ATOM     17  C   UNL     1       7.123   5.005  14.451  0.00  0.00    +0.000 A 
ATOM     18  C   UNL     1       6.173   4.021  14.638  0.00  0.00    +0.000 A 
ATOM     19  C   UNL     1       5.654   3.844  15.917  0.00  0.00    +0.000 A 
ATOM     20  C   UNL     1       6.058   4.687  16.958  0.00  0.00    +0.000 A 
BRANCH  15  22
ATOM     21  C   UNL     1       7.555   7.978  17.423  0.00  0.00    +0.000 C 
ATOM     22  C   UNL     1       7.660   6.500  17.760  0.00  0.00    +0.000 C 
ENDBRANCH  15  22
ENDBRANCH  14  20
ENDBRANCH   1  14
BRANCH   3  23
ATOM     23  S   UNL     1       2.070   8.481  18.121  0.00  0.00    +0.000 S 
BRANCH  23  24
ATOM     24  C   UNL     1       1.315   8.974  19.666  0.00  0.00    +0.000 A 
ATOM     25  C   UNL     1       0.254   9.876  19.628  0.00  0.00    +0.000 A 
ATOM     26  C   UNL     1      -0.363  10.244  20.821  0.00  0.00    +0.000 A 
ATOM     27  C   UNL     1       0.088   9.696  22.014  0.00  0.00    +0.000 A 
ATOM     28  C   UNL     1       1.145   8.802  21.963  0.00  0.00    +0.000 A 
ATOM     29  N   UNL     1       1.767   8.429  20.820  0.00  0.00    +0.000 NA
ENDBRANCH  23  24
ENDBRANCH   3  23
TORSDOF 6
ENDMDL
MODEL 2
REMARK VINA RESULT:      -7.9      2.061      2.986
REMARK  Name = 
REMARK  7 active torsions:
REMARK  status: ('A' for Active; 'I' for Inactive)
REMARK    1  A    between atoms: C_1  and  C_2
REMARK    2  A    between atoms: C_2  and  C_3
REMARK    3  A    between atoms: C_8  and  O_9
REMARK    4  A    between atoms: O_9  and  C_10
REMARK    5  A    between atoms: C_12  and  S_13
REMARK    6  A    between atoms: S_13  and  C_14
REMARK    7  A    between atoms: C_22  and  N_23
REMARK                            x       y       z     vdW  Elec       q    Type
REMARK                         _______ _______ _______ _____ _____    ______ ____
ROOT
ATOM      1  C   UNL     1       3.038   5.908  19.030  0.00  0.00    +0.000 A 
ATOM      2  C   UNL     1       2.950   7.097  18.291  0.00  0.00    +0.000 A 
ATOM      3  C   UNL     1       2.164   8.150  18.749  0.00  0.00    +0.000 A 
ATOM      4  C   UNL     1       1.572   8.004  19.994  0.00  0.00    +0.000 A 
ATOM      5  N   UNL     1       1.694   6.903  20.778  0.00  0.00    +0.000 NA
ATOM      6  C   UNL     1       2.423   5.867  20.291  0.00  0.00    +0.000 A 
ENDROOT
BRANCH   6   7
ATOM      7  N   UNL     1       2.559   4.708  21.070  0.00  0.00    +0.000 N 
ATOM      8  C   UNL     1       1.741   3.631  21.166  0.00  0.00    +0.000 C 
ATOM      9  N   UNL     1       0.583   3.646  20.478  0.00  0.00    +0.000 N 
ATOM     10  O   UNL     1       2.036   2.675  21.875  0.00  0.00    +0.000 OA
ATOM     11  H   UNL     1       3.383   4.641  21.651  0.00  0.00    +0.000 HD
ATOM     12  H   UNL     1       0.441   4.374  19.784  0.00  0.00    +0.000 HD
ATOM     13  H   UNL     1       0.010   2.813  20.466  0.00  0.00    +0.000 HD
ENDBRANCH   6   7
BRANCH   1  14
ATOM     14  O   UNL     1       3.741   4.799  18.589  0.00  0.00    +0.000 OA
BRANCH  14  20
ATOM     15  C   UNL     1       5.671   4.542  17.185  0.00  0.00    +0.000 A 
ATOM     16  N   UNL     1       7.016   4.562  16.965  0.00  0.00    +0.000 NA
ATOM     17  C   UNL     1       7.813   4.973  17.975  0.00  0.00    +0.000 A 
ATOM     18  C   UNL     1       7.338   5.394  19.201  0.00  0.00    +0.000 A 
ATOM     19  C   UNL     1       5.962   5.377  19.413  0.00  0.00    +0.000 A 
ATOM     20  C   UNL     1       5.108   4.892  18.417  0.00  0.00    +0.000 A 
BRANCH  15  22
ATOM     21  C   UNL     1       5.539   4.349  14.677  0.00  0.00    +0.000 C 
ATOM     22  C   UNL     1       4.837   4.115  16.005  0.00  0.00    +0.000 C 
ENDBRANCH  15  22
ENDBRANCH  14  20
ENDBRANCH   1  14
BRANCH   3  23
ATOM     23  S   UNL     1       1.963   9.629  17.791  0.00  0.00    +0.000 S 
BRANCH  23  24
ATOM     24  C   UNL     1       0.622  10.455  18.639  0.00  0.00    +0.000 A 
ATOM     25  C   UNL     1      -0.680  10.236  18.193  0.00  0.00    +0.000 A 
ATOM     26  C   UNL     1      -1.736  10.848  18.864  0.00  0.00    +0.000 A 
ATOM     27  C   UNL     1      -1.465  11.652  19.963  0.00  0.00    +0.000 A 
ATOM     28  C   UNL     1      -0.143  11.813  20.344  0.00  0.00    +0.000 A 
ATOM     29  N   UNL     1       0.904  11.235  19.709  0.00  0.00    +0.000 NA
ENDBRANCH  23  24
ENDBRANCH   3  23
TORSDOF 6
ENDMDL
MODEL 3
REMARK VINA RESULT:      -7.8      2.007      2.359
REMARK  Name = 
REMARK  7 active torsions:
REMARK  status: ('A' for Active; 'I' for Inactive)
REMARK    1  A    between atoms: C_1  and  C_2
REMARK    2  A    between atoms: C_2  and  C_3
REMARK    3  A    between atoms: C_8  and  O_9
REMARK    4  A    between atoms: O_9  and  C_10
REMARK    5  A    between atoms: C_12  and  S_13
REMARK    6  A    between atoms: S_13  and  C_14
REMARK    7  A    between atoms: C_22  and  N_23
REMARK                            x       y       z     vdW  Elec       q    Type
REMARK                         _______ _______ _______ _____ _____    ______ ____
ROOT
ATOM      1  C   UNL     1       3.153   5.594  19.108  0.00  0.00    +0.000 A 
ATOM      2  C   UNL     1       3.107   6.757  18.327  0.00  0.00    +0.000 A 
ATOM      3  C   UNL     1       2.314   7.833  18.718  0.00  0.00    +0.000 A 
ATOM      4  C   UNL     1       1.670   7.733  19.942  0.00  0.00    +0.000 A 
ATOM      5  N   UNL     1       1.749   6.658  20.765  0.00  0.00    +0.000 NA
ATOM      6  C   UNL     1       2.486   5.600  20.344  0.00  0.00    +0.000 A 
ENDROOT
BRANCH   6   7
ATOM      7  N   UNL     1       2.579   4.466  21.166  0.00  0.00    +0.000 N 
ATOM      8  C   UNL     1       1.747   3.400  21.263  0.00  0.00    +0.000 C 
ATOM      9  N   UNL     1       0.620   3.401  20.526  0.00  0.00    +0.000 N 
ATOM     10  O   UNL     1       2.003   2.466  22.014  0.00  0.00    +0.000 OA
ATOM     11  H   UNL     1       3.378   4.412  21.782  0.00  0.00    +0.000 HD
ATOM     12  H   UNL     1       0.513   4.108  19.804  0.00  0.00    +0.000 HD
ATOM     13  H   UNL     1       0.039   2.574  20.518  0.00  0.00    +0.000 HD
ENDBRANCH   6   7
BRANCH   1  14
ATOM     14  O   UNL     1       3.861   4.464  18.733  0.00  0.00    +0.000 OA
BRANCH  14  20
ATOM     15  C   UNL     1       6.065   4.988  17.936  0.00  0.00    +0.000 A 
ATOM     16  N   UNL     1       6.985   5.144  16.943  0.00  0.00    +0.000 NA
ATOM     17  C   UNL     1       6.614   4.821  15.686  0.00  0.00    +0.000 A 
ATOM     18  C   UNL     1       5.369   4.322  15.360  0.00  0.00    +0.000 A 
ATOM     19  C   UNL     1       4.439   4.159  16.382  0.00  0.00    +0.000 A 
ATOM     20  C   UNL     1       4.759   4.548  17.687  0.00  0.00    +0.000 A 
BRANCH  15  22
ATOM     21  C   UNL     1       7.961   5.902  19.319  0.00  0.00    +0.000 C 
ATOM     22  C   UNL     1       6.555   5.325  19.321  0.00  0.00    +0.000 C 
ENDBRANCH  15  22
ENDBRANCH  14  20
ENDBRANCH   1  14
BRANCH   3  23
ATOM     23  S   UNL     1       2.168   9.280  17.704  0.00  0.00    +0.000 S 
BRANCH  23  24
ATOM     24  C   UNL     1       0.807  10.150  18.473  0.00  0.00    +0.000 A 
ATOM     25  C   UNL     1      -0.485   9.895  18.018  0.00  0.00    +0.000 A 
ATOM     26  C   UNL     1      -1.557  10.542  18.629  0.00  0.00    +0.000 A 
ATOM     27  C   UNL     1      -1.311  11.415  19.680  0.00  0.00    +0.000 A 
ATOM     28  C   UNL     1       0.003  11.607  20.075  0.00  0.00    +0.000 A 
ATOM     29  N   UNL     1       1.064  10.997  19.497  0.00  0.00    +0.000 NA
ENDBRANCH  23  24
ENDBRANCH   3  23
TORSDOF 6
ENDMDL
MODEL 4
REMARK VINA RESULT:      -7.6      2.066      3.172
REMARK  Name = 
REMARK  7 active torsions:
REMARK  status: ('A' for Active; 'I' for Inactive)
REMARK    1  A    between atoms: C_1  and  C_2
REMARK    2  A    between atoms: C_2  and  C_3
REMARK    3  A    between atoms: C_8  and  O_9
REMARK    4  A    between atoms: O_9  and  C_10
REMARK    5  A    between atoms: C_12  and  S_13
REMARK    6  A    between atoms: S_13  and  C_14
REMARK    7  A    between atoms: C_22  and  N_23
REMARK                            x       y       z     vdW  Elec       q    Type
REMARK                         _______ _______ _______ _____ _____    ______ ____
ROOT
ATOM      1  C   UNL     1       2.983   6.062  18.879  0.00  0.00    +0.000 A 
ATOM      2  C   UNL     1       2.888   7.286  18.203  0.00  0.00    +0.000 A 
ATOM      3  C   UNL     1       2.124   8.323  18.732  0.00  0.00    +0.000 A 
ATOM      4  C   UNL     1       1.562   8.120  19.983  0.00  0.00    +0.000 A 
ATOM      5  N   UNL     1       1.693   6.981  20.708  0.00  0.00    +0.000 NA
ATOM      6  C   UNL     1       2.400   5.964  20.153  0.00  0.00    +0.000 A 
ENDROOT
BRANCH   6   7
ATOM      7  N   UNL     1       2.545   4.767  20.870  0.00  0.00    +0.000 N 
ATOM      8  C   UNL     1       1.695   3.716  20.976  0.00  0.00    +0.000 C 
ATOM      9  N   UNL     1       0.495   3.801  20.371  0.00  0.00    +0.000 N 
ATOM     10  O   UNL     1       2.001   2.719  21.622  0.00  0.00    +0.000 OA
ATOM     11  H   UNL     1       3.403   4.645  21.389  0.00  0.00    +0.000 HD
ATOM     12  H   UNL     1       0.334   4.565  19.721  0.00  0.00    +0.000 HD
ATOM     13  H   UNL     1      -0.109   2.990  20.364  0.00  0.00    +0.000 HD
ENDBRANCH   6   7
BRANCH   1  14
ATOM     14  O   UNL     1       3.663   4.970  18.366  0.00  0.00    +0.000 OA
BRANCH  14  20
ATOM     15  C   UNL     1       5.681   4.660  17.102  0.00  0.00    +0.000 A 
ATOM     16  N   UNL     1       7.038   4.626  16.983  0.00  0.00    +0.000 NA
ATOM     17  C   UNL     1       7.774   4.979  18.059  0.00  0.00    +0.000 A 
ATOM     18  C   UNL     1       7.226   5.393  19.257  0.00  0.00    +0.000 A 
ATOM     19  C   UNL     1       5.840   5.432  19.366  0.00  0.00    +0.000 A 
ATOM     20  C   UNL     1       5.042   5.007  18.299  0.00  0.00    +0.000 A 
BRANCH  15  22
ATOM     21  C   UNL     1       5.835   3.996  14.678  0.00  0.00    +0.000 C 
ATOM     22  C   UNL     1       4.919   4.298  15.853  0.00  0.00    +0.000 C 
ENDBRANCH  15  22
ENDBRANCH  14  20
ENDBRANCH   1  14
BRANCH   3  23
ATOM     23  S   UNL     1       1.913   9.848  17.853  0.00  0.00    +0.000 S 
BRANCH  23  24
ATOM     24  C   UNL     1       0.246  10.319  18.300  0.00  0.00    +0.000 A 
ATOM     25  C   UNL     1       0.071  11.277  19.297  0.00  0.00    +0.000 A 
ATOM     26  C   UNL     1      -1.220  11.676  19.632  0.00  0.00    +0.000 A 
ATOM     27  C   UNL     1      -2.298  11.117  18.960  0.00  0.00    +0.000 A 
ATOM     28  C   UNL     1      -2.037  10.175  17.978  0.00  0.00    +0.000 A 
ATOM     29  N   UNL     1      -0.794   9.764  17.634  0.00  0.00    +0.000 NA
ENDBRANCH  23  24
ENDBRANCH   3  23
TORSDOF 6
ENDMDL
MODEL 5
REMARK VINA RESULT:      -7.5      0.848      1.293
REMARK  Name = 
REMARK  7 active torsions:
REMARK  status: ('A' for Active; 'I' for Inactive)
REMARK    1  A    between atoms: C_1  and  C_2
REMARK    2  A    between atoms: C_2  and  C_3
REMARK    3  A    between atoms: C_8  and  O_9
REMARK    4  A    between atoms: O_9  and  C_10
REMARK    5  A    between atoms: C_12  and  S_13
REMARK    6  A    between atoms: S_13  and  C_14
REMARK    7  A    between atoms: C_22  and  N_23
REMARK                            x       y       z     vdW  Elec       q    Type
REMARK                         _______ _______ _______ _____ _____    ______ ____
ROOT
ATOM      1  C   UNL     1       4.088   4.943  17.764  0.00  0.00    +0.000 A 
ATOM      2  C   UNL     1       3.905   6.331  17.823  0.00  0.00    +0.000 A 
ATOM      3  C   UNL     1       2.625   6.865  17.945  0.00  0.00    +0.000 A 
ATOM      4  C   UNL     1       1.578   5.970  18.105  0.00  0.00    +0.000 A 
ATOM      5  N   UNL     1       1.719   4.621  18.132  0.00  0.00    +0.000 NA
ATOM      6  C   UNL     1       2.968   4.119  17.961  0.00  0.00    +0.000 A 
ENDROOT
BRANCH   6   7
ATOM      7  N   UNL     1       3.148   2.727  17.971  0.00  0.00    +0.000 N 
ATOM      8  C   UNL     1       3.877   1.958  18.816  0.00  0.00    +0.000 C 
ATOM      9  N   UNL     1       4.602   2.569  19.772  0.00  0.00    +0.000 N 
ATOM     10  O   UNL     1       3.892   0.736  18.704  0.00  0.00    +0.000 OA
ATOM     11  H   UNL     1       2.669   2.199  17.255  0.00  0.00    +0.000 HD
ATOM     12  H   UNL     1       4.448   3.559  19.937  0.00  0.00    +0.000 HD
ATOM     13  H   UNL     1       5.074   2.004  20.465  0.00  0.00    +0.000 HD
ENDBRANCH   6   7
BRANCH   1  14
ATOM     14  O   UNL     1       5.327   4.355  17.566  0.00  0.00    +0.000 OA
BRANCH  14  20
ATOM     15  C   UNL     1       7.045   5.401  16.254  0.00  0.00    +0.000 A 
ATOM     16  N   UNL     1       7.684   5.648  15.076  0.00  0.00    +0.000 NA
ATOM     17  C   UNL     1       7.265   4.978  13.981  0.00  0.00    +0.000 A 
ATOM     18  C   UNL     1       6.247   4.045  13.998  0.00  0.00    +0.000 A 
ATOM     19  C   UNL     1       5.606   3.795  15.208  0.00  0.00    +0.000 A 
ATOM     20  C   UNL     1       5.963   4.519  16.351  0.00  0.00    +0.000 A 
BRANCH  15  22
ATOM     21  C   UNL     1       7.401   7.652  17.327  0.00  0.00    +0.000 C 
ATOM     22  C   UNL     1       7.589   6.148  17.445  0.00  0.00    +0.000 C 
ENDBRANCH  15  22
ENDBRANCH  14  20
ENDBRANCH   1  14
BRANCH   3  23
ATOM     23  S   UNL     1       2.357   8.618  17.931  0.00  0.00    +0.000 S 
BRANCH  23  24
ATOM     24  C   UNL     1       1.371   8.866  19.403  0.00  0.00    +0.000 A 
ATOM     25  C   UNL     1       1.699   8.148  20.551  0.00  0.00    +0.000 A 
ATOM     26  C   UNL     1       0.959   8.355  21.712  0.00  0.00    +0.000 A 
ATOM     27  C   UNL     1      -0.080   9.275  21.698  0.00  0.00    +0.000 A 
ATOM     28  C   UNL     1      -0.338   9.951  20.517  0.00  0.00    +0.000 A 
ATOM     29  N   UNL     1       0.361   9.768  19.372  0.00  0.00    +0.000 NA
ENDBRANCH  23  24
ENDBRANCH   3  23
TORSDOF 6
ENDMDL
MODEL 6
REMARK VINA RESULT:      -7.4      2.060      3.159
REMARK  Name = 
REMARK  7 active torsions:
REMARK  status: ('A' for Active; 'I' for Inactive)
REMARK    1  A    between atoms: C_1  and  C_2
REMARK    2  A    between atoms: C_2  and  C_3
REMARK    3  A    between atoms: C_8  and  O_9
REMARK    4  A    between atoms: O_9  and  C_10
REMARK    5  A    between atoms: C_12  and  S_13
REMARK    6  A    between atoms: S_13  and  C_14
REMARK    7  A    between atoms: C_22  and  N_23
REMARK                            x       y       z     vdW  Elec       q    Type
REMARK                         _______ _______ _______ _____ _____    ______ ____
ROOT
ATOM      1  C   UNL     1       3.359   5.578  19.596  0.00  0.00    +0.000 A 
ATOM      2  C   UNL     1       3.366   6.729  18.798  0.00  0.00    +0.000 A 
ATOM      3  C   UNL     1       2.356   7.679  18.927  0.00  0.00    +0.000 A 
ATOM      4  C   UNL     1       1.425   7.480  19.935  0.00  0.00    +0.000 A 
ATOM      5  N   UNL     1       1.425   6.420  20.782  0.00  0.00    +0.000 NA
ATOM      6  C   UNL     1       2.388   5.480  20.606  0.00  0.00    +0.000 A 
ENDROOT
BRANCH   6   7
ATOM      7  N   UNL     1       2.410   4.364  21.457  0.00  0.00    +0.000 N 
ATOM      8  C   UNL     1       1.643   3.247  21.435  0.00  0.00    +0.000 C 
ATOM      9  N   UNL     1       0.660   3.165  20.519  0.00  0.00    +0.000 N 
ATOM     10  O   UNL     1       1.825   2.339  22.240  0.00  0.00    +0.000 OA
ATOM     11  H   UNL     1       3.094   4.369  22.201  0.00  0.00    +0.000 HD
ATOM     12  H   UNL     1       0.634   3.855  19.773  0.00  0.00    +0.000 HD
ATOM     13  H   UNL     1       0.142   2.301  20.431  0.00  0.00    +0.000 HD
ENDBRANCH   6   7
BRANCH   1  14
ATOM     14  O   UNL     1       4.291   4.562  19.461  0.00  0.00    +0.000 OA
BRANCH  14  20
ATOM     15  C   UNL     1       4.545   3.922  17.161  0.00  0.00    +0.000 A 
ATOM     16  N   UNL     1       5.274   3.790  16.017  0.00  0.00    +0.000 NA
ATOM     17  C   UNL     1       6.531   4.284  16.011  0.00  0.00    +0.000 A 
ATOM     18  C   UNL     1       7.102   4.933  17.089  0.00  0.00    +0.000 A 
ATOM     19  C   UNL     1       6.347   5.069  18.249  0.00  0.00    +0.000 A 
ATOM     20  C   UNL     1       5.067   4.509  18.320  0.00  0.00    +0.000 A 
BRANCH  15  22
ATOM     21  C   UNL     1       2.983   2.048  17.787  0.00  0.00    +0.000 C 
ATOM     22  C   UNL     1       3.137   3.388  17.087  0.00  0.00    +0.000 C 
ENDBRANCH  15  22
ENDBRANCH  14  20
ENDBRANCH   1  14
BRANCH   3  23
ATOM     23  S   UNL     1       2.291   9.099  17.867  0.00  0.00    +0.000 S 
BRANCH  23  24
ATOM     24  C   UNL     1       0.830   9.948  18.455  0.00  0.00    +0.000 A 
ATOM     25  C   UNL     1       0.965  10.846  19.512  0.00  0.00    +0.000 A 
ATOM     26  C   UNL     1      -0.159  11.537  19.958  0.00  0.00    +0.000 A 
ATOM     27  C   UNL     1      -1.380  11.321  19.334  0.00  0.00    +0.000 A 
ATOM     28  C   UNL     1      -1.426  10.416  18.287  0.00  0.00    +0.000 A 
ATOM     29  N   UNL     1      -0.352   9.726  17.834  0.00  0.00    +0.000 NA
ENDBRANCH  23  24
ENDBRANCH   3  23
TORSDOF 6
ENDMDL
MODEL 7
REMARK VINA RESULT:      -7.3      1.182      1.394
REMARK  Name = 
REMARK  7 active torsions:
REMARK  status: ('A' for Active; 'I' for Inactive)
REMARK    1  A    between atoms: C_1  and  C_2
REMARK    2  A    between atoms: C_2  and  C_3
REMARK    3  A    between atoms: C_8  and  O_9
REMARK    4  A    between atoms: O_9  and  C_10
REMARK    5  A    between atoms: C_12  and  S_13
REMARK    6  A    between atoms: S_13  and  C_14
REMARK    7  A    between atoms: C_22  and  N_23
REMARK                            x       y       z     vdW  Elec       q    Type
REMARK                         _______ _______ _______ _____ _____    ______ ____
ROOT
ATOM      1  C   UNL     1       4.176   5.387  18.808  0.00  0.00    +0.000 A 
ATOM      2  C   UNL     1       3.832   6.654  18.316  0.00  0.00    +0.000 A 
ATOM      3  C   UNL     1       2.548   7.156  18.508  0.00  0.00    +0.000 A 
ATOM      4  C   UNL     1       1.681   6.398  19.281  0.00  0.00    +0.000 A 
ATOM      5  N   UNL     1       1.997   5.204  19.841  0.00  0.00    +0.000 NA
ATOM      6  C   UNL     1       3.237   4.709  19.601  0.00  0.00    +0.000 A 
ENDROOT
BRANCH   6   7
ATOM      7  N   UNL     1       3.592   3.469  20.155  0.00  0.00    +0.000 N 
ATOM      8  C   UNL     1       3.110   2.848  21.259  0.00  0.00    +0.000 C 
ATOM      9  N   UNL     1       2.193   3.493  22.006  0.00  0.00    +0.000 N 
ATOM     10  O   UNL     1       3.509   1.734  21.583  0.00  0.00    +0.000 OA
ATOM     11  H   UNL     1       4.308   2.942  19.675  0.00  0.00    +0.000 HD
ATOM     12  H   UNL     1       1.771   4.337  21.631  0.00  0.00    +0.000 HD
ATOM     13  H   UNL     1       1.758   3.004  22.777  0.00  0.00    +0.000 HD
ENDBRANCH   6   7
BRANCH   1  14
ATOM     14  O   UNL     1       5.412   4.803  18.583  0.00  0.00    +0.000 OA
BRANCH  14  20
ATOM     15  C   UNL     1       7.000   5.614  16.975  0.00  0.00    +0.000 A 
ATOM     16  N   UNL     1       7.518   5.680  15.716  0.00  0.00    +0.000 NA
ATOM     17  C   UNL     1       6.982   4.877  14.772  0.00  0.00    +0.000 A 
ATOM     18  C   UNL     1       5.960   3.982  15.020  0.00  0.00    +0.000 A 
ATOM     19  C   UNL     1       5.443   3.917  16.310  0.00  0.00    +0.000 A 
ATOM     20  C   UNL     1       5.923   4.782  17.300  0.00  0.00    +0.000 A 
BRANCH  15  22
ATOM     21  C   UNL     1       7.682   7.964  17.571  0.00  0.00    +0.000 C 
ATOM     22  C   UNL     1       7.671   6.503  17.990  0.00  0.00    +0.000 C 
ENDBRANCH  15  22
ENDBRANCH  14  20
ENDBRANCH   1  14
BRANCH   3  23
ATOM     23  S   UNL     1       2.060   8.715  17.819  0.00  0.00    +0.000 S 
BRANCH  23  24
ATOM     24  C   UNL     1       1.100   9.436  19.145  0.00  0.00    +0.000 A 
ATOM     25  C   UNL     1      -0.036  10.173  18.818  0.00  0.00    +0.000 A 
ATOM     26  C   UNL     1      -0.809  10.713  19.842  0.00  0.00    +0.000 A 
ATOM     27  C   UNL     1      -0.434  10.496  21.161  0.00  0.00    +0.000 A 
ATOM     28  C   UNL     1       0.707   9.748  21.400  0.00  0.00    +0.000 A 
ATOM     29  N   UNL     1       1.481   9.214  20.426  0.00  0.00    +0.000 NA
ENDBRANCH  23  24
ENDBRANCH   3  23
TORSDOF 6
ENDMDL
MODEL 8
REMARK VINA RESULT:      -7.3      2.270      3.642
REMARK  Name = 
REMARK  7 active torsions:
REMARK  status: ('A' for Active; 'I' for Inactive)
REMARK    1  A    between atoms: C_1  and  C_2
REMARK    2  A    between atoms: C_2  and  C_3
REMARK    3  A    between atoms: C_8  and  O_9
REMARK    4  A    between atoms: O_9  and  C_10
REMARK    5  A    between atoms: C_12  and  S_13
REMARK    6  A    between atoms: S_13  and  C_14
REMARK    7  A    between atoms: C_22  and  N_23
REMARK                            x       y       z     vdW  Elec       q    Type
REMARK                         _______ _______ _______ _____ _____    ______ ____
ROOT
ATOM      1  C   UNL     1       2.496   6.592  19.026  0.00  0.00    +0.000 A 
ATOM      2  C   UNL     1       2.372   7.836  18.393  0.00  0.00    +0.000 A 
ATOM      3  C   UNL     1       1.721   8.887  19.033  0.00  0.00    +0.000 A 
ATOM      4  C   UNL     1       1.303   8.673  20.337  0.00  0.00    +0.000 A 
ATOM      5  N   UNL     1       1.471   7.510  21.016  0.00  0.00    +0.000 NA
ATOM      6  C   UNL     1       2.063   6.482  20.357  0.00  0.00    +0.000 A 
ENDROOT
BRANCH   6   7
ATOM      7  N   UNL     1       2.242   5.261  21.026  0.00  0.00    +0.000 N 
ATOM      8  C   UNL     1       1.547   4.103  20.908  0.00  0.00    +0.000 C 
ATOM      9  N   UNL     1       0.482   4.079  20.084  0.00  0.00    +0.000 N 
ATOM     10  O   UNL     1       1.866   3.106  21.547  0.00  0.00    +0.000 OA
ATOM     11  H   UNL     1       2.997   5.212  21.695  0.00  0.00    +0.000 HD
ATOM     12  H   UNL     1       0.337   4.864  19.456  0.00  0.00    +0.000 HD
ATOM     13  H   UNL     1       0.012   3.199  19.916  0.00  0.00    +0.000 HD
ENDBRANCH   6   7
BRANCH   1  14
ATOM     14  O   UNL     1       3.063   5.488  18.411  0.00  0.00    +0.000 OA
BRANCH  14  20
ATOM     15  C   UNL     1       5.195   4.406  18.634  0.00  0.00    +0.000 A 
ATOM     16  N   UNL     1       6.548   4.358  18.475  0.00  0.00    +0.000 NA
ATOM     17  C   UNL     1       7.140   5.373  17.811  0.00  0.00    +0.000 A 
ATOM     18  C   UNL     1       6.448   6.437  17.266  0.00  0.00    +0.000 A 
ATOM     19  C   UNL     1       5.067   6.473  17.427  0.00  0.00    +0.000 A 
ATOM     20  C   UNL     1       4.423   5.477  18.170  0.00  0.00    +0.000 A 
BRANCH  15  22
ATOM     21  C   UNL     1       3.803   2.319  18.413  0.00  0.00    +0.000 C 
ATOM     22  C   UNL     1       4.592   3.223  19.346  0.00  0.00    +0.000 C 
ENDBRANCH  15  22
ENDBRANCH  14  20
ENDBRANCH   1  14
BRANCH   3  23
ATOM     23  S   UNL     1       1.472  10.443  18.220  0.00  0.00    +0.000 S 
BRANCH  23  24
ATOM     24  C   UNL     1      -0.309  10.612  18.255  0.00  0.00    +0.000 A 
ATOM     25  C   UNL     1      -1.076   9.717  17.513  0.00  0.00    +0.000 A 
ATOM     26  C   UNL     1      -2.464   9.818  17.557  0.00  0.00    +0.000 A 
ATOM     27  C   UNL     1      -3.047  10.801  18.345  0.00  0.00    +0.000 A 
ATOM     28  C   UNL     1      -2.213  11.647  19.056  0.00  0.00    +0.000 A 
ATOM     29  N   UNL     1      -0.861  11.576  19.030  0.00  0.00    +0.000 NA
ENDBRANCH  23  24
ENDBRANCH   3  23
TORSDOF 6
ENDMDL
MODEL 9
REMARK VINA RESULT:      -7.2      2.225      6.985
REMARK  Name = 
REMARK  7 active torsions:
REMARK  status: ('A' for Active; 'I' for Inactive)
REMARK    1  A    between atoms: C_1  and  C_2
REMARK    2  A    between atoms: C_2  and  C_3
REMARK    3  A    between atoms: C_8  and  O_9
REMARK    4  A    between atoms: O_9  and  C_10
REMARK    5  A    between atoms: C_12  and  S_13
REMARK    6  A    between atoms: S_13  and  C_14
REMARK    7  A    between atoms: C_22  and  N_23
REMARK                            x       y       z     vdW  Elec       q    Type
REMARK                         _______ _______ _______ _____ _____    ______ ____
ROOT
ATOM      1  C   UNL     1       3.416   5.580  18.512  0.00  0.00    +0.000 A 
ATOM      2  C   UNL     1       4.660   5.986  18.008  0.00  0.00    +0.000 A 
ATOM      3  C   UNL     1       5.376   5.154  17.152  0.00  0.00    +0.000 A 
ATOM      4  C   UNL     1       4.761   3.977  16.752  0.00  0.00    +0.000 A 
ATOM      5  N   UNL     1       3.527   3.582  17.152  0.00  0.00    +0.000 NA
ATOM      6  C   UNL     1       2.866   4.382  18.027  0.00  0.00    +0.000 A 
ENDROOT
BRANCH   6   7
ATOM      7  N   UNL     1       1.592   3.997  18.471  0.00  0.00    +0.000 N 
ATOM      8  C   UNL     1       1.140   2.772  18.836  0.00  0.00    +0.000 C 
ATOM      9  N   UNL     1       1.976   1.722  18.721  0.00  0.00    +0.000 N 
ATOM     10  O   UNL     1      -0.007   2.618  19.243  0.00  0.00    +0.000 OA
ATOM     11  H   UNL     1       0.893   4.723  18.543  0.00  0.00    +0.000 HD
ATOM     12  H   UNL     1       2.957   1.903  18.532  0.00  0.00    +0.000 HD
ATOM     13  H   UNL     1       1.683   0.822  19.076  0.00  0.00    +0.000 HD
ENDBRANCH   6   7
BRANCH   1  14
ATOM     14  O   UNL     1       2.694   6.329  19.426  0.00  0.00    +0.000 OA
BRANCH  14  20
ATOM     15  C   UNL     1       1.555   8.363  20.000  0.00  0.00    +0.000 A 
ATOM     16  N   UNL     1       1.050   9.592  19.696  0.00  0.00    +0.000 NA
ATOM     17  C   UNL     1       1.278  10.077  18.456  0.00  0.00    +0.000 A 
ATOM     18  C   UNL     1       2.011   9.407  17.496  0.00  0.00    +0.000 A 
ATOM     19  C   UNL     1       2.529   8.156  17.819  0.00  0.00    +0.000 A 
ATOM     20  C   UNL     1       2.256   7.588  19.068  0.00  0.00    +0.000 A 
BRANCH  15  22
ATOM     21  C   UNL     1       1.127   9.055  22.383  0.00  0.00    +0.000 C 
ATOM     22  C   UNL     1       1.302   7.899  21.411  0.00  0.00    +0.000 C 
ENDBRANCH  15  22
ENDBRANCH  14  20
ENDBRANCH   1  14
BRANCH   3  23
ATOM     23  S   UNL     1       6.990   5.604  16.573  0.00  0.00    +0.000 S 
BRANCH  23  24
ATOM     24  C   UNL     1       6.967   5.019  14.882  0.00  0.00    +0.000 A 
ATOM     25  C   UNL     1       5.991   4.096  14.513  0.00  0.00    +0.000 A 
ATOM     26  C   UNL     1       5.942   3.657  13.192  0.00  0.00    +0.000 A 
ATOM     27  C   UNL     1       6.860   4.155  12.278  0.00  0.00    +0.000 A 
ATOM     28  C   UNL     1       7.794   5.075  12.726  0.00  0.00    +0.000 A 
ATOM     29  N   UNL     1       7.869   5.517  14.004  0.00  0.00    +0.000 NA
ENDBRANCH  23  24
ENDBRANCH   3  23
TORSDOF 6
ENDMDL
