MODEL 1
REMARK VINA RESULT:      -7.2      0.000      0.000
REMARK  Name = 
REMARK  4 active torsions:
REMARK  status: ('A' for Active; 'I' for Inactive)
REMARK    1  A    between atoms: O_1  and  C_2
REMARK    2  A    between atoms: C_9  and  C_10
REMARK    3  A    between atoms: C_10  and  N_11
REMARK    4  A    between atoms: N_11  and  C_12
REMARK                            x       y       z     vdW  Elec       q    Type
REMARK                         _______ _______ _______ _____ _____    ______ ____
ROOT
ATOM      1  C   UNL     1       3.036   3.600  19.115  0.00  0.00    +0.000 A 
ATOM      2  C   UNL     1       2.335   3.985  20.266  0.00  0.00    +0.000 A 
ATOM      3 BR   UNL     1       1.837   2.701  21.569  0.00  0.00    +0.000 Br
ATOM      4  C   UNL     1       1.982   5.316  20.464  0.00  0.00    +0.000 A 
ATOM      5  C   UNL     1       2.325   6.260  19.499  0.00  0.00    +0.000 A 
ATOM      6 BR   UNL     1       1.833   8.068  19.747  0.00  0.00    +0.000 Br
ATOM      7  C   UNL     1       3.020   5.883  18.346  0.00  0.00    +0.000 A 
ATOM      8  C   UNL     1       3.408   4.545  18.148  0.00  0.00    +0.000 A 
ENDROOT
BRANCH   1   9
ATOM      9  O   UNL     1       3.363   2.288  18.900  0.00  0.00    +0.000 OA
ATOM     10  H   UNL     1       3.730   1.932  19.731  0.00  0.00    +0.000 HD
ENDBRANCH   1   9
BRANCH   8  11
ATOM     11  C   UNL     1       4.105   4.104  16.878  0.00  0.00    +0.000 C 
BRANCH  11  12
ATOM     12  N   UNL     1       5.521   3.810  17.115  0.00  0.00    +0.000 N 
ATOM     13  H   UNL     1       5.918   3.272  16.348  0.00  0.00    +0.000 HD
BRANCH  12  14
ATOM     14  C   UNL     1       6.369   4.873  17.468  0.00  0.00    +0.000 A 
ATOM     15  C   UNL     1       6.502   6.043  16.706  0.00  0.00    +0.000 A 
ATOM     16  C   UNL     1       7.302   7.103  17.142  0.00  0.00    +0.000 A 
ATOM     17  C   UNL     1       7.954   7.014  18.364  0.00  0.00    +0.000 A 
ATOM     18  F   UNL     1       8.718   8.030  18.784  0.00  0.00    +0.000 F 
ATOM     19  C   UNL     1       7.809   5.889  19.161  0.00  0.00    +0.000 A 
ATOM     20  C   UNL     1       7.005   4.833  18.720  0.00  0.00    +0.000 A 
ENDBRANCH  12  14
ENDBRANCH  11  12
ENDBRANCH   8  11
TORSDOF 4
ENDMDL
MODEL 2
REMARK VINA RESULT:      -7.1      0.092      1.138
REMARK  Name = 
REMARK  4 active torsions:
REMARK  status: ('A' for Active; 'I' for Inactive)
REMARK    1  A    between atoms: O_1  and  C_2
REMARK    2  A    between atoms: C_9  and  C_10
REMARK    3  A    between atoms: C_10  and  N_11
REMARK    4  A    between atoms: N_11  and  C_12
REMARK                            x       y       z     vdW  Elec       q    Type
REMARK                         _______ _______ _______ _____ _____    ______ ____
ROOT
ATOM      1  C   UNL     1       3.060   3.506  19.089  0.00  0.00    +0.000 A 
ATOM      2  C   UNL     1       2.362   3.906  20.236  0.00  0.00    +0.000 A 
ATOM      3 BR   UNL     1       1.857   2.639  21.553  0.00  0.00    +0.000 Br
ATOM      4  C   UNL     1       2.017   5.242  20.420  0.00  0.00    +0.000 A 
ATOM      5  C   UNL     1       2.364   6.173  19.445  0.00  0.00    +0.000 A 
ATOM      6 BR   UNL     1       1.883   7.987  19.674  0.00  0.00    +0.000 Br
ATOM      7  C   UNL     1       3.057   5.780  18.296  0.00  0.00    +0.000 A 
ATOM      8  C   UNL     1       3.437   4.438  18.111  0.00  0.00    +0.000 A 
ENDROOT
BRANCH   1   9
ATOM      9  O   UNL     1       3.379   2.189  18.887  0.00  0.00    +0.000 OA
ATOM     10  H   UNL     1       2.876   1.877  18.113  0.00  0.00    +0.000 HD
ENDBRANCH   1   9
BRANCH   8  11
ATOM     11  C   UNL     1       4.131   3.979  16.846  0.00  0.00    +0.000 C 
BRANCH  11  12
ATOM     12  N   UNL     1       5.566   3.778  17.061  0.00  0.00    +0.000 N 
ATOM     13  H   UNL     1       6.008   3.379  16.236  0.00  0.00    +0.000 HD
BRANCH  12  14
ATOM     14  C   UNL     1       6.319   4.854  17.559  0.00  0.00    +0.000 A 
ATOM     15  C   UNL     1       6.987   4.827  18.792  0.00  0.00    +0.000 A 
ATOM     16  C   UNL     1       7.784   5.897  19.207  0.00  0.00    +0.000 A 
ATOM     17  C   UNL     1       7.946   6.995  18.374  0.00  0.00    +0.000 A 
ATOM     18  F   UNL     1       8.713   8.020  18.770  0.00  0.00    +0.000 F 
ATOM     19  C   UNL     1       7.335   7.034  17.130  0.00  0.00    +0.000 A 
ATOM     20  C   UNL     1       6.540   5.960  16.721  0.00  0.00    +0.000 A 
ENDBRANCH  12  14
ENDBRANCH  11  12
ENDBRANCH   8  11
TORSDOF 4
ENDMDL
MODEL 3
REMARK VINA RESULT:      -6.8      1.129      2.475
REMARK  Name = 
REMARK  4 active torsions:
REMARK  status: ('A' for Active; 'I' for Inactive)
REMARK    1  A    between atoms: O_1  and  C_2
REMARK    2  A    between atoms: C_9  and  C_10
REMARK    3  A    between atoms: C_10  and  N_11
REMARK    4  A    between atoms: N_11  and  C_12
REMARK                            x       y       z     vdW  Elec       q    Type
REMARK                         _______ _______ _______ _____ _____    ______ ____
ROOT
ATOM      1  C   UNL     1       2.876   5.854  18.544  0.00  0.00    +0.000 A 
ATOM      2  C   UNL     1       2.229   6.193  19.740  0.00  0.00    +0.000 A 
ATOM      3 BR   UNL     1       1.794   7.998  20.125  0.00  0.00    +0.000 Br
ATOM      4  C   UNL     1       1.906   5.210  20.670  0.00  0.00    +0.000 A 
ATOM      5  C   UNL     1       2.244   3.886  20.403  0.00  0.00    +0.000 A 
ATOM      6 BR   UNL     1       1.828   2.544  21.668  0.00  0.00    +0.000 Br
ATOM      7  C   UNL     1       2.893   3.540  19.214  0.00  0.00    +0.000 A 
ATOM      8  C   UNL     1       3.200   4.521  18.252  0.00  0.00    +0.000 A 
ENDROOT
BRANCH   1   9
ATOM      9  O   UNL     1       3.222   6.819  17.636  0.00  0.00    +0.000 OA
ATOM     10  H   UNL     1       3.915   6.448  17.058  0.00  0.00    +0.000 HD
ENDBRANCH   1   9
BRANCH   8  11
ATOM     11  C   UNL     1       3.959   4.178  16.988  0.00  0.00    +0.000 C 
BRANCH  11  12
ATOM     12  N   UNL     1       5.348   3.811  17.277  0.00  0.00    +0.000 N 
ATOM     13  H   UNL     1       5.728   3.211  16.549  0.00  0.00    +0.000 HD
BRANCH  12  14
ATOM     14  C   UNL     1       6.252   4.837  17.599  0.00  0.00    +0.000 A 
ATOM     15  C   UNL     1       6.519   5.926  16.756  0.00  0.00    +0.000 A 
ATOM     16  C   UNL     1       7.370   6.959  17.157  0.00  0.00    +0.000 A 
ATOM     17  C   UNL     1       7.940   6.927  18.422  0.00  0.00    +0.000 A 
ATOM     18  F   UNL     1       8.753   7.919  18.808  0.00  0.00    +0.000 F 
ATOM     19  C   UNL     1       7.662   5.887  19.295  0.00  0.00    +0.000 A 
ATOM     20  C   UNL     1       6.808   4.857  18.889  0.00  0.00    +0.000 A 
ENDBRANCH  12  14
ENDBRANCH  11  12
ENDBRANCH   8  11
TORSDOF 4
ENDMDL
MODEL 4
REMARK VINA RESULT:      -6.6      1.119      2.718
REMARK  Name = 
REMARK  4 active torsions:
REMARK  status: ('A' for Active; 'I' for Inactive)
REMARK    1  A    between atoms: O_1  and  C_2
REMARK    2  A    between atoms: C_9  and  C_10
REMARK    3  A    between atoms: C_10  and  N_11
REMARK    4  A    between atoms: N_11  and  C_12
REMARK                            x       y       z     vdW  Elec       q    Type
REMARK                         _______ _______ _______ _____ _____    ______ ____
ROOT
ATOM      1  C   UNL     1       2.951   5.844  18.445  0.00  0.00    +0.000 A 
ATOM      2  C   UNL     1       2.296   6.211  19.628  0.00  0.00    +0.000 A 
ATOM      3 BR   UNL     1       1.860   8.025  19.970  0.00  0.00    +0.000 Br
ATOM      4  C   UNL     1       1.965   5.249  20.577  0.00  0.00    +0.000 A 
ATOM      5  C   UNL     1       2.304   3.919  20.342  0.00  0.00    +0.000 A 
ATOM      6 BR   UNL     1       1.877   2.605  21.633  0.00  0.00    +0.000 Br
ATOM      7  C   UNL     1       2.961   3.546  19.166  0.00  0.00    +0.000 A 
ATOM      8  C   UNL     1       3.276   4.505  18.185  0.00  0.00    +0.000 A 
ENDROOT
BRANCH   1   9
ATOM      9  O   UNL     1       3.305   6.789  17.518  0.00  0.00    +0.000 OA
ATOM     10  H   UNL     1       2.692   7.542  17.612  0.00  0.00    +0.000 HD
ENDBRANCH   1   9
BRANCH   8  11
ATOM     11  C   UNL     1       4.045   4.134  16.934  0.00  0.00    +0.000 C 
BRANCH  11  12
ATOM     12  N   UNL     1       5.452   3.853  17.230  0.00  0.00    +0.000 N 
ATOM     13  H   UNL     1       5.902   3.373  16.454  0.00  0.00    +0.000 HD
BRANCH  12  14
ATOM     14  C   UNL     1       6.255   4.908  17.696  0.00  0.00    +0.000 A 
ATOM     15  C   UNL     1       6.926   4.885  18.927  0.00  0.00    +0.000 A 
ATOM     16  C   UNL     1       7.773   5.929  19.309  0.00  0.00    +0.000 A 
ATOM     17  C   UNL     1       7.979   6.996  18.446  0.00  0.00    +0.000 A 
ATOM     18  F   UNL     1       8.793   7.996  18.809  0.00  0.00    +0.000 F 
ATOM     19  C   UNL     1       7.364   7.028  17.203  0.00  0.00    +0.000 A 
ATOM     20  C   UNL     1       6.520   5.980  16.826  0.00  0.00    +0.000 A 
ENDBRANCH  12  14
ENDBRANCH  11  12
ENDBRANCH   8  11
TORSDOF 4
ENDMDL
MODEL 5
REMARK VINA RESULT:      -6.6      2.953      3.555
REMARK  Name = 
REMARK  4 active torsions:
REMARK  status: ('A' for Active; 'I' for Inactive)
REMARK    1  A    between atoms: O_1  and  C_2
REMARK    2  A    between atoms: C_9  and  C_10
REMARK    3  A    between atoms: C_10  and  N_11
REMARK    4  A    between atoms: N_11  and  C_12
REMARK                            x       y       z     vdW  Elec       q    Type
REMARK                         _______ _______ _______ _____ _____    ______ ____
ROOT
ATOM      1  C   UNL     1       4.336   4.039  19.178  0.00  0.00    +0.000 A 
ATOM      2  C   UNL     1       3.141   4.384  19.822  0.00  0.00    +0.000 A 
ATOM      3 BR   UNL     1       2.364   3.223  21.106  0.00  0.00    +0.000 Br
ATOM      4  C   UNL     1       2.498   5.580  19.522  0.00  0.00    +0.000 A 
ATOM      5  C   UNL     1       3.051   6.425  18.563  0.00  0.00    +0.000 A 
ATOM      6 BR   UNL     1       2.176   8.045  18.131  0.00  0.00    +0.000 Br
ATOM      7  C   UNL     1       4.241   6.086  17.913  0.00  0.00    +0.000 A 
ATOM      8  C   UNL     1       4.916   4.892  18.228  0.00  0.00    +0.000 A 
ENDROOT
BRANCH   1   9
ATOM      9  O   UNL     1       4.961   2.850  19.448  0.00  0.00    +0.000 OA
ATOM     10  H   UNL     1       4.566   2.485  20.262  0.00  0.00    +0.000 HD
ENDBRANCH   1   9
BRANCH   8  11
ATOM     11  C   UNL     1       6.171   4.475  17.491  0.00  0.00    +0.000 C 
BRANCH  11  12
ATOM     12  N   UNL     1       5.873   3.528  16.413  0.00  0.00    +0.000 N 
ATOM     13  H   UNL     1       4.888   3.273  16.411  0.00  0.00    +0.000 HD
BRANCH  12  14
ATOM     14  C   UNL     1       6.309   3.843  15.115  0.00  0.00    +0.000 A 
ATOM     15  C   UNL     1       5.801   3.233  13.959  0.00  0.00    +0.000 A 
ATOM     16  C   UNL     1       6.216   3.637  12.686  0.00  0.00    +0.000 A 
ATOM     17  C   UNL     1       7.123   4.679  12.559  0.00  0.00    +0.000 A 
ATOM     18  F   UNL     1       7.518   5.068  11.340  0.00  0.00    +0.000 F 
ATOM     19  C   UNL     1       7.611   5.331  13.681  0.00  0.00    +0.000 A 
ATOM     20  C   UNL     1       7.191   4.924  14.950  0.00  0.00    +0.000 A 
ENDBRANCH  12  14
ENDBRANCH  11  12
ENDBRANCH   8  11
TORSDOF 4
ENDMDL
MODEL 6
REMARK VINA RESULT:      -6.6      3.231      3.892
REMARK  Name = 
REMARK  4 active torsions:
REMARK  status: ('A' for Active; 'I' for Inactive)
REMARK    1  A    between atoms: O_1  and  C_2
REMARK    2  A    between atoms: C_9  and  C_10
REMARK    3  A    between atoms: C_10  and  N_11
REMARK    4  A    between atoms: N_11  and  C_12
REMARK                            x       y       z     vdW  Elec       q    Type
REMARK                         _______ _______ _______ _____ _____    ______ ____
ROOT
ATOM      1  C   UNL     1       3.735   3.692  17.904  0.00  0.00    +0.000 A 
ATOM      2  C   UNL     1       2.427   3.997  18.304  0.00  0.00    +0.000 A 
ATOM      3 BR   UNL     1       1.209   2.617  18.762  0.00  0.00    +0.000 Br
ATOM      4  C   UNL     1       1.997   5.319  18.360  0.00  0.00    +0.000 A 
ATOM      5  C   UNL     1       2.879   6.335  18.003  0.00  0.00    +0.000 A 
ATOM      6 BR   UNL     1       2.301   8.134  18.055  0.00  0.00    +0.000 Br
ATOM      7  C   UNL     1       4.184   6.039  17.598  0.00  0.00    +0.000 A 
ATOM      8  C   UNL     1       4.640   4.708  17.565  0.00  0.00    +0.000 A 
ENDROOT
BRANCH   1   9
ATOM      9  O   UNL     1       4.157   2.392  17.820  0.00  0.00    +0.000 OA
ATOM     10  H   UNL     1       3.842   2.032  16.969  0.00  0.00    +0.000 HD
ENDBRANCH   1   9
BRANCH   8  11
ATOM     11  C   UNL     1       6.028   4.360  17.069  0.00  0.00    +0.000 C 
BRANCH  11  12
ATOM     12  N   UNL     1       5.978   3.454  15.918  0.00  0.00    +0.000 N 
ATOM     13  H   UNL     1       5.077   2.985  15.860  0.00  0.00    +0.000 HD
BRANCH  12  14
ATOM     14  C   UNL     1       6.361   3.955  14.663  0.00  0.00    +0.000 A 
ATOM     15  C   UNL     1       7.335   4.949  14.490  0.00  0.00    +0.000 A 
ATOM     16  C   UNL     1       7.734   5.358  13.215  0.00  0.00    +0.000 A 
ATOM     17  C   UNL     1       7.181   4.752  12.096  0.00  0.00    +0.000 A 
ATOM     18  F   UNL     1       7.564   5.141  10.873  0.00  0.00    +0.000 F 
ATOM     19  C   UNL     1       6.247   3.736  12.232  0.00  0.00    +0.000 A 
ATOM     20  C   UNL     1       5.854   3.330  13.511  0.00  0.00    +0.000 A 
ENDBRANCH  12  14
ENDBRANCH  11  12
ENDBRANCH   8  11
TORSDOF 4
ENDMDL
MODEL 7
REMARK VINA RESULT:      -6.6      4.976      6.584
REMARK  Name = 
REMARK  4 active torsions:
REMARK  status: ('A' for Active; 'I' for Inactive)
REMARK    1  A    between atoms: O_1  and  C_2
REMARK    2  A    between atoms: C_9  and  C_10
REMARK    3  A    between atoms: C_10  and  N_11
REMARK    4  A    between atoms: N_11  and  C_12
REMARK                            x       y       z     vdW  Elec       q    Type
REMARK                         _______ _______ _______ _____ _____    ______ ____
ROOT
ATOM      1  C   UNL     1       0.691   9.823  18.696  0.00  0.00    +0.000 A 
ATOM      2  C   UNL     1      -0.244  10.716  19.237  0.00  0.00    +0.000 A 
ATOM      3 BR   UNL     1      -1.080  12.022  18.145  0.00  0.00    +0.000 Br
ATOM      4  C   UNL     1      -0.564  10.666  20.590  0.00  0.00    +0.000 A 
ATOM      5  C   UNL     1       0.065   9.725  21.402  0.00  0.00    +0.000 A 
ATOM      6 BR   UNL     1      -0.346   9.661  23.246  0.00  0.00    +0.000 Br
ATOM      7  C   UNL     1       1.001   8.834  20.870  0.00  0.00    +0.000 A 
ATOM      8  C   UNL     1       1.312   8.855  19.497  0.00  0.00    +0.000 A 
ENDROOT
BRANCH   1   9
ATOM      9  O   UNL     1       1.031   9.884  17.370  0.00  0.00    +0.000 OA
ATOM     10  H   UNL     1       1.990  10.059  17.317  0.00  0.00    +0.000 HD
ENDBRANCH   1   9
BRANCH   8  11
ATOM     11  C   UNL     1       2.370   7.943  18.912  0.00  0.00    +0.000 C 
BRANCH  11  12
ATOM     12  N   UNL     1       2.635   6.796  19.786  0.00  0.00    +0.000 N 
ATOM     13  H   UNL     1       2.444   7.025  20.758  0.00  0.00    +0.000 HD
BRANCH  12  14
ATOM     14  C   UNL     1       2.068   5.557  19.443  0.00  0.00    +0.000 A 
ATOM     15  C   UNL     1       2.116   5.014  18.151  0.00  0.00    +0.000 A 
ATOM     16  C   UNL     1       1.602   3.743  17.882  0.00  0.00    +0.000 A 
ATOM     17  C   UNL     1       1.061   2.989  18.913  0.00  0.00    +0.000 A 
ATOM     18  F   UNL     1       0.572   1.768  18.655  0.00  0.00    +0.000 F 
ATOM     19  C   UNL     1       1.038   3.478  20.209  0.00  0.00    +0.000 A 
ATOM     20  C   UNL     1       1.556   4.750  20.473  0.00  0.00    +0.000 A 
ENDBRANCH  12  14
ENDBRANCH  11  12
ENDBRANCH   8  11
TORSDOF 4
ENDMDL
MODEL 8
REMARK VINA RESULT:      -6.5      3.430      5.399
REMARK  Name = 
REMARK  4 active torsions:
REMARK  status: ('A' for Active; 'I' for Inactive)
REMARK    1  A    between atoms: O_1  and  C_2
REMARK    2  A    between atoms: C_9  and  C_10
REMARK    3  A    between atoms: C_10  and  N_11
REMARK    4  A    between atoms: N_11  and  C_12
REMARK                            x       y       z     vdW  Elec       q    Type
REMARK                         _______ _______ _______ _____ _____    ______ ____
ROOT
ATOM      1  C   UNL     1       5.551   4.975  17.296  0.00  0.00    +0.000 A 
ATOM      2  C   UNL     1       5.888   6.285  17.661  0.00  0.00    +0.000 A 
ATOM      3 BR   UNL     1       7.703   6.798  17.860  0.00  0.00    +0.000 Br
ATOM      4  C   UNL     1       4.893   7.229  17.897  0.00  0.00    +0.000 A 
ATOM      5  C   UNL     1       3.558   6.853  17.775  0.00  0.00    +0.000 A 
ATOM      6 BR   UNL     1       2.197   8.121  18.112  0.00  0.00    +0.000 Br
ATOM      7  C   UNL     1       3.214   5.546  17.415  0.00  0.00    +0.000 A 
ATOM      8  C   UNL     1       4.211   4.590  17.147  0.00  0.00    +0.000 A 
ENDROOT
BRANCH   1   9
ATOM      9  O   UNL     1       6.524   4.033  17.090  0.00  0.00    +0.000 OA
ATOM     10  H   UNL     1       7.346   4.502  16.852  0.00  0.00    +0.000 HD
ENDBRANCH   1   9
BRANCH   8  11
ATOM     11  C   UNL     1       3.861   3.154  16.818  0.00  0.00    +0.000 C 
BRANCH  11  12
ATOM     12  N   UNL     1       4.165   2.256  17.935  0.00  0.00    +0.000 N 
ATOM     13  H   UNL     1       5.145   2.319  18.200  0.00  0.00    +0.000 HD
BRANCH  12  14
ATOM     14  C   UNL     1       3.339   2.306  19.070  0.00  0.00    +0.000 A 
ATOM     15  C   UNL     1       3.824   2.476  20.375  0.00  0.00    +0.000 A 
ATOM     16  C   UNL     1       2.952   2.595  21.461  0.00  0.00    +0.000 A 
ATOM     17  C   UNL     1       1.582   2.575  21.246  0.00  0.00    +0.000 A 
ATOM     18  F   UNL     1       0.746   2.692  22.287  0.00  0.00    +0.000 F 
ATOM     19  C   UNL     1       1.069   2.452  19.964  0.00  0.00    +0.000 A 
ATOM     20  C   UNL     1       1.946   2.336  18.881  0.00  0.00    +0.000 A 
ENDBRANCH  12  14
ENDBRANCH  11  12
ENDBRANCH   8  11
TORSDOF 4
ENDMDL
MODEL 9
REMARK VINA RESULT:      -6.5      4.017      6.350
REMARK  Name = 
REMARK  4 active torsions:
REMARK  status: ('A' for Active; 'I' for Inactive)
REMARK    1  A    between atoms: O_1  and  C_2
REMARK    2  A    between atoms: C_9  and  C_10
REMARK    3  A    between atoms: C_10  and  N_11
REMARK    4  A    between atoms: N_11  and  C_12
REMARK                            x       y       z     vdW  Elec       q    Type
REMARK                         _______ _______ _______ _____ _____    ______ ____
ROOT
ATOM      1  C   UNL     1       5.574   5.173  17.084  0.00  0.00    +0.000 A 
ATOM      2  C   UNL     1       6.687   5.854  16.574  0.00  0.00    +0.000 A 
ATOM      3 BR   UNL     1       7.577   7.168  17.613  0.00  0.00    +0.000 Br
ATOM      4  C   UNL     1       7.150   5.586  15.289  0.00  0.00    +0.000 A 
ATOM      5  C   UNL     1       6.486   4.640  14.513  0.00  0.00    +0.000 A 
ATOM      6 BR   UNL     1       7.093   4.281  12.759  0.00  0.00    +0.000 Br
ATOM      7  C   UNL     1       5.373   3.959  15.013  0.00  0.00    +0.000 A 
ATOM      8  C   UNL     1       4.912   4.200  16.321  0.00  0.00    +0.000 A 
ENDROOT
BRANCH   1   9
ATOM      9  O   UNL     1       5.096   5.451  18.337  0.00  0.00    +0.000 OA
ATOM     10  H   UNL     1       5.861   5.526  18.937  0.00  0.00    +0.000 HD
ENDBRANCH   1   9
BRANCH   8  11
ATOM     11  C   UNL     1       3.670   3.521  16.860  0.00  0.00    +0.000 C 
BRANCH  11  12
ATOM     12  N   UNL     1       4.000   2.534  17.891  0.00  0.00    +0.000 N 
ATOM     13  H   UNL     1       4.989   2.567  18.127  0.00  0.00    +0.000 HD
BRANCH  12  14
ATOM     14  C   UNL     1       3.211   2.500  19.053  0.00  0.00    +0.000 A 
ATOM     15  C   UNL     1       3.744   2.478  20.350  0.00  0.00    +0.000 A 
ATOM     16  C   UNL     1       2.914   2.522  21.474  0.00  0.00    +0.000 A 
ATOM     17  C   UNL     1       1.540   2.619  21.308  0.00  0.00    +0.000 A 
ATOM     18  F   UNL     1       0.744   2.663  22.385  0.00  0.00    +0.000 F 
ATOM     19  C   UNL     1       0.984   2.686  20.040  0.00  0.00    +0.000 A 
ATOM     20  C   UNL     1       1.820   2.645  18.920  0.00  0.00    +0.000 A 
ENDBRANCH  12  14
ENDBRANCH  11  12
ENDBRANCH   8  11
TORSDOF 4
ENDMDL
