MODEL 1
REMARK VINA RESULT:      -8.1      0.000      0.000
REMARK  Name = 
REMARK  4 active torsions:
REMARK  status: ('A' for Active; 'I' for Inactive)
REMARK    1  A    between atoms: C_1  and  C_2
REMARK    2  A    between atoms: C_8  and  C_10
REMARK    3  A    between atoms: C_12  and  C_13
REMARK    4  A    between atoms: C_28  and  C_29
REMARK                            x       y       z     vdW  Elec       q    Type
REMARK                         _______ _______ _______ _____ _____    ______ ____
ROOT
ATOM      1  C   UNL     1      -2.931  12.478  22.490  0.00  0.00    +0.000 A 
ATOM      2  C   UNL     1      -3.185  12.102  23.773  0.00  0.00    +0.000 A 
ATOM      3  C   UNL     1      -3.975  12.998  24.429  0.00  0.00    +0.000 A 
ATOM      4  N   UNL     1      -5.191  12.814  23.953  0.00  0.00    +0.000 NA
ATOM      5  C   UNL     1      -5.262  12.983  22.612  0.00  0.00    +0.000 A 
ATOM      6  C   UNL     1      -6.524  13.222  22.128  0.00  0.00    +0.000 A 
ATOM      7  C   UNL     1      -6.688  14.159  21.133  0.00  0.00    +0.000 A 
ATOM      8  C   UNL     1      -5.535  14.754  20.621  0.00  0.00    +0.000 A 
ATOM      9  C   UNL     1      -4.246  14.208  20.899  0.00  0.00    +0.000 A 
ATOM     10  C   UNL     1      -4.070  13.175  21.879  0.00  0.00    +0.000 A 
ENDROOT
BRANCH   1  18
ATOM     11  C   UNL     1      -2.766   9.728  15.572  0.00  0.00    +0.000 C 
ATOM     12  C   UNL     1      -2.380  10.348  16.887  0.00  0.00    +0.000 A 
ATOM     13  C   UNL     1      -1.114  10.107  17.462  0.00  0.00    +0.000 A 
ATOM     14  C   UNL     1      -0.775  10.616  18.748  0.00  0.00    +0.000 A 
ATOM     15  N   UNL     1       0.404  10.508  19.418  0.00  0.00    +0.000 NA
ATOM     16  C   UNL     1       0.220  11.145  20.555  0.00  0.00    +0.000 A 
ATOM     17  N   UNL     1      -1.085  11.594  20.760  0.00  0.00    +0.000 N 
ATOM     18  C   UNL     1      -1.540  12.074  22.087  0.00  0.00    +0.000 C 
ATOM     19  O   UNL     1      -0.677  12.141  22.958  0.00  0.00    +0.000 OA
ATOM     20  C   UNL     1      -1.697  11.384  19.481  0.00  0.00    +0.000 A 
ATOM     21  C   UNL     1      -2.900  11.718  18.818  0.00  0.00    +0.000 A 
ATOM     22  C   UNL     1      -3.269  11.172  17.568  0.00  0.00    +0.000 A 
ATOM     23  C   UNL     1      -4.642  11.494  17.026  0.00  0.00    +0.000 C 
ENDBRANCH   1  18
BRANCH   3  24
ATOM     24  C   UNL     1      -3.489  14.450  24.552  0.00  0.00    +0.000 A 
ATOM     25  C   UNL     1      -2.170  14.756  24.950  0.00  0.00    +0.000 A 
ATOM     26  C   UNL     1      -1.786  16.058  25.299  0.00  0.00    +0.000 A 
ATOM     27  C   UNL     1      -2.707  17.100  25.249  0.00  0.00    +0.000 A 
ATOM     28  C   UNL     1      -4.013  16.842  24.857  0.00  0.00    +0.000 A 
ATOM     29  C   UNL     1      -4.395  15.539  24.503  0.00  0.00    +0.000 A 
ENDBRANCH   3  24
TORSDOF 2
ENDMDL
MODEL 2
REMARK VINA RESULT:      -7.4      2.539      6.501
REMARK  Name = 
REMARK  4 active torsions:
REMARK  status: ('A' for Active; 'I' for Inactive)
REMARK    1  A    between atoms: C_1  and  C_2
REMARK    2  A    between atoms: C_8  and  C_10
REMARK    3  A    between atoms: C_12  and  C_13
REMARK    4  A    between atoms: C_28  and  C_29
REMARK                            x       y       z     vdW  Elec       q    Type
REMARK                         _______ _______ _______ _____ _____    ______ ____
ROOT
ATOM      1  C   UNL     1      -1.097  10.215  18.950  0.00  0.00    +0.000 A 
ATOM      2  C   UNL     1      -0.061  10.180  18.071  0.00  0.00    +0.000 A 
ATOM      3  C   UNL     1       1.080  10.716  18.590  0.00  0.00    +0.000 A 
ATOM      4  N   UNL     1       1.542   9.813  19.434  0.00  0.00    +0.000 NA
ATOM      5  C   UNL     1       0.655   9.501  20.408  0.00  0.00    +0.000 A 
ATOM      6  C   UNL     1       1.205   8.916  21.522  0.00  0.00    +0.000 A 
ATOM      7  C   UNL     1       0.742   9.285  22.763  0.00  0.00    +0.000 A 
ATOM      8  C   UNL     1      -0.325  10.184  22.805  0.00  0.00    +0.000 A 
ATOM      9  C   UNL     1      -1.085  10.469  21.632  0.00  0.00    +0.000 A 
ATOM     10  C   UNL     1      -0.655  10.023  20.338  0.00  0.00    +0.000 A 
ENDROOT
BRANCH   1  18
ATOM     11  C   UNL     1      -5.434  15.014  22.639  0.00  0.00    +0.000 C 
ATOM     12  C   UNL     1      -4.806  14.171  21.564  0.00  0.00    +0.000 A 
ATOM     13  C   UNL     1      -5.584  13.621  20.521  0.00  0.00    +0.000 A 
ATOM     14  C   UNL     1      -5.013  12.749  19.551  0.00  0.00    +0.000 A 
ATOM     15  N   UNL     1      -5.611  12.173  18.474  0.00  0.00    +0.000 NA
ATOM     16  C   UNL     1      -4.670  11.464  17.888  0.00  0.00    +0.000 A 
ATOM     17  N   UNL     1      -3.461  11.422  18.585  0.00  0.00    +0.000 N 
ATOM     18  C   UNL     1      -2.394  10.456  18.230  0.00  0.00    +0.000 C 
ATOM     19  O   UNL     1      -2.603   9.769  17.234  0.00  0.00    +0.000 OA
ATOM     20  C   UNL     1      -3.648  12.415  19.602  0.00  0.00    +0.000 A 
ATOM     21  C   UNL     1      -2.875  13.089  20.575  0.00  0.00    +0.000 A 
ATOM     22  C   UNL     1      -3.441  13.911  21.576  0.00  0.00    +0.000 A 
ATOM     23  C   UNL     1      -2.528  14.464  22.646  0.00  0.00    +0.000 C 
ENDBRANCH   1  18
BRANCH   3  24
ATOM     24  C   UNL     1       1.049  12.171  19.078  0.00  0.00    +0.000 A 
ATOM     25  C   UNL     1       1.636  12.551  20.305  0.00  0.00    +0.000 A 
ATOM     26  C   UNL     1       1.408  13.812  20.875  0.00  0.00    +0.000 A 
ATOM     27  C   UNL     1       0.596  14.738  20.230  0.00  0.00    +0.000 A 
ATOM     28  C   UNL     1       0.004  14.406  19.019  0.00  0.00    +0.000 A 
ATOM     29  C   UNL     1       0.237  13.146  18.447  0.00  0.00    +0.000 A 
ENDBRANCH   3  24
TORSDOF 2
ENDMDL
MODEL 3
REMARK VINA RESULT:      -7.2      2.743      5.061
REMARK  Name = 
REMARK  4 active torsions:
REMARK  status: ('A' for Active; 'I' for Inactive)
REMARK    1  A    between atoms: C_1  and  C_2
REMARK    2  A    between atoms: C_8  and  C_10
REMARK    3  A    between atoms: C_12  and  C_13
REMARK    4  A    between atoms: C_28  and  C_29
REMARK                            x       y       z     vdW  Elec       q    Type
REMARK                         _______ _______ _______ _____ _____    ______ ____
ROOT
ATOM      1  C   UNL     1      -2.553  14.475  21.620  0.00  0.00    +0.000 A 
ATOM      2  C   UNL     1      -2.313  14.154  22.920  0.00  0.00    +0.000 A 
ATOM      3  C   UNL     1      -1.054  13.671  23.113  0.00  0.00    +0.000 A 
ATOM      4  N   UNL     1      -0.258  14.721  23.047  0.00  0.00    +0.000 NA
ATOM      5  C   UNL     1      -0.358  15.384  21.871  0.00  0.00    +0.000 A 
ATOM      6  C   UNL     1       0.707  16.198  21.576  0.00  0.00    +0.000 A 
ATOM      7  C   UNL     1       1.172  16.241  20.281  0.00  0.00    +0.000 A 
ATOM      8  C   UNL     1       0.469  15.505  19.326  0.00  0.00    +0.000 A 
ATOM      9  C   UNL     1      -0.827  14.982  19.616  0.00  0.00    +0.000 A 
ATOM     10  C   UNL     1      -1.357  15.001  20.949  0.00  0.00    +0.000 A 
ENDROOT
BRANCH   1  18
ATOM     11  C   UNL     1      -2.991   9.746  15.885  0.00  0.00    +0.000 C 
ATOM     12  C   UNL     1      -3.303  10.556  17.113  0.00  0.00    +0.000 A 
ATOM     13  C   UNL     1      -4.606  11.044  17.353  0.00  0.00    +0.000 A 
ATOM     14  C   UNL     1      -4.890  11.887  18.465  0.00  0.00    +0.000 A 
ATOM     15  N   UNL     1      -6.087  12.404  18.853  0.00  0.00    +0.000 NA
ATOM     16  C   UNL     1      -5.830  13.107  19.935  0.00  0.00    +0.000 A 
ATOM     17  N   UNL     1      -4.474  13.203  20.252  0.00  0.00    +0.000 N 
ATOM     18  C   UNL     1      -3.981  14.176  21.257  0.00  0.00    +0.000 C 
ATOM     19  O   UNL     1      -4.842  14.815  21.853  0.00  0.00    +0.000 OA
ATOM     20  C   UNL     1      -3.873  12.251  19.366  0.00  0.00    +0.000 A 
ATOM     21  C   UNL     1      -2.616  11.635  19.172  0.00  0.00    +0.000 A 
ATOM     22  C   UNL     1      -2.309  10.845  18.041  0.00  0.00    +0.000 A 
ATOM     23  C   UNL     1      -0.889  10.357  17.875  0.00  0.00    +0.000 C 
ENDBRANCH   1  18
BRANCH   3  24
ATOM     24  C   UNL     1      -0.621  12.422  22.332  0.00  0.00    +0.000 A 
ATOM     25  C   UNL     1      -1.153  11.148  22.625  0.00  0.00    +0.000 A 
ATOM     26  C   UNL     1      -0.598   9.974  22.095  0.00  0.00    +0.000 A 
ATOM     27  C   UNL     1       0.501  10.039  21.244  0.00  0.00    +0.000 A 
ATOM     28  C   UNL     1       1.051  11.273  20.926  0.00  0.00    +0.000 A 
ATOM     29  C   UNL     1       0.491  12.447  21.453  0.00  0.00    +0.000 A 
ENDBRANCH   3  24
TORSDOF 2
ENDMDL
MODEL 4
REMARK VINA RESULT:      -7.2      2.688      4.316
REMARK  Name = 
REMARK  4 active torsions:
REMARK  status: ('A' for Active; 'I' for Inactive)
REMARK    1  A    between atoms: C_1  and  C_2
REMARK    2  A    between atoms: C_8  and  C_10
REMARK    3  A    between atoms: C_12  and  C_13
REMARK    4  A    between atoms: C_28  and  C_29
REMARK                            x       y       z     vdW  Elec       q    Type
REMARK                         _______ _______ _______ _____ _____    ______ ____
ROOT
ATOM      1  C   UNL     1      -5.768  14.678  22.132  0.00  0.00    +0.000 A 
ATOM      2  C   UNL     1      -5.716  14.431  23.468  0.00  0.00    +0.000 A 
ATOM      3  C   UNL     1      -4.471  14.632  23.985  0.00  0.00    +0.000 A 
ATOM      4  N   UNL     1      -4.322  15.941  24.048  0.00  0.00    +0.000 NA
ATOM      5  C   UNL     1      -4.460  16.545  22.844  0.00  0.00    +0.000 A 
ATOM      6  C   UNL     1      -3.912  17.801  22.764  0.00  0.00    +0.000 A 
ATOM      7  C   UNL     1      -3.241  18.162  21.618  0.00  0.00    +0.000 A 
ATOM      8  C   UNL     1      -3.230  17.242  20.569  0.00  0.00    +0.000 A 
ATOM      9  C   UNL     1      -4.113  16.121  20.572  0.00  0.00    +0.000 A 
ATOM     10  C   UNL     1      -4.879  15.778  21.735  0.00  0.00    +0.000 A 
ENDROOT
BRANCH   1  18
ATOM     11  C   UNL     1      -2.433  10.884  16.660  0.00  0.00    +0.000 C 
ATOM     12  C   UNL     1      -3.381  11.317  17.745  0.00  0.00    +0.000 A 
ATOM     13  C   UNL     1      -4.765  11.057  17.650  0.00  0.00    +0.000 A 
ATOM     14  C   UNL     1      -5.679  11.542  18.628  0.00  0.00    +0.000 A 
ATOM     15  N   UNL     1      -7.024  11.347  18.701  0.00  0.00    +0.000 NA
ATOM     16  C   UNL     1      -7.412  11.989  19.782  0.00  0.00    +0.000 A 
ATOM     17  N   UNL     1      -6.407  12.731  20.405  0.00  0.00    +0.000 N 
ATOM     18  C   UNL     1      -6.719  13.730  21.455  0.00  0.00    +0.000 C 
ATOM     19  O   UNL     1      -7.894  13.792  21.804  0.00  0.00    +0.000 OA
ATOM     20  C   UNL     1      -5.224  12.293  19.726  0.00  0.00    +0.000 A 
ATOM     21  C   UNL     1      -3.822  12.417  19.860  0.00  0.00    +0.000 A 
ATOM     22  C   UNL     1      -2.911  11.990  18.867  0.00  0.00    +0.000 A 
ATOM     23  C   UNL     1      -1.446  12.303  19.060  0.00  0.00    +0.000 C 
ENDBRANCH   1  18
BRANCH   3  24
ATOM     24  C   UNL     1      -3.299  13.826  23.408  0.00  0.00    +0.000 A 
ATOM     25  C   UNL     1      -3.311  12.415  23.391  0.00  0.00    +0.000 A 
ATOM     26  C   UNL     1      -2.162  11.668  23.096  0.00  0.00    +0.000 A 
ATOM     27  C   UNL     1      -0.965  12.310  22.796  0.00  0.00    +0.000 A 
ATOM     28  C   UNL     1      -0.912  13.698  22.797  0.00  0.00    +0.000 A 
ATOM     29  C   UNL     1      -2.064  14.443  23.087  0.00  0.00    +0.000 A 
ENDBRANCH   3  24
TORSDOF 2
ENDMDL
MODEL 5
REMARK VINA RESULT:      -7.1      2.329      3.919
REMARK  Name = 
REMARK  4 active torsions:
REMARK  status: ('A' for Active; 'I' for Inactive)
REMARK    1  A    between atoms: C_1  and  C_2
REMARK    2  A    between atoms: C_8  and  C_10
REMARK    3  A    between atoms: C_12  and  C_13
REMARK    4  A    between atoms: C_28  and  C_29
REMARK                            x       y       z     vdW  Elec       q    Type
REMARK                         _______ _______ _______ _____ _____    ______ ____
ROOT
ATOM      1  C   UNL     1      -4.623  12.820  21.606  0.00  0.00    +0.000 A 
ATOM      2  C   UNL     1      -5.584  13.020  22.547  0.00  0.00    +0.000 A 
ATOM      3  C   UNL     1      -6.785  13.361  22.000  0.00  0.00    +0.000 A 
ATOM      4  N   UNL     1      -7.272  12.244  21.494  0.00  0.00    +0.000 NA
ATOM      5  C   UNL     1      -6.453  11.681  20.575  0.00  0.00    +0.000 A 
ATOM      6  C   UNL     1      -7.063  10.789  19.729  0.00  0.00    +0.000 A 
ATOM      7  C   UNL     1      -6.718  10.793  18.397  0.00  0.00    +0.000 A 
ATOM      8  C   UNL     1      -5.698  11.662  18.005  0.00  0.00    +0.000 A 
ATOM      9  C   UNL     1      -4.860  12.289  18.976  0.00  0.00    +0.000 A 
ATOM     10  C   UNL     1      -5.165  12.227  20.376  0.00  0.00    +0.000 A 
ENDROOT
BRANCH   1  18
ATOM     11  C   UNL     1       0.973   9.466  18.016  0.00  0.00    +0.000 C 
ATOM     12  C   UNL     1       0.152  10.433  18.824  0.00  0.00    +0.000 A 
ATOM     13  C   UNL     1       0.715  11.137  19.911  0.00  0.00    +0.000 A 
ATOM     14  C   UNL     1      -0.078  11.985  20.735  0.00  0.00    +0.000 A 
ATOM     15  N   UNL     1       0.317  12.755  21.785  0.00  0.00    +0.000 NA
ATOM     16  C   UNL     1      -0.776  13.352  22.211  0.00  0.00    +0.000 A 
ATOM     17  N   UNL     1      -1.946  12.936  21.575  0.00  0.00    +0.000 N 
ATOM     18  C   UNL     1      -3.285  13.284  22.109  0.00  0.00    +0.000 C 
ATOM     19  O   UNL     1      -3.296  14.033  23.081  0.00  0.00    +0.000 OA
ATOM     20  C   UNL     1      -1.451  12.152  20.482  0.00  0.00    +0.000 A 
ATOM     21  C   UNL     1      -1.949  11.541  19.309  0.00  0.00    +0.000 A 
ATOM     22  C   UNL     1      -1.186  10.652  18.517  0.00  0.00    +0.000 A 
ATOM     23  C   UNL     1      -1.871   9.953  17.367  0.00  0.00    +0.000 C 
ENDBRANCH   1  18
BRANCH   3  24
ATOM     24  C   UNL     1      -6.858  14.614  21.115  0.00  0.00    +0.000 A 
ATOM     25  C   UNL     1      -7.647  14.646  19.945  0.00  0.00    +0.000 A 
ATOM     26  C   UNL     1      -7.537  15.682  19.007  0.00  0.00    +0.000 A 
ATOM     27  C   UNL     1      -6.642  16.726  19.215  0.00  0.00    +0.000 A 
ATOM     28  C   UNL     1      -5.850  16.734  20.356  0.00  0.00    +0.000 A 
ATOM     29  C   UNL     1      -5.966  15.700  21.296  0.00  0.00    +0.000 A 
ENDBRANCH   3  24
TORSDOF 2
ENDMDL
MODEL 6
REMARK VINA RESULT:      -7.0      2.576      6.327
REMARK  Name = 
REMARK  4 active torsions:
REMARK  status: ('A' for Active; 'I' for Inactive)
REMARK    1  A    between atoms: C_1  and  C_2
REMARK    2  A    between atoms: C_8  and  C_10
REMARK    3  A    between atoms: C_12  and  C_13
REMARK    4  A    between atoms: C_28  and  C_29
REMARK                            x       y       z     vdW  Elec       q    Type
REMARK                         _______ _______ _______ _____ _____    ______ ____
ROOT
ATOM      1  C   UNL     1      -0.417  12.737  18.701  0.00  0.00    +0.000 A 
ATOM      2  C   UNL     1       0.756  12.051  18.760  0.00  0.00    +0.000 A 
ATOM      3  C   UNL     1       0.587  10.766  19.178  0.00  0.00    +0.000 A 
ATOM      4  N   UNL     1       0.066  10.125  18.150  0.00  0.00    +0.000 NA
ATOM      5  C   UNL     1      -1.102  10.665  17.730  0.00  0.00    +0.000 A 
ATOM      6  C   UNL     1      -1.884   9.827  16.974  0.00  0.00    +0.000 A 
ATOM      7  C   UNL     1      -3.245   9.827  17.177  0.00  0.00    +0.000 A 
ATOM      8  C   UNL     1      -3.754  10.748  18.094  0.00  0.00    +0.000 A 
ATOM      9  C   UNL     1      -2.949  11.826  18.569  0.00  0.00    +0.000 A 
ATOM     10  C   UNL     1      -1.541  11.880  18.299  0.00  0.00    +0.000 A 
ENDROOT
BRANCH   1  18
ATOM     11  C   UNL     1      -6.185  15.401  22.586  0.00  0.00    +0.000 C 
ATOM     12  C   UNL     1      -4.818  15.193  21.994  0.00  0.00    +0.000 A 
ATOM     13  C   UNL     1      -3.987  16.289  21.675  0.00  0.00    +0.000 A 
ATOM     14  C   UNL     1      -2.730  16.103  21.033  0.00  0.00    +0.000 A 
ATOM     15  N   UNL     1      -1.803  17.042  20.697  0.00  0.00    +0.000 NA
ATOM     16  C   UNL     1      -0.819  16.375  20.133  0.00  0.00    +0.000 A 
ATOM     17  N   UNL     1      -1.073  15.015  19.949  0.00  0.00    +0.000 N 
ATOM     18  C   UNL     1      -0.210  14.175  19.085  0.00  0.00    +0.000 C 
ATOM     19  O   UNL     1       0.787  14.725  18.626  0.00  0.00    +0.000 OA
ATOM     20  C   UNL     1      -2.276  14.814  20.701  0.00  0.00    +0.000 A 
ATOM     21  C   UNL     1      -3.071  13.736  21.156  0.00  0.00    +0.000 A 
ATOM     22  C   UNL     1      -4.345  13.910  21.743  0.00  0.00    +0.000 A 
ATOM     23  C   UNL     1      -5.159  12.677  22.059  0.00  0.00    +0.000 C 
ENDBRANCH   1  18
BRANCH   3  24
ATOM     24  C   UNL     1      -0.060  10.521  20.550  0.00  0.00    +0.000 A 
ATOM     25  C   UNL     1      -0.318  11.582  21.444  0.00  0.00    +0.000 A 
ATOM     26  C   UNL     1      -0.678  11.353  22.779  0.00  0.00    +0.000 A 
ATOM     27  C   UNL     1      -0.804  10.054  23.261  0.00  0.00    +0.000 A 
ATOM     28  C   UNL     1      -0.564   8.982  22.411  0.00  0.00    +0.000 A 
ATOM     29  C   UNL     1      -0.209   9.213  21.074  0.00  0.00    +0.000 A 
ENDBRANCH   3  24
TORSDOF 2
ENDMDL
MODEL 7
REMARK VINA RESULT:      -7.0      1.997      3.046
REMARK  Name = 
REMARK  4 active torsions:
REMARK  status: ('A' for Active; 'I' for Inactive)
REMARK    1  A    between atoms: C_1  and  C_2
REMARK    2  A    between atoms: C_8  and  C_10
REMARK    3  A    between atoms: C_12  and  C_13
REMARK    4  A    between atoms: C_28  and  C_29
REMARK                            x       y       z     vdW  Elec       q    Type
REMARK                         _______ _______ _______ _____ _____    ______ ____
ROOT
ATOM      1  C   UNL     1      -4.223  13.196  22.449  0.00  0.00    +0.000 A 
ATOM      2  C   UNL     1      -4.799  12.838  23.628  0.00  0.00    +0.000 A 
ATOM      3  C   UNL     1      -6.130  13.129  23.665  0.00  0.00    +0.000 A 
ATOM      4  N   UNL     1      -6.712  12.219  22.908  0.00  0.00    +0.000 NA
ATOM      5  C   UNL     1      -6.244  12.213  21.638  0.00  0.00    +0.000 A 
ATOM      6  C   UNL     1      -7.071  11.613  20.721  0.00  0.00    +0.000 A 
ATOM      7  C   UNL     1      -7.217  12.189  19.480  0.00  0.00    +0.000 A 
ATOM      8  C   UNL     1      -6.442  13.317  19.205  0.00  0.00    +0.000 A 
ATOM      9  C   UNL     1      -5.346  13.672  20.048  0.00  0.00    +0.000 A 
ATOM     10  C   UNL     1      -5.136  13.026  21.310  0.00  0.00    +0.000 A 
ENDROOT
BRANCH   1  18
ATOM     11  C   UNL     1       0.617   9.668  18.024  0.00  0.00    +0.000 C 
ATOM     12  C   UNL     1      -0.043  10.673  18.928  0.00  0.00    +0.000 A 
ATOM     13  C   UNL     1       0.711  11.421  19.859  0.00  0.00    +0.000 A 
ATOM     14  C   UNL     1       0.083  12.307  20.780  0.00  0.00    +0.000 A 
ATOM     15  N   UNL     1       0.663  13.120  21.704  0.00  0.00    +0.000 NA
ATOM     16  C   UNL     1      -0.333  13.739  22.300  0.00  0.00    +0.000 A 
ATOM     17  N   UNL     1      -1.600  13.300  21.912  0.00  0.00    +0.000 N 
ATOM     18  C   UNL     1      -2.816  13.676  22.672  0.00  0.00    +0.000 C 
ATOM     19  O   UNL     1      -2.649  14.467  23.596  0.00  0.00    +0.000 OA
ATOM     20  C   UNL     1      -1.314  12.467  20.782  0.00  0.00    +0.000 A 
ATOM     21  C   UNL     1      -2.020  11.808  19.750  0.00  0.00    +0.000 A 
ATOM     22  C   UNL     1      -1.415  10.884  18.868  0.00  0.00    +0.000 A 
ATOM     23  C   UNL     1      -2.301  10.138  17.898  0.00  0.00    +0.000 C 
ENDBRANCH   1  18
BRANCH   3  24
ATOM     24  C   UNL     1      -6.568  14.586  23.460  0.00  0.00    +0.000 A 
ATOM     25  C   UNL     1      -7.657  14.919  22.626  0.00  0.00    +0.000 A 
ATOM     26  C   UNL     1      -7.915  16.242  22.239  0.00  0.00    +0.000 A 
ATOM     27  C   UNL     1      -7.098  17.277  22.684  0.00  0.00    +0.000 A 
ATOM     28  C   UNL     1      -6.019  16.992  23.510  0.00  0.00    +0.000 A 
ATOM     29  C   UNL     1      -5.766  15.668  23.901  0.00  0.00    +0.000 A 
ENDBRANCH   3  24
TORSDOF 2
ENDMDL
MODEL 8
REMARK VINA RESULT:      -7.0      1.406      2.150
REMARK  Name = 
REMARK  4 active torsions:
REMARK  status: ('A' for Active; 'I' for Inactive)
REMARK    1  A    between atoms: C_1  and  C_2
REMARK    2  A    between atoms: C_8  and  C_10
REMARK    3  A    between atoms: C_12  and  C_13
REMARK    4  A    between atoms: C_28  and  C_29
REMARK                            x       y       z     vdW  Elec       q    Type
REMARK                         _______ _______ _______ _____ _____    ______ ____
ROOT
ATOM      1  C   UNL     1      -2.873  12.812  22.531  0.00  0.00    +0.000 A 
ATOM      2  C   UNL     1      -2.728  13.767  23.490  0.00  0.00    +0.000 A 
ATOM      3  C   UNL     1      -3.609  14.795  23.336  0.00  0.00    +0.000 A 
ATOM      4  N   UNL     1      -4.775  14.325  23.737  0.00  0.00    +0.000 NA
ATOM      5  C   UNL     1      -5.168  13.231  23.044  0.00  0.00    +0.000 A 
ATOM      6  C   UNL     1      -6.512  12.958  23.112  0.00  0.00    +0.000 A 
ATOM      7  C   UNL     1      -7.162  12.537  21.975  0.00  0.00    +0.000 A 
ATOM      8  C   UNL     1      -6.386  12.336  20.833  0.00  0.00    +0.000 A 
ATOM      9  C   UNL     1      -4.963  12.281  20.918  0.00  0.00    +0.000 A 
ATOM     10  C   UNL     1      -4.273  12.643  22.122  0.00  0.00    +0.000 A 
ENDROOT
BRANCH   1  18
ATOM     11  C   UNL     1      -2.973   9.802  15.721  0.00  0.00    +0.000 C 
ATOM     12  C   UNL     1      -2.528  10.419  17.019  0.00  0.00    +0.000 A 
ATOM     13  C   UNL     1      -1.308  10.045  17.623  0.00  0.00    +0.000 A 
ATOM     14  C   UNL     1      -0.923  10.556  18.894  0.00  0.00    +0.000 A 
ATOM     15  N   UNL     1       0.225  10.328  19.587  0.00  0.00    +0.000 NA
ATOM     16  C   UNL     1       0.110  11.026  20.697  0.00  0.00    +0.000 A 
ATOM     17  N   UNL     1      -1.132  11.641  20.865  0.00  0.00    +0.000 N 
ATOM     18  C   UNL     1      -1.538  12.224  22.166  0.00  0.00    +0.000 C 
ATOM     19  O   UNL     1      -0.684  12.216  23.047  0.00  0.00    +0.000 OA
ATOM     20  C   UNL     1      -1.750  11.460  19.585  0.00  0.00    +0.000 A 
ATOM     21  C   UNL     1      -2.895  11.915  18.890  0.00  0.00    +0.000 A 
ATOM     22  C   UNL     1      -3.315  11.372  17.655  0.00  0.00    +0.000 A 
ATOM     23  C   UNL     1      -4.630  11.842  17.079  0.00  0.00    +0.000 C 
ENDBRANCH   1  18
BRANCH   3  24
ATOM     24  C   UNL     1      -3.594  15.581  22.017  0.00  0.00    +0.000 A 
ATOM     25  C   UNL     1      -2.384  15.928  21.379  0.00  0.00    +0.000 A 
ATOM     26  C   UNL     1      -2.343  16.844  20.318  0.00  0.00    +0.000 A 
ATOM     27  C   UNL     1      -3.514  17.433  19.853  0.00  0.00    +0.000 A 
ATOM     28  C   UNL     1      -4.726  17.115  20.450  0.00  0.00    +0.000 A 
ATOM     29  C   UNL     1      -4.766  16.194  21.508  0.00  0.00    +0.000 A 
ENDBRANCH   3  24
TORSDOF 2
ENDMDL
MODEL 9
REMARK VINA RESULT:      -7.0      2.439      6.788
REMARK  Name = 
REMARK  4 active torsions:
REMARK  status: ('A' for Active; 'I' for Inactive)
REMARK    1  A    between atoms: C_1  and  C_2
REMARK    2  A    between atoms: C_8  and  C_10
REMARK    3  A    between atoms: C_12  and  C_13
REMARK    4  A    between atoms: C_28  and  C_29
REMARK                            x       y       z     vdW  Elec       q    Type
REMARK                         _______ _______ _______ _____ _____    ______ ____
ROOT
ATOM      1  C   UNL     1      -1.517  11.180  19.411  0.00  0.00    +0.000 A 
ATOM      2  C   UNL     1      -0.747  11.411  18.314  0.00  0.00    +0.000 A 
ATOM      3  C   UNL     1       0.542  11.708  18.637  0.00  0.00    +0.000 A 
ATOM      4  N   UNL     1       1.091  10.562  18.993  0.00  0.00    +0.000 NA
ATOM      5  C   UNL     1       0.448   9.969  20.026  0.00  0.00    +0.000 A 
ATOM      6  C   UNL     1       1.187   9.030  20.702  0.00  0.00    +0.000 A 
ATOM      7  C   UNL     1       1.099   8.978  22.074  0.00  0.00    +0.000 A 
ATOM      8  C   UNL     1       0.192   9.842  22.689  0.00  0.00    +0.000 A 
ATOM      9  C   UNL     1      -0.799  10.525  21.923  0.00  0.00    +0.000 A 
ATOM     10  C   UNL     1      -0.766  10.524  20.489  0.00  0.00    +0.000 A 
ENDROOT
BRANCH   1  18
ATOM     11  C   UNL     1      -3.665  15.764  24.873  0.00  0.00    +0.000 C 
ATOM     12  C   UNL     1      -3.544  15.045  23.557  0.00  0.00    +0.000 A 
ATOM     13  C   UNL     1      -4.684  14.771  22.770  0.00  0.00    +0.000 A 
ATOM     14  C   UNL     1      -4.590  14.013  21.568  0.00  0.00    +0.000 A 
ATOM     15  N   UNL     1      -5.576  13.698  20.686  0.00  0.00    +0.000 NA
ATOM     16  C   UNL     1      -4.990  12.993  19.742  0.00  0.00    +0.000 A 
ATOM     17  N   UNL     1      -3.649  12.696  19.993  0.00  0.00    +0.000 N 
ATOM     18  C   UNL     1      -2.916  11.686  19.192  0.00  0.00    +0.000 C 
ATOM     19  O   UNL     1      -3.530  11.204  18.245  0.00  0.00    +0.000 OA
ATOM     20  C   UNL     1      -3.349  13.520  21.126  0.00  0.00    +0.000 A 
ATOM     21  C   UNL     1      -2.215  13.928  21.865  0.00  0.00    +0.000 A 
ATOM     22  C   UNL     1      -2.303  14.631  23.088  0.00  0.00    +0.000 A 
ATOM     23  C   UNL     1      -1.028  14.889  23.857  0.00  0.00    +0.000 C 
ENDBRANCH   1  18
BRANCH   3  24
ATOM     24  C   UNL     1       0.810  12.918  19.545  0.00  0.00    +0.000 A 
ATOM     25  C   UNL     1       0.218  14.174  19.292  0.00  0.00    +0.000 A 
ATOM     26  C   UNL     1       0.637  15.336  19.957  0.00  0.00    +0.000 A 
ATOM     27  C   UNL     1       1.652  15.275  20.906  0.00  0.00    +0.000 A 
ATOM     28  C   UNL     1       2.256  14.057  21.187  0.00  0.00    +0.000 A 
ATOM     29  C   UNL     1       1.833  12.895  20.525  0.00  0.00    +0.000 A 
ENDBRANCH   3  24
TORSDOF 2
ENDMDL
