MODEL 1
REMARK VINA RESULT:      -7.8      0.000      0.000
REMARK  Name = 
REMARK  4 active torsions:
REMARK  status: ('A' for Active; 'I' for Inactive)
REMARK    1  A    between atoms: C_1  and  C_2
REMARK    2  A    between atoms: C_2  and  N_3
REMARK    3  A    between atoms: C_6  and  O_7
REMARK    4  A    between atoms: C_15  and  O_16
REMARK                            x       y       z     vdW  Elec       q    Type
REMARK                         _______ _______ _______ _____ _____    ______ ____
ROOT
ATOM      1  N   UNL     1       2.642   6.260  19.711  0.00  0.00    +0.000 N 
ATOM      2  C   UNL     1       3.518   5.892  18.694  0.00  0.00    +0.000 A 
ATOM      3  C   UNL     1       4.290   4.727  18.504  0.00  0.00    +0.000 A 
ATOM      4  C   UNL     1       5.048   4.632  17.335  0.00  0.00    +0.000 A 
ATOM      5  C   UNL     1       5.063   5.644  16.391  0.00  0.00    +0.000 A 
ATOM      6  C   UNL     1       4.309   6.801  16.600  0.00  0.00    +0.000 A 
ATOM      7  C   UNL     1       3.526   6.927  17.769  0.00  0.00    +0.000 A 
ATOM      8  C   UNL     1       2.668   7.950  18.268  0.00  0.00    +0.000 A 
ATOM      9  C   UNL     1       2.323   9.201  17.733  0.00  0.00    +0.000 A 
ATOM     10  C   UNL     1       1.451  10.043  18.416  0.00  0.00    +0.000 A 
ATOM     11  C   UNL     1       0.899   9.687  19.657  0.00  0.00    +0.000 A 
ATOM     12  C   UNL     1       0.015  10.539  20.365  0.00  0.00    +0.000 A 
ATOM     13  C   UNL     1      -0.525  10.179  21.597  0.00  0.00    +0.000 A 
ATOM     14  C   UNL     1      -0.189   8.962  22.164  0.00  0.00    +0.000 A 
ATOM     15  C   UNL     1       0.686   8.099  21.499  0.00  0.00    +0.000 A 
ATOM     16  C   UNL     1       1.238   8.422  20.233  0.00  0.00    +0.000 A 
ATOM     17  C   UNL     1       2.130   7.543  19.500  0.00  0.00    +0.000 A 
ENDROOT
BRANCH   1  19
ATOM     18  C   UNL     1       1.135   4.423  20.415  0.00  0.00    +0.000 C 
ATOM     19  C   UNL     1       2.303   5.327  20.776  0.00  0.00    +0.000 C 
ENDBRANCH   1  19
BRANCH   4  20
ATOM     20  O   UNL     1       5.803   3.523  17.078  0.00  0.00    +0.000 OA
ATOM     21  H   UNL     1       6.200   3.219  17.909  0.00  0.00    +0.000 HD
ENDBRANCH   4  20
BRANCH  12  22
ATOM     22  O   UNL     1      -0.390  11.774  19.922  0.00  0.00    +0.000 OA
ATOM     23  H   UNL     1      -1.152  12.077  20.435  0.00  0.00    +0.000 HD
ENDBRANCH  12  22
TORSDOF 3
ENDMDL
MODEL 2
REMARK VINA RESULT:      -7.3      4.047      5.290
REMARK  Name = 
REMARK  4 active torsions:
REMARK  status: ('A' for Active; 'I' for Inactive)
REMARK    1  A    between atoms: C_1  and  C_2
REMARK    2  A    between atoms: C_2  and  N_3
REMARK    3  A    between atoms: C_6  and  O_7
REMARK    4  A    between atoms: C_15  and  O_16
REMARK                            x       y       z     vdW  Elec       q    Type
REMARK                         _______ _______ _______ _____ _____    ______ ____
ROOT
ATOM      1  N   UNL     1       5.321   5.367  17.556  0.00  0.00    +0.000 N 
ATOM      2  C   UNL     1       5.871   5.125  16.300  0.00  0.00    +0.000 A 
ATOM      3  C   UNL     1       6.993   5.678  15.650  0.00  0.00    +0.000 A 
ATOM      4  C   UNL     1       7.324   5.184  14.387  0.00  0.00    +0.000 A 
ATOM      5  C   UNL     1       6.577   4.193  13.773  0.00  0.00    +0.000 A 
ATOM      6  C   UNL     1       5.456   3.666  14.419  0.00  0.00    +0.000 A 
ATOM      7  C   UNL     1       5.097   4.139  15.700  0.00  0.00    +0.000 A 
ATOM      8  C   UNL     1       4.041   3.820  16.603  0.00  0.00    +0.000 A 
ATOM      9  C   UNL     1       2.986   2.902  16.493  0.00  0.00    +0.000 A 
ATOM     10  C   UNL     1       2.061   2.765  17.522  0.00  0.00    +0.000 A 
ATOM     11  C   UNL     1       2.135   3.539  18.692  0.00  0.00    +0.000 A 
ATOM     12  C   UNL     1       1.194   3.413  19.744  0.00  0.00    +0.000 A 
ATOM     13  C   UNL     1       1.275   4.188  20.898  0.00  0.00    +0.000 A 
ATOM     14  C   UNL     1       2.289   5.120  21.031  0.00  0.00    +0.000 A 
ATOM     15  C   UNL     1       3.231   5.277  20.010  0.00  0.00    +0.000 A 
ATOM     16  C   UNL     1       3.195   4.491  18.830  0.00  0.00    +0.000 A 
ATOM     17  C   UNL     1       4.166   4.608  17.759  0.00  0.00    +0.000 A 
ENDROOT
BRANCH   1  19
ATOM     18  C   UNL     1       7.028   5.545  19.343  0.00  0.00    +0.000 C 
ATOM     19  C   UNL     1       5.983   6.257  18.499  0.00  0.00    +0.000 C 
ENDBRANCH   1  19
BRANCH   4  20
ATOM     20  O   UNL     1       8.410   5.660  13.709  0.00  0.00    +0.000 OA
ATOM     21  H   UNL     1       8.684   6.499  14.113  0.00  0.00    +0.000 HD
ENDBRANCH   4  20
BRANCH  12  22
ATOM     22  O   UNL     1       0.136   2.539  19.736  0.00  0.00    +0.000 OA
ATOM     23  H   UNL     1       0.459   1.627  19.756  0.00  0.00    +0.000 HD
ENDBRANCH  12  22
TORSDOF 3
ENDMDL
MODEL 3
REMARK VINA RESULT:      -7.0      1.563      3.523
REMARK  Name = 
REMARK  4 active torsions:
REMARK  status: ('A' for Active; 'I' for Inactive)
REMARK    1  A    between atoms: C_1  and  C_2
REMARK    2  A    between atoms: C_2  and  N_3
REMARK    3  A    between atoms: C_6  and  O_7
REMARK    4  A    between atoms: C_15  and  O_16
REMARK                            x       y       z     vdW  Elec       q    Type
REMARK                         _______ _______ _______ _____ _____    ______ ____
ROOT
ATOM      1  N   UNL     1       3.293   5.732  18.217  0.00  0.00    +0.000 N 
ATOM      2  C   UNL     1       3.332   4.449  18.755  0.00  0.00    +0.000 A 
ATOM      3  C   UNL     1       3.934   3.260  18.293  0.00  0.00    +0.000 A 
ATOM      4  C   UNL     1       3.835   2.124  19.098  0.00  0.00    +0.000 A 
ATOM      5  C   UNL     1       3.161   2.143  20.307  0.00  0.00    +0.000 A 
ATOM      6  C   UNL     1       2.552   3.321  20.745  0.00  0.00    +0.000 A 
ATOM      7  C   UNL     1       2.639   4.491  19.958  0.00  0.00    +0.000 A 
ATOM      8  C   UNL     1       2.142   5.817  20.116  0.00  0.00    +0.000 A 
ATOM      9  C   UNL     1       1.380   6.396  21.143  0.00  0.00    +0.000 A 
ATOM     10  C   UNL     1       1.007   7.734  21.075  0.00  0.00    +0.000 A 
ATOM     11  C   UNL     1       1.360   8.546  19.985  0.00  0.00    +0.000 A 
ATOM     12  C   UNL     1       0.980   9.909  19.902  0.00  0.00    +0.000 A 
ATOM     13  C   UNL     1       1.333  10.706  18.816  0.00  0.00    +0.000 A 
ATOM     14  C   UNL     1       2.065  10.162  17.775  0.00  0.00    +0.000 A 
ATOM     15  C   UNL     1       2.451   8.819  17.818  0.00  0.00    +0.000 A 
ATOM     16  C   UNL     1       2.129   7.983  18.918  0.00  0.00    +0.000 A 
ATOM     17  C   UNL     1       2.531   6.592  19.011  0.00  0.00    +0.000 A 
ENDROOT
BRANCH   1  19
ATOM     18  C   UNL     1       5.435   6.600  17.324  0.00  0.00    +0.000 C 
ATOM     19  C   UNL     1       4.048   6.058  17.016  0.00  0.00    +0.000 C 
ENDBRANCH   1  19
BRANCH   4  20
ATOM     20  O   UNL     1       4.412   0.944  18.720  0.00  0.00    +0.000 OA
ATOM     21  H   UNL     1       5.310   1.127  18.401  0.00  0.00    +0.000 HD
ENDBRANCH   4  20
BRANCH  12  22
ATOM     22  O   UNL     1       0.247  10.567  20.857  0.00  0.00    +0.000 OA
ATOM     23  H   UNL     1       0.171  10.022  21.652  0.00  0.00    +0.000 HD
ENDBRANCH  12  22
TORSDOF 3
ENDMDL
MODEL 4
REMARK VINA RESULT:      -6.8      2.883      7.874
REMARK  Name = 
REMARK  4 active torsions:
REMARK  status: ('A' for Active; 'I' for Inactive)
REMARK    1  A    between atoms: C_1  and  C_2
REMARK    2  A    between atoms: C_2  and  N_3
REMARK    3  A    between atoms: C_6  and  O_7
REMARK    4  A    between atoms: C_15  and  O_16
REMARK                            x       y       z     vdW  Elec       q    Type
REMARK                         _______ _______ _______ _____ _____    ______ ____
ROOT
ATOM      1  N   UNL     1      -0.754  11.625  19.825  0.00  0.00    +0.000 N 
ATOM      2  C   UNL     1      -1.441  12.207  20.886  0.00  0.00    +0.000 A 
ATOM      3  C   UNL     1      -2.239  13.368  20.957  0.00  0.00    +0.000 A 
ATOM      4  C   UNL     1      -2.846  13.668  22.178  0.00  0.00    +0.000 A 
ATOM      5  C   UNL     1      -2.669  12.871  23.295  0.00  0.00    +0.000 A 
ATOM      6  C   UNL     1      -1.860  11.734  23.218  0.00  0.00    +0.000 A 
ATOM      7  C   UNL     1      -1.238  11.398  21.996  0.00  0.00    +0.000 A 
ATOM      8  C   UNL     1      -0.376  10.336  21.595  0.00  0.00    +0.000 A 
ATOM      9  C   UNL     1       0.144   9.252  22.320  0.00  0.00    +0.000 A 
ATOM     10  C   UNL     1       0.980   8.328  21.702  0.00  0.00    +0.000 A 
ATOM     11  C   UNL     1       1.345   8.447  20.351  0.00  0.00    +0.000 A 
ATOM     12  C   UNL     1       2.201   7.515  19.713  0.00  0.00    +0.000 A 
ATOM     13  C   UNL     1       2.560   7.643  18.374  0.00  0.00    +0.000 A 
ATOM     14  C   UNL     1       2.084   8.712  17.635  0.00  0.00    +0.000 A 
ATOM     15  C   UNL     1       1.243   9.655  18.233  0.00  0.00    +0.000 A 
ATOM     16  C   UNL     1       0.838   9.546  19.588  0.00  0.00    +0.000 A 
ATOM     17  C   UNL     1      -0.051  10.490  20.237  0.00  0.00    +0.000 A 
ENDROOT
BRANCH   1  19
ATOM     18  C   UNL     1      -2.010  11.517  17.692  0.00  0.00    +0.000 C 
ATOM     19  C   UNL     1      -0.876  12.159  18.476  0.00  0.00    +0.000 C 
ENDBRANCH   1  19
BRANCH   4  20
ATOM     20  O   UNL     1      -3.648  14.766  22.312  0.00  0.00    +0.000 OA
ATOM     21  H   UNL     1      -3.485  15.361  21.563  0.00  0.00    +0.000 HD
ENDBRANCH   4  20
BRANCH  12  22
ATOM     22  O   UNL     1       2.751   6.419  20.332  0.00  0.00    +0.000 OA
ATOM     23  H   UNL     1       3.071   6.661  21.212  0.00  0.00    +0.000 HD
ENDBRANCH  12  22
TORSDOF 3
ENDMDL
MODEL 5
REMARK VINA RESULT:      -6.7      1.319      1.595
REMARK  Name = 
REMARK  4 active torsions:
REMARK  status: ('A' for Active; 'I' for Inactive)
REMARK    1  A    between atoms: C_1  and  C_2
REMARK    2  A    between atoms: C_2  and  N_3
REMARK    3  A    between atoms: C_6  and  O_7
REMARK    4  A    between atoms: C_15  and  O_16
REMARK                            x       y       z     vdW  Elec       q    Type
REMARK                         _______ _______ _______ _____ _____    ______ ____
ROOT
ATOM      1  N   UNL     1       2.346   5.241  19.974  0.00  0.00    +0.000 N 
ATOM      2  C   UNL     1       3.028   4.448  19.056  0.00  0.00    +0.000 A 
ATOM      3  C   UNL     1       3.426   3.095  19.105  0.00  0.00    +0.000 A 
ATOM      4  C   UNL     1       4.064   2.563  17.984  0.00  0.00    +0.000 A 
ATOM      5  C   UNL     1       4.318   3.326  16.858  0.00  0.00    +0.000 A 
ATOM      6  C   UNL     1       3.937   4.670  16.828  0.00  0.00    +0.000 A 
ATOM      7  C   UNL     1       3.283   5.239  17.943  0.00  0.00    +0.000 A 
ATOM      8  C   UNL     1       2.778   6.542  18.224  0.00  0.00    +0.000 A 
ATOM      9  C   UNL     1       2.777   7.713  17.450  0.00  0.00    +0.000 A 
ATOM     10  C   UNL     1       2.218   8.885  17.946  0.00  0.00    +0.000 A 
ATOM     11  C   UNL     1       1.651   8.949  19.229  0.00  0.00    +0.000 A 
ATOM     12  C   UNL     1       1.083  10.140  19.748  0.00  0.00    +0.000 A 
ATOM     13  C   UNL     1       0.527  10.194  21.023  0.00  0.00    +0.000 A 
ATOM     14  C   UNL     1       0.530   9.065  21.822  0.00  0.00    +0.000 A 
ATOM     15  C   UNL     1       1.088   7.874  21.348  0.00  0.00    +0.000 A 
ATOM     16  C   UNL     1       1.645   7.774  20.046  0.00  0.00    +0.000 A 
ATOM     17  C   UNL     1       2.211   6.552  19.509  0.00  0.00    +0.000 A 
ENDROOT
BRANCH   1  19
ATOM     18  C   UNL     1       1.083   3.354  20.965  0.00  0.00    +0.000 C 
ATOM     19  C   UNL     1       1.810   4.669  21.200  0.00  0.00    +0.000 C 
ENDBRANCH   1  19
BRANCH   4  20
ATOM     20  O   UNL     1       4.458   1.255  17.956  0.00  0.00    +0.000 OA
ATOM     21  H   UNL     1       5.292   1.172  18.446  0.00  0.00    +0.000 HD
ENDBRANCH   4  20
BRANCH  12  22
ATOM     22  O   UNL     1       1.025  11.330  19.066  0.00  0.00    +0.000 OA
ATOM     23  H   UNL     1       1.485  12.020  19.563  0.00  0.00    +0.000 HD
ENDBRANCH  12  22
TORSDOF 3
ENDMDL
MODEL 6
REMARK VINA RESULT:      -6.7      1.377      6.007
REMARK  Name = 
REMARK  4 active torsions:
REMARK  status: ('A' for Active; 'I' for Inactive)
REMARK    1  A    between atoms: C_1  and  C_2
REMARK    2  A    between atoms: C_2  and  N_3
REMARK    3  A    between atoms: C_6  and  O_7
REMARK    4  A    between atoms: C_15  and  O_16
REMARK                            x       y       z     vdW  Elec       q    Type
REMARK                         _______ _______ _______ _____ _____    ______ ____
ROOT
ATOM      1  N   UNL     1       2.086   6.127  20.142  0.00  0.00    +0.000 N 
ATOM      2  C   UNL     1       1.393   7.266  20.542  0.00  0.00    +0.000 A 
ATOM      3  C   UNL     1       0.519   7.494  21.625  0.00  0.00    +0.000 A 
ATOM      4  C   UNL     1       0.010   8.784  21.791  0.00  0.00    +0.000 A 
ATOM      5  C   UNL     1       0.331   9.812  20.921  0.00  0.00    +0.000 A 
ATOM      6  C   UNL     1       1.182   9.568  19.840  0.00  0.00    +0.000 A 
ATOM      7  C   UNL     1       1.720   8.277  19.648  0.00  0.00    +0.000 A 
ATOM      8  C   UNL     1       2.593   7.715  18.672  0.00  0.00    +0.000 A 
ATOM      9  C   UNL     1       3.213   8.293  17.552  0.00  0.00    +0.000 A 
ATOM     10  C   UNL     1       4.036   7.531  16.731  0.00  0.00    +0.000 A 
ATOM     11  C   UNL     1       4.269   6.168  16.976  0.00  0.00    +0.000 A 
ATOM     12  C   UNL     1       5.101   5.379  16.143  0.00  0.00    +0.000 A 
ATOM     13  C   UNL     1       5.322   4.027  16.392  0.00  0.00    +0.000 A 
ATOM     14  C   UNL     1       4.710   3.420  17.474  0.00  0.00    +0.000 A 
ATOM     15  C   UNL     1       3.876   4.164  18.314  0.00  0.00    +0.000 A 
ATOM     16  C   UNL     1       3.644   5.547  18.105  0.00  0.00    +0.000 A 
ATOM     17  C   UNL     1       2.805   6.358  18.966  0.00  0.00    +0.000 A 
ENDROOT
BRANCH   1  19
ATOM     18  C   UNL     1       0.985   3.941  20.523  0.00  0.00    +0.000 C 
ATOM     19  C   UNL     1       2.066   4.920  20.954  0.00  0.00    +0.000 C 
ENDBRANCH   1  19
BRANCH   4  20
ATOM     20  O   UNL     1      -0.826   9.080  22.831  0.00  0.00    +0.000 OA
ATOM     21  H   UNL     1      -1.038  10.025  22.798  0.00  0.00    +0.000 HD
ENDBRANCH   4  20
BRANCH  12  22
ATOM     22  O   UNL     1       5.757   5.854  15.034  0.00  0.00    +0.000 OA
ATOM     23  H   UNL     1       5.624   5.254  14.288  0.00  0.00    +0.000 HD
ENDBRANCH  12  22
TORSDOF 3
ENDMDL
MODEL 7
REMARK VINA RESULT:      -6.4      1.835      6.377
REMARK  Name = 
REMARK  4 active torsions:
REMARK  status: ('A' for Active; 'I' for Inactive)
REMARK    1  A    between atoms: C_1  and  C_2
REMARK    2  A    between atoms: C_2  and  N_3
REMARK    3  A    between atoms: C_6  and  O_7
REMARK    4  A    between atoms: C_15  and  O_16
REMARK                            x       y       z     vdW  Elec       q    Type
REMARK                         _______ _______ _______ _____ _____    ______ ____
ROOT
ATOM      1  N   UNL     1       0.012   9.464  20.655  0.00  0.00    +0.000 N 
ATOM      2  C   UNL     1      -0.383  10.702  20.156  0.00  0.00    +0.000 A 
ATOM      3  C   UNL     1      -1.321  11.643  20.631  0.00  0.00    +0.000 A 
ATOM      4  C   UNL     1      -1.461  12.838  19.921  0.00  0.00    +0.000 A 
ATOM      5  C   UNL     1      -0.721  13.100  18.781  0.00  0.00    +0.000 A 
ATOM      6  C   UNL     1       0.190  12.151  18.310  0.00  0.00    +0.000 A 
ATOM      7  C   UNL     1       0.361  10.935  19.007  0.00  0.00    +0.000 A 
ATOM      8  C   UNL     1       1.186   9.792  18.796  0.00  0.00    +0.000 A 
ATOM      9  C   UNL     1       2.119   9.507  17.788  0.00  0.00    +0.000 A 
ATOM     10  C   UNL     1       2.814   8.302  17.791  0.00  0.00    +0.000 A 
ATOM     11  C   UNL     1       2.604   7.330  18.782  0.00  0.00    +0.000 A 
ATOM     12  C   UNL     1       3.302   6.096  18.792  0.00  0.00    +0.000 A 
ATOM     13  C   UNL     1       3.084   5.136  19.777  0.00  0.00    +0.000 A 
ATOM     14  C   UNL     1       2.154   5.374  20.774  0.00  0.00    +0.000 A 
ATOM     15  C   UNL     1       1.442   6.577  20.792  0.00  0.00    +0.000 A 
ATOM     16  C   UNL     1       1.652   7.587  19.819  0.00  0.00    +0.000 A 
ATOM     17  C   UNL     1       0.950   8.856  19.817  0.00  0.00    +0.000 A 
ENDROOT
BRANCH   1  19
ATOM     18  C   UNL     1       0.320   9.512  23.113  0.00  0.00    +0.000 C 
ATOM     19  C   UNL     1      -0.485   8.985  21.936  0.00  0.00    +0.000 C 
ENDBRANCH   1  19
BRANCH   4  20
ATOM     20  O   UNL     1      -2.336  13.802  20.336  0.00  0.00    +0.000 OA
ATOM     21  H   UNL     1      -1.872  14.401  20.941  0.00  0.00    +0.000 HD
ENDBRANCH   4  20
BRANCH  12  22
ATOM     22  O   UNL     1       4.239   5.729  17.859  0.00  0.00    +0.000 OA
ATOM     23  H   UNL     1       4.281   6.390  17.154  0.00  0.00    +0.000 HD
ENDBRANCH  12  22
TORSDOF 3
ENDMDL
MODEL 8
REMARK VINA RESULT:      -6.3      8.675     10.750
REMARK  Name = 
REMARK  4 active torsions:
REMARK  status: ('A' for Active; 'I' for Inactive)
REMARK    1  A    between atoms: C_1  and  C_2
REMARK    2  A    between atoms: C_2  and  N_3
REMARK    3  A    between atoms: C_6  and  O_7
REMARK    4  A    between atoms: C_15  and  O_16
REMARK                            x       y       z     vdW  Elec       q    Type
REMARK                         _______ _______ _______ _____ _____    ______ ____
ROOT
ATOM      1  N   UNL     1       7.811  14.326  21.104  0.00  0.00    +0.000 N 
ATOM      2  C   UNL     1       7.359  13.680  22.252  0.00  0.00    +0.000 A 
ATOM      3  C   UNL     1       6.389  14.046  23.208  0.00  0.00    +0.000 A 
ATOM      4  C   UNL     1       6.120  13.145  24.240  0.00  0.00    +0.000 A 
ATOM      5  C   UNL     1       6.783  11.934  24.343  0.00  0.00    +0.000 A 
ATOM      6  C   UNL     1       7.756  11.592  23.400  0.00  0.00    +0.000 A 
ATOM      7  C   UNL     1       8.048  12.477  22.340  0.00  0.00    +0.000 A 
ATOM      8  C   UNL     1       8.959  12.428  21.244  0.00  0.00    +0.000 A 
ATOM      9  C   UNL     1       9.887  11.446  20.866  0.00  0.00    +0.000 A 
ATOM     10  C   UNL     1      10.681  11.625  19.738  0.00  0.00    +0.000 A 
ATOM     11  C   UNL     1      10.598  12.784  18.950  0.00  0.00    +0.000 A 
ATOM     12  C   UNL     1      11.406  12.980  17.803  0.00  0.00    +0.000 A 
ATOM     13  C   UNL     1      11.319  14.135  17.030  0.00  0.00    +0.000 A 
ATOM     14  C   UNL     1      10.430  15.134  17.387  0.00  0.00    +0.000 A 
ATOM     15  C   UNL     1       9.622  14.980  18.517  0.00  0.00    +0.000 A 
ATOM     16  C   UNL     1       9.667  13.808  19.316  0.00  0.00    +0.000 A 
ATOM     17  C   UNL     1       8.829  13.600  20.481  0.00  0.00    +0.000 A 
ENDROOT
BRANCH   1  19
ATOM     18  C   UNL     1       6.063  15.316  19.655  0.00  0.00    +0.000 C 
ATOM     19  C   UNL     1       7.186  15.560  20.650  0.00  0.00    +0.000 C 
ENDBRANCH   1  19
BRANCH   4  20
ATOM     20  O   UNL     1       5.178  13.426  25.189  0.00  0.00    +0.000 OA
ATOM     21  H   UNL     1       4.689  12.613  25.391  0.00  0.00    +0.000 HD
ENDBRANCH   4  20
BRANCH  12  22
ATOM     22  O   UNL     1      12.333  12.076  17.346  0.00  0.00    +0.000 OA
ATOM     23  H   UNL     1      13.219  12.464  17.379  0.00  0.00    +0.000 HD
ENDBRANCH  12  22
TORSDOF 3
ENDMDL
MODEL 9
REMARK VINA RESULT:      -6.3      1.094      6.725
REMARK  Name = 
REMARK  4 active torsions:
REMARK  status: ('A' for Active; 'I' for Inactive)
REMARK    1  A    between atoms: C_1  and  C_2
REMARK    2  A    between atoms: C_2  and  N_3
REMARK    3  A    between atoms: C_6  and  O_7
REMARK    4  A    between atoms: C_15  and  O_16
REMARK                            x       y       z     vdW  Elec       q    Type
REMARK                         _______ _______ _______ _____ _____    ______ ____
ROOT
ATOM      1  N   UNL     1       1.787   8.801  18.957  0.00  0.00    +0.000 N 
ATOM      2  C   UNL     1       0.983   9.193  20.024  0.00  0.00    +0.000 A 
ATOM      3  C   UNL     1       0.280  10.391  20.271  0.00  0.00    +0.000 A 
ATOM      4  C   UNL     1      -0.493  10.464  21.431  0.00  0.00    +0.000 A 
ATOM      5  C   UNL     1      -0.568   9.410  22.326  0.00  0.00    +0.000 A 
ATOM      6  C   UNL     1       0.148   8.236  22.079  0.00  0.00    +0.000 A 
ATOM      7  C   UNL     1       0.935   8.126  20.911  0.00  0.00    +0.000 A 
ATOM      8  C   UNL     1       1.762   7.094  20.381  0.00  0.00    +0.000 A 
ATOM      9  C   UNL     1       2.067   5.816  20.875  0.00  0.00    +0.000 A 
ATOM     10  C   UNL     1       2.916   4.972  20.169  0.00  0.00    +0.000 A 
ATOM     11  C   UNL     1       3.507   5.362  18.956  0.00  0.00    +0.000 A 
ATOM     12  C   UNL     1       4.379   4.512  18.230  0.00  0.00    +0.000 A 
ATOM     13  C   UNL     1       4.963   4.910  17.030  0.00  0.00    +0.000 A 
ATOM     14  C   UNL     1       4.702   6.171  16.525  0.00  0.00    +0.000 A 
ATOM     15  C   UNL     1       3.853   7.040  17.216  0.00  0.00    +0.000 A 
ATOM     16  C   UNL     1       3.223   6.662  18.430  0.00  0.00    +0.000 A 
ATOM     17  C   UNL     1       2.318   7.525  19.165  0.00  0.00    +0.000 A 
ENDROOT
BRANCH   1  19
ATOM     18  C   UNL     1       2.357  11.066  18.131  0.00  0.00    +0.000 C 
ATOM     19  C   UNL     1       1.931   9.648  17.783  0.00  0.00    +0.000 C 
ENDBRANCH   1  19
BRANCH   4  20
ATOM     20  O   UNL     1      -1.216  11.586  21.723  0.00  0.00    +0.000 OA
ATOM     21  H   UNL     1      -1.867  11.366  22.407  0.00  0.00    +0.000 HD
ENDBRANCH   4  20
BRANCH  12  22
ATOM     22  O   UNL     1       4.729   3.245  18.624  0.00  0.00    +0.000 OA
ATOM     23  H   UNL     1       4.569   2.618  17.905  0.00  0.00    +0.000 HD
ENDBRANCH  12  22
TORSDOF 3
ENDMDL
