MODEL 1
REMARK VINA RESULT:      -6.3      0.000      0.000
REMARK  Name = 
REMARK  13 active torsions:
REMARK  status: ('A' for Active; 'I' for Inactive)
REMARK    1  A    between atoms: C_1  and  O_2
REMARK    2  A    between atoms: O_2  and  C_3
REMARK    3  A    between atoms: C_3  and  C_5
REMARK    4  A    between atoms: C_6  and  C_7
REMARK    5  A    between atoms: C_7  and  C_8
REMARK    6  A    between atoms: C_7  and  N_13
REMARK    7  A    between atoms: C_8  and  C_9
REMARK    8  A    between atoms: C_9  and  C_10
REMARK    9  A    between atoms: C_14  and  O_16
REMARK   10  A    between atoms: O_16  and  C_17
REMARK   11  A    between atoms: C_17  and  C_18
REMARK   12  A    between atoms: C_17  and  C_19
REMARK   13  A    between atoms: C_17  and  C_20
REMARK                            x       y       z     vdW  Elec       q    Type
REMARK                         _______ _______ _______ _____ _____    ______ ____
ROOT
ATOM      1  C   UNL     1       5.521   4.314  16.489  0.00  0.00    +0.000 C 
ENDROOT
BRANCH   1   2
ATOM      2  N   UNL     1       4.583   3.451  17.186  0.00  0.00    +0.000 N 
ATOM      3  C   UNL     1       4.622   3.336  18.546  0.00  0.00    +0.000 C 
ATOM      4  O   UNL     1       5.460   3.917  19.230  0.00  0.00    +0.000 OA
ATOM      5  H   UNL     1       3.850   2.955  16.694  0.00  0.00    +0.000 HD
BRANCH   3   6
ATOM      6  O   UNL     1       3.626   2.548  19.029  0.00  0.00    +0.000 OA
BRANCH   6   7
ATOM      7  C   UNL     1       2.407   3.196  19.513  0.00  0.00    +0.000 C 
ATOM      8  C   UNL     1       1.152   2.445  19.039  0.00  0.00    +0.000 C 
ATOM      9  C   UNL     1       2.436   3.167  21.054  0.00  0.00    +0.000 C 
ATOM     10  C   UNL     1       2.365   4.671  19.088  0.00  0.00    +0.000 C 
ENDBRANCH   6   7
ENDBRANCH   3   6
ENDBRANCH   1   2
BRANCH   1  12
ATOM     11  C   UNL     1       6.285   4.413  14.084  0.00  0.00    +0.000 C 
ATOM     12  C   UNL     1       5.848   3.704  15.144  0.00  0.00    +0.000 C 
BRANCH  11  13
ATOM     13  C   UNL     1       6.475   3.794  12.748  0.00  0.00    +0.000 C 
ATOM     14  O   UNL     1       5.870   2.823  12.329  0.00  0.00    +0.000 OA
BRANCH  13  16
ATOM     15  C   UNL     1       8.135   5.450  12.870  0.00  0.00    +0.000 C 
ATOM     16  O   UNL     1       7.393   4.529  12.065  0.00  0.00    +0.000 OA
ENDBRANCH  13  16
ENDBRANCH  11  13
ENDBRANCH   1  12
BRANCH   1  17
ATOM     17  C   UNL     1       4.975   5.741  16.330  0.00  0.00    +0.000 C 
BRANCH  17  18
ATOM     18  C   UNL     1       5.563   6.722  17.353  0.00  0.00    +0.000 C 
BRANCH  18  19
ATOM     19  C   UNL     1       7.075   6.643  17.403  0.00  0.00    +0.000 C 
ATOM     20  N   UNL     1       7.585   6.209  18.593  0.00  0.00    +0.000 N 
ATOM     21  O   UNL     1       7.816   6.948  16.479  0.00  0.00    +0.000 OA
ATOM     22  H   UNL     1       7.018   5.828  19.337  0.00  0.00    +0.000 HD
ATOM     23  H   UNL     1       8.590   6.112  18.657  0.00  0.00    +0.000 HD
ENDBRANCH  18  19
ENDBRANCH  17  18
ENDBRANCH   1  17
TORSDOF 9
ENDMDL
MODEL 2
REMARK VINA RESULT:      -6.3      0.645      1.616
REMARK  Name = 
REMARK  13 active torsions:
REMARK  status: ('A' for Active; 'I' for Inactive)
REMARK    1  A    between atoms: C_1  and  O_2
REMARK    2  A    between atoms: O_2  and  C_3
REMARK    3  A    between atoms: C_3  and  C_5
REMARK    4  A    between atoms: C_6  and  C_7
REMARK    5  A    between atoms: C_7  and  C_8
REMARK    6  A    between atoms: C_7  and  N_13
REMARK    7  A    between atoms: C_8  and  C_9
REMARK    8  A    between atoms: C_9  and  C_10
REMARK    9  A    between atoms: C_14  and  O_16
REMARK   10  A    between atoms: O_16  and  C_17
REMARK   11  A    between atoms: C_17  and  C_18
REMARK   12  A    between atoms: C_17  and  C_19
REMARK   13  A    between atoms: C_17  and  C_20
REMARK                            x       y       z     vdW  Elec       q    Type
REMARK                         _______ _______ _______ _____ _____    ______ ____
ROOT
ATOM      1  C   UNL     1       5.242   4.474  16.369  0.00  0.00    +0.000 C 
ENDROOT
BRANCH   1   2
ATOM      2  N   UNL     1       4.206   3.693  17.023  0.00  0.00    +0.000 N 
ATOM      3  C   UNL     1       4.303   3.381  18.349  0.00  0.00    +0.000 C 
ATOM      4  O   UNL     1       5.271   3.705  19.031  0.00  0.00    +0.000 OA
ATOM      5  H   UNL     1       3.368   3.406  16.533  0.00  0.00    +0.000 HD
BRANCH   3   6
ATOM      6  O   UNL     1       3.211   2.715  18.806  0.00  0.00    +0.000 OA
BRANCH   6   7
ATOM      7  C   UNL     1       2.380   3.365  19.819  0.00  0.00    +0.000 C 
ATOM      8  C   UNL     1       2.520   4.894  19.757  0.00  0.00    +0.000 C 
ATOM      9  C   UNL     1       0.910   3.001  19.529  0.00  0.00    +0.000 C 
ATOM     10  C   UNL     1       2.710   2.834  21.222  0.00  0.00    +0.000 C 
ENDBRANCH   6   7
ENDBRANCH   3   6
ENDBRANCH   1   2
BRANCH   1  12
ATOM     11  C   UNL     1       6.391   4.402  14.120  0.00  0.00    +0.000 C 
ATOM     12  C   UNL     1       5.432   3.960  14.958  0.00  0.00    +0.000 C 
BRANCH  11  13
ATOM     13  C   UNL     1       6.462   3.961  12.705  0.00  0.00    +0.000 C 
ATOM     14  O   UNL     1       7.346   4.255  11.919  0.00  0.00    +0.000 OA
BRANCH  13  16
ATOM     15  C   UNL     1       5.670   2.101  11.511  0.00  0.00    +0.000 C 
ATOM     16  O   UNL     1       5.408   3.137  12.462  0.00  0.00    +0.000 OA
ENDBRANCH  13  16
ENDBRANCH  11  13
ENDBRANCH   1  12
BRANCH   1  17
ATOM     17  C   UNL     1       4.916   5.975  16.371  0.00  0.00    +0.000 C 
BRANCH  17  18
ATOM     18  C   UNL     1       5.602   6.732  17.515  0.00  0.00    +0.000 C 
BRANCH  18  19
ATOM     19  C   UNL     1       7.109   6.590  17.459  0.00  0.00    +0.000 C 
ATOM     20  N   UNL     1       7.657   5.904  18.504  0.00  0.00    +0.000 N 
ATOM     21  O   UNL     1       7.817   7.052  16.575  0.00  0.00    +0.000 OA
ATOM     22  H   UNL     1       7.111   5.399  19.187  0.00  0.00    +0.000 HD
ATOM     23  H   UNL     1       8.659   5.760  18.488  0.00  0.00    +0.000 HD
ENDBRANCH  18  19
ENDBRANCH  17  18
ENDBRANCH   1  17
TORSDOF 9
ENDMDL
MODEL 3
REMARK VINA RESULT:      -6.3      1.159      1.956
REMARK  Name = 
REMARK  13 active torsions:
REMARK  status: ('A' for Active; 'I' for Inactive)
REMARK    1  A    between atoms: C_1  and  O_2
REMARK    2  A    between atoms: O_2  and  C_3
REMARK    3  A    between atoms: C_3  and  C_5
REMARK    4  A    between atoms: C_6  and  C_7
REMARK    5  A    between atoms: C_7  and  C_8
REMARK    6  A    between atoms: C_7  and  N_13
REMARK    7  A    between atoms: C_8  and  C_9
REMARK    8  A    between atoms: C_9  and  C_10
REMARK    9  A    between atoms: C_14  and  O_16
REMARK   10  A    between atoms: O_16  and  C_17
REMARK   11  A    between atoms: C_17  and  C_18
REMARK   12  A    between atoms: C_17  and  C_19
REMARK   13  A    between atoms: C_17  and  C_20
REMARK                            x       y       z     vdW  Elec       q    Type
REMARK                         _______ _______ _______ _____ _____    ______ ____
ROOT
ATOM      1  C   UNL     1       5.439   4.526  16.478  0.00  0.00    +0.000 C 
ENDROOT
BRANCH   1   2
ATOM      2  N   UNL     1       4.254   3.878  17.013  0.00  0.00    +0.000 N 
ATOM      3  C   UNL     1       4.244   3.395  18.291  0.00  0.00    +0.000 C 
ATOM      4  O   UNL     1       5.229   3.450  19.022  0.00  0.00    +0.000 OA
ATOM      5  H   UNL     1       3.397   3.811  16.479  0.00  0.00    +0.000 HD
BRANCH   3   6
ATOM      6  O   UNL     1       3.033   2.892  18.645  0.00  0.00    +0.000 OA
BRANCH   6   7
ATOM      7  C   UNL     1       1.987   3.831  19.049  0.00  0.00    +0.000 C 
ATOM      8  C   UNL     1       2.564   4.977  19.894  0.00  0.00    +0.000 C 
ATOM      9  C   UNL     1       1.374   4.434  17.769  0.00  0.00    +0.000 C 
ATOM     10  C   UNL     1       0.857   3.106  19.795  0.00  0.00    +0.000 C 
ENDBRANCH   6   7
ENDBRANCH   3   6
ENDBRANCH   1   2
BRANCH   1  12
ATOM     11  C   UNL     1       6.422   3.869  14.245  0.00  0.00    +0.000 C 
ATOM     12  C   UNL     1       5.423   4.415  14.968  0.00  0.00    +0.000 C 
BRANCH  11  13
ATOM     13  C   UNL     1       6.421   3.894  12.761  0.00  0.00    +0.000 C 
ATOM     14  O   UNL     1       7.305   4.359  12.063  0.00  0.00    +0.000 OA
BRANCH  13  16
ATOM     15  C   UNL     1       5.541   2.127  11.488  0.00  0.00    +0.000 C 
ATOM     16  O   UNL     1       5.298   3.262  12.325  0.00  0.00    +0.000 OA
ENDBRANCH  13  16
ENDBRANCH  11  13
ENDBRANCH   1  12
BRANCH   1  17
ATOM     17  C   UNL     1       5.539   5.993  16.921  0.00  0.00    +0.000 C 
BRANCH  17  18
ATOM     18  C   UNL     1       6.957   6.391  17.350  0.00  0.00    +0.000 C 
BRANCH  18  19
ATOM     19  C   UNL     1       7.662   5.264  18.077  0.00  0.00    +0.000 C 
ATOM     20  N   UNL     1       7.620   5.348  19.439  0.00  0.00    +0.000 N 
ATOM     21  O   UNL     1       8.246   4.341  17.526  0.00  0.00    +0.000 OA
ATOM     22  H   UNL     1       7.048   6.015  19.939  0.00  0.00    +0.000 HD
ATOM     23  H   UNL     1       8.052   4.598  19.962  0.00  0.00    +0.000 HD
ENDBRANCH  18  19
ENDBRANCH  17  18
ENDBRANCH   1  17
TORSDOF 9
ENDMDL
MODEL 4
REMARK VINA RESULT:      -6.3      2.547      3.158
REMARK  Name = 
REMARK  13 active torsions:
REMARK  status: ('A' for Active; 'I' for Inactive)
REMARK    1  A    between atoms: C_1  and  O_2
REMARK    2  A    between atoms: O_2  and  C_3
REMARK    3  A    between atoms: C_3  and  C_5
REMARK    4  A    between atoms: C_6  and  C_7
REMARK    5  A    between atoms: C_7  and  C_8
REMARK    6  A    between atoms: C_7  and  N_13
REMARK    7  A    between atoms: C_8  and  C_9
REMARK    8  A    between atoms: C_9  and  C_10
REMARK    9  A    between atoms: C_14  and  O_16
REMARK   10  A    between atoms: O_16  and  C_17
REMARK   11  A    between atoms: C_17  and  C_18
REMARK   12  A    between atoms: C_17  and  C_19
REMARK   13  A    between atoms: C_17  and  C_20
REMARK                            x       y       z     vdW  Elec       q    Type
REMARK                         _______ _______ _______ _____ _____    ______ ____
ROOT
ATOM      1  C   UNL     1       4.641   5.696  17.504  0.00  0.00    +0.000 C 
ENDROOT
BRANCH   1   2
ATOM      2  N   UNL     1       3.728   4.677  17.993  0.00  0.00    +0.000 N 
ATOM      3  C   UNL     1       4.110   3.822  18.988  0.00  0.00    +0.000 C 
ATOM      4  O   UNL     1       5.234   3.848  19.481  0.00  0.00    +0.000 OA
ATOM      5  H   UNL     1       2.778   4.605  17.650  0.00  0.00    +0.000 HD
BRANCH   3   6
ATOM      6  O   UNL     1       3.106   2.990  19.368  0.00  0.00    +0.000 OA
BRANCH   6   7
ATOM      7  C   UNL     1       2.146   3.475  20.359  0.00  0.00    +0.000 C 
ATOM      8  C   UNL     1       2.439   4.932  20.752  0.00  0.00    +0.000 C 
ATOM      9  C   UNL     1       0.742   3.417  19.725  0.00  0.00    +0.000 C 
ATOM     10  C   UNL     1       2.124   2.561  21.593  0.00  0.00    +0.000 C 
ENDBRANCH   6   7
ENDBRANCH   3   6
ENDBRANCH   1   2
BRANCH   1  12
ATOM     11  C   UNL     1       6.467   5.080  15.870  0.00  0.00    +0.000 C 
ATOM     12  C   UNL     1       5.163   5.282  16.145  0.00  0.00    +0.000 C 
BRANCH  11  13
ATOM     13  C   UNL     1       6.946   4.796  14.494  0.00  0.00    +0.000 C 
ATOM     14  O   UNL     1       7.820   5.413  13.911  0.00  0.00    +0.000 OA
BRANCH  13  16
ATOM     15  C   UNL     1       6.292   3.563  12.605  0.00  0.00    +0.000 C 
ATOM     16  O   UNL     1       6.281   3.704  14.029  0.00  0.00    +0.000 OA
ENDBRANCH  13  16
ENDBRANCH  11  13
ENDBRANCH   1  12
BRANCH   1  17
ATOM     17  C   UNL     1       3.975   7.079  17.440  0.00  0.00    +0.000 C 
BRANCH  17  18
ATOM     18  C   UNL     1       2.514   7.058  17.908  0.00  0.00    +0.000 C 
BRANCH  18  19
ATOM     19  C   UNL     1       2.023   8.442  18.281  0.00  0.00    +0.000 C 
ATOM     20  N   UNL     1       1.647   8.582  19.586  0.00  0.00    +0.000 N 
ATOM     21  O   UNL     1       1.940   9.381  17.503  0.00  0.00    +0.000 OA
ATOM     22  H   UNL     1       1.813   7.879  20.293  0.00  0.00    +0.000 HD
ATOM     23  H   UNL     1       1.342   9.500  19.884  0.00  0.00    +0.000 HD
ENDBRANCH  18  19
ENDBRANCH  17  18
ENDBRANCH   1  17
TORSDOF 9
ENDMDL
MODEL 5
REMARK VINA RESULT:      -6.3      3.071      6.586
REMARK  Name = 
REMARK  13 active torsions:
REMARK  status: ('A' for Active; 'I' for Inactive)
REMARK    1  A    between atoms: C_1  and  O_2
REMARK    2  A    between atoms: O_2  and  C_3
REMARK    3  A    between atoms: C_3  and  C_5
REMARK    4  A    between atoms: C_6  and  C_7
REMARK    5  A    between atoms: C_7  and  C_8
REMARK    6  A    between atoms: C_7  and  N_13
REMARK    7  A    between atoms: C_8  and  C_9
REMARK    8  A    between atoms: C_9  and  C_10
REMARK    9  A    between atoms: C_14  and  O_16
REMARK   10  A    between atoms: O_16  and  C_17
REMARK   11  A    between atoms: C_17  and  C_18
REMARK   12  A    between atoms: C_17  and  C_19
REMARK   13  A    between atoms: C_17  and  C_20
REMARK                            x       y       z     vdW  Elec       q    Type
REMARK                         _______ _______ _______ _____ _____    ______ ____
ROOT
ATOM      1  C   UNL     1       3.411   5.268  19.733  0.00  0.00    +0.000 C 
ENDROOT
BRANCH   1   2
ATOM      2  N   UNL     1       3.785   4.790  18.413  0.00  0.00    +0.000 N 
ATOM      3  C   UNL     1       5.027   4.268  18.189  0.00  0.00    +0.000 C 
ATOM      4  O   UNL     1       5.885   4.214  19.067  0.00  0.00    +0.000 OA
ATOM      5  H   UNL     1       3.127   4.783  17.643  0.00  0.00    +0.000 HD
BRANCH   3   6
ATOM      6  O   UNL     1       5.174   3.803  16.921  0.00  0.00    +0.000 OA
BRANCH   6   7
ATOM      7  C   UNL     1       5.872   4.649  15.953  0.00  0.00    +0.000 C 
ATOM      8  C   UNL     1       5.319   6.083  15.964  0.00  0.00    +0.000 C 
ATOM      9  C   UNL     1       7.359   4.700  16.358  0.00  0.00    +0.000 C 
ATOM     10  C   UNL     1       5.806   4.039  14.545  0.00  0.00    +0.000 C 
ENDBRANCH   6   7
ENDBRANCH   3   6
ENDBRANCH   1   2
BRANCH   1  12
ATOM     11  C   UNL     1       2.570   7.260  18.425  0.00  0.00    +0.000 C 
ATOM     12  C   UNL     1       2.708   6.602  19.594  0.00  0.00    +0.000 C 
BRANCH  11  13
ATOM     13  C   UNL     1       1.984   8.622  18.355  0.00  0.00    +0.000 C 
ATOM     14  O   UNL     1       2.004   9.348  17.377  0.00  0.00    +0.000 OA
BRANCH  13  16
ATOM     15  C   UNL     1       0.371   9.900  19.486  0.00  0.00    +0.000 C 
ATOM     16  O   UNL     1       1.381   8.888  19.544  0.00  0.00    +0.000 OA
ENDBRANCH  13  16
ENDBRANCH  11  13
ENDBRANCH   1  12
BRANCH   1  17
ATOM     17  C   UNL     1       2.530   4.256  20.480  0.00  0.00    +0.000 C 
BRANCH  17  18
ATOM     18  C   UNL     1       1.143   4.090  19.844  0.00  0.00    +0.000 C 
BRANCH  18  19
ATOM     19  C   UNL     1       1.205   3.284  18.563  0.00  0.00    +0.000 C 
ATOM     20  N   UNL     1       1.344   1.938  18.740  0.00  0.00    +0.000 N 
ATOM     21  O   UNL     1       1.154   3.764  17.439  0.00  0.00    +0.000 OA
ATOM     22  H   UNL     1       1.265   1.483  19.639  0.00  0.00    +0.000 HD
ATOM     23  H   UNL     1       1.358   1.361  17.909  0.00  0.00    +0.000 HD
ENDBRANCH  18  19
ENDBRANCH  17  18
ENDBRANCH   1  17
TORSDOF 9
ENDMDL
MODEL 6
REMARK VINA RESULT:      -6.2      3.098      6.616
REMARK  Name = 
REMARK  13 active torsions:
REMARK  status: ('A' for Active; 'I' for Inactive)
REMARK    1  A    between atoms: C_1  and  O_2
REMARK    2  A    between atoms: O_2  and  C_3
REMARK    3  A    between atoms: C_3  and  C_5
REMARK    4  A    between atoms: C_6  and  C_7
REMARK    5  A    between atoms: C_7  and  C_8
REMARK    6  A    between atoms: C_7  and  N_13
REMARK    7  A    between atoms: C_8  and  C_9
REMARK    8  A    between atoms: C_9  and  C_10
REMARK    9  A    between atoms: C_14  and  O_16
REMARK   10  A    between atoms: O_16  and  C_17
REMARK   11  A    between atoms: C_17  and  C_18
REMARK   12  A    between atoms: C_17  and  C_19
REMARK   13  A    between atoms: C_17  and  C_20
REMARK                            x       y       z     vdW  Elec       q    Type
REMARK                         _______ _______ _______ _____ _____    ______ ____
ROOT
ATOM      1  C   UNL     1       3.475   5.397  19.692  0.00  0.00    +0.000 C 
ENDROOT
BRANCH   1   2
ATOM      2  N   UNL     1       4.107   5.078  18.424  0.00  0.00    +0.000 N 
ATOM      3  C   UNL     1       5.389   4.606  18.385  0.00  0.00    +0.000 C 
ATOM      4  O   UNL     1       6.068   4.468  19.398  0.00  0.00    +0.000 OA
ATOM      5  H   UNL     1       3.606   5.148  17.547  0.00  0.00    +0.000 HD
BRANCH   3   6
ATOM      6  O   UNL     1       5.787   4.292  17.125  0.00  0.00    +0.000 OA
BRANCH   6   7
ATOM      7  C   UNL     1       6.342   5.357  16.291  0.00  0.00    +0.000 C 
ATOM      8  C   UNL     1       7.075   4.783  15.068  0.00  0.00    +0.000 C 
ATOM      9  C   UNL     1       5.170   6.224  15.790  0.00  0.00    +0.000 C 
ATOM     10  C   UNL     1       7.264   6.272  17.111  0.00  0.00    +0.000 C 
ENDBRANCH   6   7
ENDBRANCH   3   6
ENDBRANCH   1   2
BRANCH   1  12
ATOM     11  C   UNL     1       2.662   7.423  18.420  0.00  0.00    +0.000 C 
ATOM     12  C   UNL     1       2.664   6.665  19.535  0.00  0.00    +0.000 C 
BRANCH  11  13
ATOM     13  C   UNL     1       1.950   8.724  18.354  0.00  0.00    +0.000 C 
ATOM     14  O   UNL     1       1.923   9.464  17.387  0.00  0.00    +0.000 OA
BRANCH  13  16
ATOM     15  C   UNL     1       0.720  10.210  19.692  0.00  0.00    +0.000 C 
ATOM     16  O   UNL     1       1.296   8.910  19.532  0.00  0.00    +0.000 OA
ENDBRANCH  13  16
ENDBRANCH  11  13
ENDBRANCH   1  12
BRANCH   1  17
ATOM     17  C   UNL     1       2.600   4.242  20.202  0.00  0.00    +0.000 C 
BRANCH  17  18
ATOM     18  C   UNL     1       1.373   3.989  19.317  0.00  0.00    +0.000 C 
BRANCH  18  19
ATOM     19  C   UNL     1       1.647   2.938  18.261  0.00  0.00    +0.000 C 
ATOM     20  N   UNL     1       1.423   1.653  18.663  0.00  0.00    +0.000 N 
ATOM     21  O   UNL     1       2.052   3.178  17.133  0.00  0.00    +0.000 OA
ATOM     22  H   UNL     1       0.973   1.412  19.535  0.00  0.00    +0.000 HD
ATOM     23  H   UNL     1       1.565   0.922  17.978  0.00  0.00    +0.000 HD
ENDBRANCH  18  19
ENDBRANCH  17  18
ENDBRANCH   1  17
TORSDOF 9
ENDMDL
MODEL 7
REMARK VINA RESULT:      -6.2      3.089      5.156
REMARK  Name = 
REMARK  13 active torsions:
REMARK  status: ('A' for Active; 'I' for Inactive)
REMARK    1  A    between atoms: C_1  and  O_2
REMARK    2  A    between atoms: O_2  and  C_3
REMARK    3  A    between atoms: C_3  and  C_5
REMARK    4  A    between atoms: C_6  and  C_7
REMARK    5  A    between atoms: C_7  and  C_8
REMARK    6  A    between atoms: C_7  and  N_13
REMARK    7  A    between atoms: C_8  and  C_9
REMARK    8  A    between atoms: C_9  and  C_10
REMARK    9  A    between atoms: C_14  and  O_16
REMARK   10  A    between atoms: O_16  and  C_17
REMARK   11  A    between atoms: C_17  and  C_18
REMARK   12  A    between atoms: C_17  and  C_19
REMARK   13  A    between atoms: C_17  and  C_20
REMARK                            x       y       z     vdW  Elec       q    Type
REMARK                         _______ _______ _______ _____ _____    ______ ____
ROOT
ATOM      1  C   UNL     1       4.195   5.790  17.157  0.00  0.00    +0.000 C 
ENDROOT
BRANCH   1   2
ATOM      2  N   UNL     1       3.960   4.873  18.259  0.00  0.00    +0.000 N 
ATOM      3  C   UNL     1       2.967   3.937  18.186  0.00  0.00    +0.000 C 
ATOM      4  O   UNL     1       2.214   3.853  17.220  0.00  0.00    +0.000 OA
ATOM      5  H   UNL     1       4.551   4.867  19.081  0.00  0.00    +0.000 HD
BRANCH   3   6
ATOM      6  O   UNL     1       2.943   3.121  19.271  0.00  0.00    +0.000 OA
BRANCH   6   7
ATOM      7  C   UNL     1       1.952   3.387  20.313  0.00  0.00    +0.000 C 
ATOM      8  C   UNL     1       1.731   4.897  20.499  0.00  0.00    +0.000 C 
ATOM      9  C   UNL     1       0.619   2.753  19.870  0.00  0.00    +0.000 C 
ATOM     10  C   UNL     1       2.354   2.718  21.636  0.00  0.00    +0.000 C 
ENDBRANCH   6   7
ENDBRANCH   3   6
ENDBRANCH   1   2
BRANCH   1  12
ATOM     11  C   UNL     1       2.466   7.458  17.939  0.00  0.00    +0.000 C 
ATOM     12  C   UNL     1       3.727   7.172  17.557  0.00  0.00    +0.000 C 
BRANCH  11  13
ATOM     13  C   UNL     1       2.020   8.849  18.202  0.00  0.00    +0.000 C 
ATOM     14  O   UNL     1       2.095   9.774  17.412  0.00  0.00    +0.000 OA
BRANCH  13  16
ATOM     15  C   UNL     1       0.601  10.006  19.673  0.00  0.00    +0.000 C 
ATOM     16  O   UNL     1       1.469   8.891  19.444  0.00  0.00    +0.000 OA
ENDBRANCH  13  16
ENDBRANCH  11  13
ENDBRANCH   1  12
BRANCH   1  17
ATOM     17  C   UNL     1       5.671   5.808  16.732  0.00  0.00    +0.000 C 
BRANCH  17  18
ATOM     18  C   UNL     1       6.587   6.435  17.791  0.00  0.00    +0.000 C 
BRANCH  18  19
ATOM     19  C   UNL     1       7.221   5.384  18.679  0.00  0.00    +0.000 C 
ATOM     20  N   UNL     1       7.794   4.341  18.011  0.00  0.00    +0.000 N 
ATOM     21  O   UNL     1       7.227   5.422  19.902  0.00  0.00    +0.000 OA
ATOM     22  H   UNL     1       7.925   4.325  17.009  0.00  0.00    +0.000 HD
ATOM     23  H   UNL     1       8.256   3.632  18.567  0.00  0.00    +0.000 HD
ENDBRANCH  18  19
ENDBRANCH  17  18
ENDBRANCH   1  17
TORSDOF 9
ENDMDL
MODEL 8
REMARK VINA RESULT:      -6.2      1.220      1.667
REMARK  Name = 
REMARK  13 active torsions:
REMARK  status: ('A' for Active; 'I' for Inactive)
REMARK    1  A    between atoms: C_1  and  O_2
REMARK    2  A    between atoms: O_2  and  C_3
REMARK    3  A    between atoms: C_3  and  C_5
REMARK    4  A    between atoms: C_6  and  C_7
REMARK    5  A    between atoms: C_7  and  C_8
REMARK    6  A    between atoms: C_7  and  N_13
REMARK    7  A    between atoms: C_8  and  C_9
REMARK    8  A    between atoms: C_9  and  C_10
REMARK    9  A    between atoms: C_14  and  O_16
REMARK   10  A    between atoms: O_16  and  C_17
REMARK   11  A    between atoms: C_17  and  C_18
REMARK   12  A    between atoms: C_17  and  C_19
REMARK   13  A    between atoms: C_17  and  C_20
REMARK                            x       y       z     vdW  Elec       q    Type
REMARK                         _______ _______ _______ _____ _____    ______ ____
ROOT
ATOM      1  C   UNL     1       5.522   4.201  17.925  0.00  0.00    +0.000 C 
ENDROOT
BRANCH   1   2
ATOM      2  N   UNL     1       4.224   3.632  18.244  0.00  0.00    +0.000 N 
ATOM      3  C   UNL     1       4.072   2.811  19.326  0.00  0.00    +0.000 C 
ATOM      4  O   UNL     1       5.014   2.490  20.044  0.00  0.00    +0.000 OA
ATOM      5  H   UNL     1       3.395   3.864  17.711  0.00  0.00    +0.000 HD
BRANCH   3   6
ATOM      6  O   UNL     1       2.780   2.436  19.513  0.00  0.00    +0.000 OA
BRANCH   6   7
ATOM      7  C   UNL     1       1.936   3.271  20.367  0.00  0.00    +0.000 C 
ATOM      8  C   UNL     1       0.523   3.418  19.780  0.00  0.00    +0.000 C 
ATOM      9  C   UNL     1       1.820   2.580  21.740  0.00  0.00    +0.000 C 
ATOM     10  C   UNL     1       2.584   4.643  20.603  0.00  0.00    +0.000 C 
ENDBRANCH   6   7
ENDBRANCH   3   6
ENDBRANCH   1   2
BRANCH   1  12
ATOM     11  C   UNL     1       6.668   4.101  15.676  0.00  0.00    +0.000 C 
ATOM     12  C   UNL     1       5.604   4.437  16.432  0.00  0.00    +0.000 C 
BRANCH  11  13
ATOM     13  C   UNL     1       6.758   4.464  14.239  0.00  0.00    +0.000 C 
ATOM     14  O   UNL     1       7.417   5.381  13.784  0.00  0.00    +0.000 OA
BRANCH  13  16
ATOM     15  C   UNL     1       6.397   3.455  12.150  0.00  0.00    +0.000 C 
ATOM     16  O   UNL     1       6.026   3.565  13.527  0.00  0.00    +0.000 OA
ENDBRANCH  13  16
ENDBRANCH  11  13
ENDBRANCH   1  12
BRANCH   1  17
ATOM     17  C   UNL     1       5.785   5.498  18.704  0.00  0.00    +0.000 C 
BRANCH  17  18
ATOM     18  C   UNL     1       5.997   6.710  17.788  0.00  0.00    +0.000 C 
BRANCH  18  19
ATOM     19  C   UNL     1       7.428   7.207  17.835  0.00  0.00    +0.000 C 
ATOM     20  N   UNL     1       8.165   6.727  18.878  0.00  0.00    +0.000 N 
ATOM     21  O   UNL     1       7.918   7.987  17.031  0.00  0.00    +0.000 OA
ATOM     22  H   UNL     1       7.849   5.989  19.492  0.00  0.00    +0.000 HD
ATOM     23  H   UNL     1       9.136   7.010  18.928  0.00  0.00    +0.000 HD
ENDBRANCH  18  19
ENDBRANCH  17  18
ENDBRANCH   1  17
TORSDOF 9
ENDMDL
MODEL 9
REMARK VINA RESULT:      -6.2      2.948      5.020
REMARK  Name = 
REMARK  13 active torsions:
REMARK  status: ('A' for Active; 'I' for Inactive)
REMARK    1  A    between atoms: C_1  and  O_2
REMARK    2  A    between atoms: O_2  and  C_3
REMARK    3  A    between atoms: C_3  and  C_5
REMARK    4  A    between atoms: C_6  and  C_7
REMARK    5  A    between atoms: C_7  and  C_8
REMARK    6  A    between atoms: C_7  and  N_13
REMARK    7  A    between atoms: C_8  and  C_9
REMARK    8  A    between atoms: C_9  and  C_10
REMARK    9  A    between atoms: C_14  and  O_16
REMARK   10  A    between atoms: O_16  and  C_17
REMARK   11  A    between atoms: C_17  and  C_18
REMARK   12  A    between atoms: C_17  and  C_19
REMARK   13  A    between atoms: C_17  and  C_20
REMARK                            x       y       z     vdW  Elec       q    Type
REMARK                         _______ _______ _______ _____ _____    ______ ____
ROOT
ATOM      1  C   UNL     1       4.323   5.737  17.203  0.00  0.00    +0.000 C 
ENDROOT
BRANCH   1   2
ATOM      2  N   UNL     1       4.089   4.946  18.398  0.00  0.00    +0.000 N 
ATOM      3  C   UNL     1       3.288   3.840  18.355  0.00  0.00    +0.000 C 
ATOM      4  O   UNL     1       2.706   3.491  17.332  0.00  0.00    +0.000 OA
ATOM      5  H   UNL     1       4.549   5.158  19.275  0.00  0.00    +0.000 HD
BRANCH   3   6
ATOM      6  O   UNL     1       3.245   3.184  19.543  0.00  0.00    +0.000 OA
BRANCH   6   7
ATOM      7  C   UNL     1       2.058   3.350  20.381  0.00  0.00    +0.000 C 
ATOM      8  C   UNL     1       2.205   2.596  21.713  0.00  0.00    +0.000 C 
ATOM      9  C   UNL     1       1.905   4.853  20.690  0.00  0.00    +0.000 C 
ATOM     10  C   UNL     1       0.792   2.910  19.631  0.00  0.00    +0.000 C 
ENDBRANCH   6   7
ENDBRANCH   3   6
ENDBRANCH   1   2
BRANCH   1  12
ATOM     11  C   UNL     1       2.668   7.422  18.100  0.00  0.00    +0.000 C 
ATOM     12  C   UNL     1       3.804   7.140  17.430  0.00  0.00    +0.000 C 
BRANCH  11  13
ATOM     13  C   UNL     1       2.131   8.803  18.191  0.00  0.00    +0.000 C 
ATOM     14  O   UNL     1       2.190   9.641  17.309  0.00  0.00    +0.000 OA
BRANCH  13  16
ATOM     15  C   UNL     1       0.584  10.022  19.470  0.00  0.00    +0.000 C 
ATOM     16  O   UNL     1       1.521   8.942  19.398  0.00  0.00    +0.000 OA
ENDBRANCH  13  16
ENDBRANCH  11  13
ENDBRANCH   1  12
BRANCH   1  17
ATOM     17  C   UNL     1       5.808   5.755  16.809  0.00  0.00    +0.000 C 
BRANCH  17  18
ATOM     18  C   UNL     1       6.704   6.365  17.895  0.00  0.00    +0.000 C 
BRANCH  18  19
ATOM     19  C   UNL     1       7.655   5.341  18.480  0.00  0.00    +0.000 C 
ATOM     20  N   UNL     1       8.022   5.576  19.774  0.00  0.00    +0.000 N 
ATOM     21  O   UNL     1       8.095   4.377  17.871  0.00  0.00    +0.000 OA
ATOM     22  H   UNL     1       7.593   6.281  20.356  0.00  0.00    +0.000 HD
ATOM     23  H   UNL     1       8.632   4.898  20.212  0.00  0.00    +0.000 HD
ENDBRANCH  18  19
ENDBRANCH  17  18
ENDBRANCH   1  17
TORSDOF 9
ENDMDL
