MODEL 1
REMARK VINA RESULT:      -8.4      0.000      0.000
REMARK  Name = 
REMARK  13 active torsions:
REMARK  status: ('A' for Active; 'I' for Inactive)
REMARK    1  A    between atoms: C_1  and  C_2
REMARK    2  A    between atoms: C_2  and  C_3
REMARK    3  A    between atoms: C_2  and  C_18
REMARK    4  A    between atoms: N_5  and  C_6
REMARK    5  A    between atoms: C_6  and  C_7
REMARK    6  A    between atoms: C_7  and  C_8
REMARK    7  A    between atoms: C_11  and  C_12
REMARK    8  A    between atoms: C_12  and  C_13
REMARK    9  A    between atoms: C_12  and  C_14
REMARK   10  A    between atoms: C_12  and  C_15
REMARK   11  A    between atoms: C_21  and  N_22
REMARK   12  A    between atoms: N_22  and  S_23
REMARK   13  A    between atoms: S_23  and  C_24
REMARK                            x       y       z     vdW  Elec       q    Type
REMARK                         _______ _______ _______ _____ _____    ______ ____
ROOT
ATOM      1  C   UNL     1       6.747   6.814  16.905  0.00  0.00    +0.000 C 
ATOM      2  O   UNL     1       5.781   7.485  16.561  0.00  0.00    +0.000 OA
ATOM      3  N   UNL     1       7.845   7.348  17.550  0.00  0.00    +0.000 N 
ATOM      4  H   UNL     1       8.691   6.796  17.601  0.00  0.00    +0.000 HD
ENDROOT
BRANCH   1   6
ATOM      5  C   UNL     1       6.809   5.000  15.171  0.00  0.00    +0.000 C 
ATOM      6  C   UNL     1       6.801   5.300  16.673  0.00  0.00    +0.000 C 
BRANCH   6   7
ATOM      7  C   UNL     1       5.728   4.568  17.467  0.00  0.00    +0.000 A 
ATOM      8  C   UNL     1       5.850   4.319  18.844  0.00  0.00    +0.000 A 
ATOM      9  C   UNL     1       4.844   3.655  19.550  0.00  0.00    +0.000 A 
ATOM     10  C   UNL     1       3.707   3.213  18.886  0.00  0.00    +0.000 A 
ATOM     11  C   UNL     1       3.582   3.435  17.515  0.00  0.00    +0.000 A 
ATOM     12  F   UNL     1       2.481   3.027  16.865  0.00  0.00    +0.000 F 
ATOM     13  C   UNL     1       4.577   4.105  16.804  0.00  0.00    +0.000 A 
BRANCH  10  14
ATOM     14  N   UNL     1       2.684   2.581  19.647  0.00  0.00    +0.000 N 
ATOM     15  H   UNL     1       2.187   1.796  19.225  0.00  0.00    +0.000 HD
BRANCH  14  16
ATOM     16  S   UNL     1       1.762   3.515  20.693  0.00  0.00    +0.000 S 
ATOM     17  C   UNL     1       2.229   5.193  20.294  0.00  0.00    +0.000 C 
ATOM     18  O   UNL     1       0.389   3.335  20.269  0.00  0.00    +0.000 OA
ATOM     19  O   UNL     1       2.164   3.234  22.054  0.00  0.00    +0.000 OA
ENDBRANCH  14  16
ENDBRANCH  10  14
ENDBRANCH   6   7
ENDBRANCH   1   6
BRANCH   3  20
ATOM     20  C   UNL     1       7.939   8.781  17.756  0.00  0.00    +0.000 C 
BRANCH  20  21
ATOM     21  C   UNL     1       8.798   9.132  18.968  0.00  0.00    +0.000 C 
BRANCH  21  22
ATOM     22  C   UNL     1       9.315  10.541  18.864  0.00  0.00    +0.000 A 
ATOM     23  C   UNL     1       8.862  11.384  17.848  0.00  0.00    +0.000 A 
ATOM     24  C   UNL     1       9.356  12.686  17.731  0.00  0.00    +0.000 A 
ATOM     25  C   UNL     1      10.315  13.188  18.625  0.00  0.00    +0.000 A 
ATOM     26  C   UNL     1      10.789  12.312  19.620  0.00  0.00    +0.000 A 
ATOM     27  C   UNL     1      10.296  11.009  19.741  0.00  0.00    +0.000 A 
BRANCH  25  28
ATOM     28  C   UNL     1      10.810  14.644  18.573  0.00  0.00    +0.000 C 
ATOM     29  C   UNL     1      12.089  14.886  19.406  0.00  0.00    +0.000 C 
ATOM     30  C   UNL     1      11.139  15.013  17.110  0.00  0.00    +0.000 C 
ATOM     31  C   UNL     1       9.727  15.607  19.102  0.00  0.00    +0.000 C 
ENDBRANCH  25  28
ENDBRANCH  21  22
ENDBRANCH  20  21
ENDBRANCH   3  20
TORSDOF 8
ENDMDL
MODEL 2
REMARK VINA RESULT:      -8.3      1.031      1.764
REMARK  Name = 
REMARK  13 active torsions:
REMARK  status: ('A' for Active; 'I' for Inactive)
REMARK    1  A    between atoms: C_1  and  C_2
REMARK    2  A    between atoms: C_2  and  C_3
REMARK    3  A    between atoms: C_2  and  C_18
REMARK    4  A    between atoms: N_5  and  C_6
REMARK    5  A    between atoms: C_6  and  C_7
REMARK    6  A    between atoms: C_7  and  C_8
REMARK    7  A    between atoms: C_11  and  C_12
REMARK    8  A    between atoms: C_12  and  C_13
REMARK    9  A    between atoms: C_12  and  C_14
REMARK   10  A    between atoms: C_12  and  C_15
REMARK   11  A    between atoms: C_21  and  N_22
REMARK   12  A    between atoms: N_22  and  S_23
REMARK   13  A    between atoms: S_23  and  C_24
REMARK                            x       y       z     vdW  Elec       q    Type
REMARK                         _______ _______ _______ _____ _____    ______ ____
ROOT
ATOM      1  C   UNL     1       6.522   6.739  17.019  0.00  0.00    +0.000 C 
ATOM      2  O   UNL     1       5.480   7.316  17.304  0.00  0.00    +0.000 OA
ATOM      3  N   UNL     1       7.765   7.333  17.119  0.00  0.00    +0.000 N 
ATOM      4  H   UNL     1       8.550   6.890  16.660  0.00  0.00    +0.000 HD
ENDROOT
BRANCH   1   6
ATOM      5  C   UNL     1       6.510   5.218  15.022  0.00  0.00    +0.000 C 
ATOM      6  C   UNL     1       6.534   5.279  16.552  0.00  0.00    +0.000 C 
BRANCH   6   7
ATOM      7  C   UNL     1       5.456   4.456  17.244  0.00  0.00    +0.000 A 
ATOM      8  C   UNL     1       4.281   4.053  16.587  0.00  0.00    +0.000 A 
ATOM      9  C   UNL     1       3.314   3.289  17.244  0.00  0.00    +0.000 A 
ATOM     10  C   UNL     1       3.497   2.930  18.573  0.00  0.00    +0.000 A 
ATOM     11  C   UNL     1       4.650   3.341  19.243  0.00  0.00    +0.000 A 
ATOM     12  F   UNL     1       4.847   2.987  20.522  0.00  0.00    +0.000 F 
ATOM     13  C   UNL     1       5.625   4.096  18.593  0.00  0.00    +0.000 A 
BRANCH  10  14
ATOM     14  N   UNL     1       2.512   2.112  19.193  0.00  0.00    +0.000 N 
ATOM     15  H   UNL     1       2.294   1.213  18.764  0.00  0.00    +0.000 HD
BRANCH  14  16
ATOM     16  S   UNL     1       1.220   2.852  19.968  0.00  0.00    +0.000 S 
ATOM     17  C   UNL     1       1.578   4.596  19.828  0.00  0.00    +0.000 C 
ATOM     18  O   UNL     1       0.062   2.579  19.142  0.00  0.00    +0.000 OA
ATOM     19  O   UNL     1       1.239   2.487  21.368  0.00  0.00    +0.000 OA
ENDBRANCH  14  16
ENDBRANCH  10  14
ENDBRANCH   6   7
ENDBRANCH   1   6
BRANCH   3  20
ATOM     20  C   UNL     1       7.872   8.734  17.479  0.00  0.00    +0.000 C 
BRANCH  20  21
ATOM     21  C   UNL     1       8.669   8.938  18.765  0.00  0.00    +0.000 C 
BRANCH  21  22
ATOM     22  C   UNL     1       9.224  10.335  18.832  0.00  0.00    +0.000 A 
ATOM     23  C   UNL     1      10.028  10.721  19.905  0.00  0.00    +0.000 A 
ATOM     24  C   UNL     1      10.527  12.025  19.986  0.00  0.00    +0.000 A 
ATOM     25  C   UNL     1      10.242  12.980  18.998  0.00  0.00    +0.000 A 
ATOM     26  C   UNL     1       9.399  12.584  17.943  0.00  0.00    +0.000 A 
ATOM     27  C   UNL     1       8.899  11.281  17.857  0.00  0.00    +0.000 A 
BRANCH  25  28
ATOM     28  C   UNL     1      10.850  14.393  19.016  0.00  0.00    +0.000 C 
ATOM     29  C   UNL     1      10.144  15.350  20.004  0.00  0.00    +0.000 C 
ATOM     30  C   UNL     1      12.330  14.301  19.445  0.00  0.00    +0.000 C 
ATOM     31  C   UNL     1      10.772  15.038  17.617  0.00  0.00    +0.000 C 
ENDBRANCH  25  28
ENDBRANCH  21  22
ENDBRANCH  20  21
ENDBRANCH   3  20
TORSDOF 8
ENDMDL
MODEL 3
REMARK VINA RESULT:      -8.1      6.711      9.126
REMARK  Name = 
REMARK  13 active torsions:
REMARK  status: ('A' for Active; 'I' for Inactive)
REMARK    1  A    between atoms: C_1  and  C_2
REMARK    2  A    between atoms: C_2  and  C_3
REMARK    3  A    between atoms: C_2  and  C_18
REMARK    4  A    between atoms: N_5  and  C_6
REMARK    5  A    between atoms: C_6  and  C_7
REMARK    6  A    between atoms: C_7  and  C_8
REMARK    7  A    between atoms: C_11  and  C_12
REMARK    8  A    between atoms: C_12  and  C_13
REMARK    9  A    between atoms: C_12  and  C_14
REMARK   10  A    between atoms: C_12  and  C_15
REMARK   11  A    between atoms: C_21  and  N_22
REMARK   12  A    between atoms: N_22  and  S_23
REMARK   13  A    between atoms: S_23  and  C_24
REMARK                            x       y       z     vdW  Elec       q    Type
REMARK                         _______ _______ _______ _____ _____    ______ ____
ROOT
ATOM      1  C   UNL     1       2.109   6.696  20.125  0.00  0.00    +0.000 C 
ATOM      2  O   UNL     1       2.730   7.401  19.339  0.00  0.00    +0.000 OA
ATOM      3  N   UNL     1       1.343   7.206  21.154  0.00  0.00    +0.000 N 
ATOM      4  H   UNL     1       1.047   6.581  21.892  0.00  0.00    +0.000 HD
ENDROOT
BRANCH   1   6
ATOM      5  C   UNL     1       2.318   4.535  21.387  0.00  0.00    +0.000 C 
ATOM      6  C   UNL     1       2.105   5.167  20.008  0.00  0.00    +0.000 C 
BRANCH   6   7
ATOM      7  C   UNL     1       3.061   4.681  18.927  0.00  0.00    +0.000 A 
ATOM      8  C   UNL     1       2.609   4.124  17.719  0.00  0.00    +0.000 A 
ATOM      9  C   UNL     1       3.508   3.698  16.740  0.00  0.00    +0.000 A 
ATOM     10  C   UNL     1       4.875   3.803  16.960  0.00  0.00    +0.000 A 
ATOM     11  C   UNL     1       5.339   4.335  18.163  0.00  0.00    +0.000 A 
ATOM     12  F   UNL     1       6.657   4.458  18.381  0.00  0.00    +0.000 F 
ATOM     13  C   UNL     1       4.448   4.772  19.142  0.00  0.00    +0.000 A 
BRANCH  10  14
ATOM     14  N   UNL     1       5.759   3.400  15.921  0.00  0.00    +0.000 N 
ATOM     15  H   UNL     1       6.330   2.568  16.071  0.00  0.00    +0.000 HD
BRANCH  14  16
ATOM     16  S   UNL     1       6.478   4.581  14.968  0.00  0.00    +0.000 S 
ATOM     17  C   UNL     1       6.503   3.858  13.335  0.00  0.00    +0.000 C 
ATOM     18  O   UNL     1       5.539   5.684  14.940  0.00  0.00    +0.000 OA
ATOM     19  O   UNL     1       7.842   4.776  15.409  0.00  0.00    +0.000 OA
ENDBRANCH  14  16
ENDBRANCH  10  14
ENDBRANCH   6   7
ENDBRANCH   1   6
BRANCH   3  20
ATOM     20  C   UNL     1       1.330   8.635  21.408  0.00  0.00    +0.000 C 
BRANCH  20  21
ATOM     21  C   UNL     1       0.441   9.386  20.421  0.00  0.00    +0.000 C 
BRANCH  21  22
ATOM     22  C   UNL     1      -0.438  10.373  21.140  0.00  0.00    +0.000 A 
ATOM     23  C   UNL     1      -1.016  11.437  20.445  0.00  0.00    +0.000 A 
ATOM     24  C   UNL     1      -1.813  12.372  21.112  0.00  0.00    +0.000 A 
ATOM     25  C   UNL     1      -2.062  12.270  22.490  0.00  0.00    +0.000 A 
ATOM     26  C   UNL     1      -1.441  11.213  23.181  0.00  0.00    +0.000 A 
ATOM     27  C   UNL     1      -0.644  10.276  22.518  0.00  0.00    +0.000 A 
BRANCH  25  28
ATOM     28  C   UNL     1      -3.006  13.233  23.230  0.00  0.00    +0.000 C 
ATOM     29  C   UNL     1      -3.944  14.019  22.286  0.00  0.00    +0.000 C 
ATOM     30  C   UNL     1      -3.900  12.422  24.193  0.00  0.00    +0.000 C 
ATOM     31  C   UNL     1      -2.201  14.268  24.044  0.00  0.00    +0.000 C 
ENDBRANCH  25  28
ENDBRANCH  21  22
ENDBRANCH  20  21
ENDBRANCH   3  20
TORSDOF 8
ENDMDL
MODEL 4
REMARK VINA RESULT:      -8.0      6.329      8.739
REMARK  Name = 
REMARK  13 active torsions:
REMARK  status: ('A' for Active; 'I' for Inactive)
REMARK    1  A    between atoms: C_1  and  C_2
REMARK    2  A    between atoms: C_2  and  C_3
REMARK    3  A    between atoms: C_2  and  C_18
REMARK    4  A    between atoms: N_5  and  C_6
REMARK    5  A    between atoms: C_6  and  C_7
REMARK    6  A    between atoms: C_7  and  C_8
REMARK    7  A    between atoms: C_11  and  C_12
REMARK    8  A    between atoms: C_12  and  C_13
REMARK    9  A    between atoms: C_12  and  C_14
REMARK   10  A    between atoms: C_12  and  C_15
REMARK   11  A    between atoms: C_21  and  N_22
REMARK   12  A    between atoms: N_22  and  S_23
REMARK   13  A    between atoms: S_23  and  C_24
REMARK                            x       y       z     vdW  Elec       q    Type
REMARK                         _______ _______ _______ _____ _____    ______ ____
ROOT
ATOM      1  C   UNL     1       1.986   6.890  19.915  0.00  0.00    +0.000 C 
ATOM      2  O   UNL     1       2.187   7.641  18.968  0.00  0.00    +0.000 OA
ATOM      3  N   UNL     1       1.596   7.336  21.162  0.00  0.00    +0.000 N 
ATOM      4  H   UNL     1       1.668   6.702  21.946  0.00  0.00    +0.000 HD
ENDROOT
BRANCH   1   6
ATOM      5  C   UNL     1       2.206   4.727  21.170  0.00  0.00    +0.000 C 
ATOM      6  C   UNL     1       2.124   5.369  19.782  0.00  0.00    +0.000 C 
BRANCH   6   7
ATOM      7  C   UNL     1       3.249   4.985  18.830  0.00  0.00    +0.000 A 
ATOM      8  C   UNL     1       3.021   4.250  17.655  0.00  0.00    +0.000 A 
ATOM      9  C   UNL     1       4.071   3.921  16.795  0.00  0.00    +0.000 A 
ATOM     10  C   UNL     1       5.369   4.306  17.105  0.00  0.00    +0.000 A 
ATOM     11  C   UNL     1       5.612   5.019  18.279  0.00  0.00    +0.000 A 
ATOM     12  F   UNL     1       6.859   5.411  18.582  0.00  0.00    +0.000 F 
ATOM     13  C   UNL     1       4.569   5.359  19.139  0.00  0.00    +0.000 A 
BRANCH  10  14
ATOM     14  N   UNL     1       6.405   3.993  16.181  0.00  0.00    +0.000 N 
ATOM     15  H   UNL     1       7.288   3.641  16.551  0.00  0.00    +0.000 HD
BRANCH  14  16
ATOM     16  S   UNL     1       6.546   4.912  14.784  0.00  0.00    +0.000 S 
ATOM     17  C   UNL     1       6.076   3.785  13.481  0.00  0.00    +0.000 C 
ATOM     18  O   UNL     1       5.513   5.923  14.876  0.00  0.00    +0.000 OA
ATOM     19  O   UNL     1       7.933   5.279  14.600  0.00  0.00    +0.000 OA
ENDBRANCH  14  16
ENDBRANCH  10  14
ENDBRANCH   6   7
ENDBRANCH   1   6
BRANCH   3  20
ATOM     20  C   UNL     1       1.505   8.760  21.426  0.00  0.00    +0.000 C 
BRANCH  20  21
ATOM     21  C   UNL     1       0.528   9.073  22.556  0.00  0.00    +0.000 C 
BRANCH  21  22
ATOM     22  C   UNL     1      -0.149  10.396  22.323  0.00  0.00    +0.000 A 
ATOM     23  C   UNL     1       0.318  11.260  21.332  0.00  0.00    +0.000 A 
ATOM     24  C   UNL     1      -0.291  12.502  21.126  0.00  0.00    +0.000 A 
ATOM     25  C   UNL     1      -1.386  12.917  21.901  0.00  0.00    +0.000 A 
ATOM     26  C   UNL     1      -1.819  12.050  22.921  0.00  0.00    +0.000 A 
ATOM     27  C   UNL     1      -1.214  10.806  23.129  0.00  0.00    +0.000 A 
BRANCH  25  28
ATOM     28  C   UNL     1      -2.129  14.238  21.638  0.00  0.00    +0.000 C 
ATOM     29  C   UNL     1      -1.506  15.075  20.498  0.00  0.00    +0.000 C 
ATOM     30  C   UNL     1      -3.587  13.926  21.235  0.00  0.00    +0.000 C 
ATOM     31  C   UNL     1      -2.137  15.120  22.904  0.00  0.00    +0.000 C 
ENDBRANCH  25  28
ENDBRANCH  21  22
ENDBRANCH  20  21
ENDBRANCH   3  20
TORSDOF 8
ENDMDL
MODEL 5
REMARK VINA RESULT:      -8.0      1.694      2.262
REMARK  Name = 
REMARK  13 active torsions:
REMARK  status: ('A' for Active; 'I' for Inactive)
REMARK    1  A    between atoms: C_1  and  C_2
REMARK    2  A    between atoms: C_2  and  C_3
REMARK    3  A    between atoms: C_2  and  C_18
REMARK    4  A    between atoms: N_5  and  C_6
REMARK    5  A    between atoms: C_6  and  C_7
REMARK    6  A    between atoms: C_7  and  C_8
REMARK    7  A    between atoms: C_11  and  C_12
REMARK    8  A    between atoms: C_12  and  C_13
REMARK    9  A    between atoms: C_12  and  C_14
REMARK   10  A    between atoms: C_12  and  C_15
REMARK   11  A    between atoms: C_21  and  N_22
REMARK   12  A    between atoms: N_22  and  S_23
REMARK   13  A    between atoms: S_23  and  C_24
REMARK                            x       y       z     vdW  Elec       q    Type
REMARK                         _______ _______ _______ _____ _____    ______ ____
ROOT
ATOM      1  C   UNL     1       7.195   6.980  17.488  0.00  0.00    +0.000 C 
ATOM      2  O   UNL     1       6.579   7.507  16.569  0.00  0.00    +0.000 OA
ATOM      3  N   UNL     1       8.047   7.676  18.322  0.00  0.00    +0.000 N 
ATOM      4  H   UNL     1       8.688   7.153  18.903  0.00  0.00    +0.000 HD
ENDROOT
BRANCH   1   6
ATOM      5  C   UNL     1       7.783   4.649  16.764  0.00  0.00    +0.000 C 
ATOM      6  C   UNL     1       7.044   5.489  17.810  0.00  0.00    +0.000 C 
BRANCH   6   7
ATOM      7  C   UNL     1       5.587   5.103  18.029  0.00  0.00    +0.000 A 
ATOM      8  C   UNL     1       4.816   4.482  17.033  0.00  0.00    +0.000 A 
ATOM      9  C   UNL     1       3.485   4.129  17.265  0.00  0.00    +0.000 A 
ATOM     10  C   UNL     1       2.897   4.408  18.493  0.00  0.00    +0.000 A 
ATOM     11  C   UNL     1       3.645   5.043  19.484  0.00  0.00    +0.000 A 
ATOM     12  F   UNL     1       3.095   5.304  20.679  0.00  0.00    +0.000 F 
ATOM     13  C   UNL     1       4.977   5.391  19.263  0.00  0.00    +0.000 A 
BRANCH  10  14
ATOM     14  N   UNL     1       1.554   3.993  18.708  0.00  0.00    +0.000 N 
ATOM     15  H   UNL     1       0.868   4.700  18.972  0.00  0.00    +0.000 HD
BRANCH  14  16
ATOM     16  S   UNL     1       1.274   2.469  19.354  0.00  0.00    +0.000 S 
ATOM     17  C   UNL     1       1.118   2.769  21.107  0.00  0.00    +0.000 C 
ATOM     18  O   UNL     1      -0.031   2.072  18.864  0.00  0.00    +0.000 OA
ATOM     19  O   UNL     1       2.438   1.640  19.127  0.00  0.00    +0.000 OA
ENDBRANCH  14  16
ENDBRANCH  10  14
ENDBRANCH   6   7
ENDBRANCH   1   6
BRANCH   3  20
ATOM     20  C   UNL     1       8.326   9.077  18.068  0.00  0.00    +0.000 C 
BRANCH  20  21
ATOM     21  C   UNL     1       9.350   9.646  19.046  0.00  0.00    +0.000 C 
BRANCH  21  22
ATOM     22  C   UNL     1       9.270  11.147  19.088  0.00  0.00    +0.000 A 
ATOM     23  C   UNL     1       9.349  11.822  20.307  0.00  0.00    +0.000 A 
ATOM     24  C   UNL     1       9.251  13.216  20.356  0.00  0.00    +0.000 A 
ATOM     25  C   UNL     1       9.075  13.978  19.190  0.00  0.00    +0.000 A 
ATOM     26  C   UNL     1       8.960  13.278  17.974  0.00  0.00    +0.000 A 
ATOM     27  C   UNL     1       9.059  11.885  17.921  0.00  0.00    +0.000 A 
BRANCH  25  28
ATOM     28  C   UNL     1       9.053  15.516  19.205  0.00  0.00    +0.000 C 
ATOM     29  C   UNL     1       8.132  16.105  20.298  0.00  0.00    +0.000 C 
ATOM     30  C   UNL     1      10.479  16.039  19.477  0.00  0.00    +0.000 C 
ATOM     31  C   UNL     1       8.566  16.067  17.848  0.00  0.00    +0.000 C 
ENDBRANCH  25  28
ENDBRANCH  21  22
ENDBRANCH  20  21
ENDBRANCH   3  20
TORSDOF 8
ENDMDL
MODEL 6
REMARK VINA RESULT:      -7.9      1.700      1.989
REMARK  Name = 
REMARK  13 active torsions:
REMARK  status: ('A' for Active; 'I' for Inactive)
REMARK    1  A    between atoms: C_1  and  C_2
REMARK    2  A    between atoms: C_2  and  C_3
REMARK    3  A    between atoms: C_2  and  C_18
REMARK    4  A    between atoms: N_5  and  C_6
REMARK    5  A    between atoms: C_6  and  C_7
REMARK    6  A    between atoms: C_7  and  C_8
REMARK    7  A    between atoms: C_11  and  C_12
REMARK    8  A    between atoms: C_12  and  C_13
REMARK    9  A    between atoms: C_12  and  C_14
REMARK   10  A    between atoms: C_12  and  C_15
REMARK   11  A    between atoms: C_21  and  N_22
REMARK   12  A    between atoms: N_22  and  S_23
REMARK   13  A    between atoms: S_23  and  C_24
REMARK                            x       y       z     vdW  Elec       q    Type
REMARK                         _______ _______ _______ _____ _____    ______ ____
ROOT
ATOM      1  C   UNL     1       7.786   5.975  18.161  0.00  0.00    +0.000 C 
ATOM      2  O   UNL     1       8.140   5.790  19.320  0.00  0.00    +0.000 OA
ATOM      3  N   UNL     1       7.923   7.187  17.515  0.00  0.00    +0.000 N 
ATOM      4  H   UNL     1       7.413   7.335  16.654  0.00  0.00    +0.000 HD
ENDROOT
BRANCH   1   6
ATOM      5  C   UNL     1       7.485   5.090  15.831  0.00  0.00    +0.000 C 
ATOM      6  C   UNL     1       7.183   4.849  17.313  0.00  0.00    +0.000 C 
BRANCH   6   7
ATOM      7  C   UNL     1       5.714   4.621  17.640  0.00  0.00    +0.000 A 
ATOM      8  C   UNL     1       4.848   3.936  16.771  0.00  0.00    +0.000 A 
ATOM      9  C   UNL     1       3.507   3.732  17.102  0.00  0.00    +0.000 A 
ATOM     10  C   UNL     1       3.004   4.226  18.298  0.00  0.00    +0.000 A 
ATOM     11  C   UNL     1       3.847   4.926  19.161  0.00  0.00    +0.000 A 
ATOM     12  F   UNL     1       3.378   5.393  20.328  0.00  0.00    +0.000 F 
ATOM     13  C   UNL     1       5.190   5.126  18.843  0.00  0.00    +0.000 A 
BRANCH  10  14
ATOM     14  N   UNL     1       1.645   3.958  18.621  0.00  0.00    +0.000 N 
ATOM     15  H   UNL     1       1.053   4.742  18.899  0.00  0.00    +0.000 HD
BRANCH  14  16
ATOM     16  S   UNL     1       1.260   2.496  19.351  0.00  0.00    +0.000 S 
ATOM     17  C   UNL     1       1.157   2.898  21.088  0.00  0.00    +0.000 C 
ATOM     18  O   UNL     1      -0.079   2.176  18.899  0.00  0.00    +0.000 OA
ATOM     19  O   UNL     1       2.354   1.570  19.154  0.00  0.00    +0.000 OA
ENDBRANCH  14  16
ENDBRANCH  10  14
ENDBRANCH   6   7
ENDBRANCH   1   6
BRANCH   3  20
ATOM     20  C   UNL     1       8.412   8.344  18.240  0.00  0.00    +0.000 C 
BRANCH  20  21
ATOM     21  C   UNL     1       7.802   9.645  17.724  0.00  0.00    +0.000 C 
BRANCH  21  22
ATOM     22  C   UNL     1       8.570  10.833  18.235  0.00  0.00    +0.000 A 
ATOM     23  C   UNL     1       8.473  12.065  17.587  0.00  0.00    +0.000 A 
ATOM     24  C   UNL     1       9.204  13.167  18.041  0.00  0.00    +0.000 A 
ATOM     25  C   UNL     1      10.049  13.074  19.158  0.00  0.00    +0.000 A 
ATOM     26  C   UNL     1      10.164  11.815  19.776  0.00  0.00    +0.000 A 
ATOM     27  C   UNL     1       9.434  10.711  19.325  0.00  0.00    +0.000 A 
BRANCH  25  28
ATOM     28  C   UNL     1      10.796  14.291  19.732  0.00  0.00    +0.000 C 
ATOM     29  C   UNL     1      12.329  14.205  19.561  0.00  0.00    +0.000 C 
ATOM     30  C   UNL     1      10.322  15.565  19.000  0.00  0.00    +0.000 C 
ATOM     31  C   UNL     1      10.509  14.443  21.241  0.00  0.00    +0.000 C 
ENDBRANCH  25  28
ENDBRANCH  21  22
ENDBRANCH  20  21
ENDBRANCH   3  20
TORSDOF 8
ENDMDL
MODEL 7
REMARK VINA RESULT:      -7.8      6.293      9.008
REMARK  Name = 
REMARK  13 active torsions:
REMARK  status: ('A' for Active; 'I' for Inactive)
REMARK    1  A    between atoms: C_1  and  C_2
REMARK    2  A    between atoms: C_2  and  C_3
REMARK    3  A    between atoms: C_2  and  C_18
REMARK    4  A    between atoms: N_5  and  C_6
REMARK    5  A    between atoms: C_6  and  C_7
REMARK    6  A    between atoms: C_7  and  C_8
REMARK    7  A    between atoms: C_11  and  C_12
REMARK    8  A    between atoms: C_12  and  C_13
REMARK    9  A    between atoms: C_12  and  C_14
REMARK   10  A    between atoms: C_12  and  C_15
REMARK   11  A    between atoms: C_21  and  N_22
REMARK   12  A    between atoms: N_22  and  S_23
REMARK   13  A    between atoms: S_23  and  C_24
REMARK                            x       y       z     vdW  Elec       q    Type
REMARK                         _______ _______ _______ _____ _____    ______ ____
ROOT
ATOM      1  C   UNL     1       1.980   6.802  20.009  0.00  0.00    +0.000 C 
ATOM      2  O   UNL     1       2.264   7.540  19.074  0.00  0.00    +0.000 OA
ATOM      3  N   UNL     1       1.490   7.264  21.214  0.00  0.00    +0.000 N 
ATOM      4  H   UNL     1       1.493   6.639  22.008  0.00  0.00    +0.000 HD
ENDROOT
BRANCH   1   6
ATOM      5  C   UNL     1       2.213   4.663  21.303  0.00  0.00    +0.000 C 
ATOM      6  C   UNL     1       2.117   5.278  19.904  0.00  0.00    +0.000 C 
BRANCH   6   7
ATOM      7  C   UNL     1       3.232   4.876  18.949  0.00  0.00    +0.000 A 
ATOM      8  C   UNL     1       2.989   4.147  17.773  0.00  0.00    +0.000 A 
ATOM      9  C   UNL     1       4.030   3.802  16.909  0.00  0.00    +0.000 A 
ATOM     10  C   UNL     1       5.336   4.163  17.217  0.00  0.00    +0.000 A 
ATOM     11  C   UNL     1       5.595   4.868  18.392  0.00  0.00    +0.000 A 
ATOM     12  F   UNL     1       6.849   5.238  18.693  0.00  0.00    +0.000 F 
ATOM     13  C   UNL     1       4.560   5.226  19.255  0.00  0.00    +0.000 A 
BRANCH  10  14
ATOM     14  N   UNL     1       6.363   3.833  16.290  0.00  0.00    +0.000 N 
ATOM     15  H   UNL     1       7.255   3.501  16.659  0.00  0.00    +0.000 HD
BRANCH  14  16
ATOM     16  S   UNL     1       6.479   4.713  14.865  0.00  0.00    +0.000 S 
ATOM     17  C   UNL     1       5.360   6.082  15.114  0.00  0.00    +0.000 C 
ATOM     18  O   UNL     1       7.824   5.250  14.846  0.00  0.00    +0.000 OA
ATOM     19  O   UNL     1       5.984   3.904  13.772  0.00  0.00    +0.000 OA
ENDBRANCH  14  16
ENDBRANCH  10  14
ENDBRANCH   6   7
ENDBRANCH   1   6
BRANCH   3  20
ATOM     20  C   UNL     1       1.389   8.691  21.455  0.00  0.00    +0.000 C 
BRANCH  20  21
ATOM     21  C   UNL     1       0.393   9.364  20.513  0.00  0.00    +0.000 C 
BRANCH  21  22
ATOM     22  C   UNL     1      -0.376  10.439  21.230  0.00  0.00    +0.000 A 
ATOM     23  C   UNL     1      -0.623  11.663  20.606  0.00  0.00    +0.000 A 
ATOM     24  C   UNL     1      -1.316  12.676  21.276  0.00  0.00    +0.000 A 
ATOM     25  C   UNL     1      -1.786  12.497  22.586  0.00  0.00    +0.000 A 
ATOM     26  C   UNL     1      -1.496  11.271  23.213  0.00  0.00    +0.000 A 
ATOM     27  C   UNL     1      -0.804  10.255  22.547  0.00  0.00    +0.000 A 
BRANCH  25  28
ATOM     28  C   UNL     1      -2.627  13.561  23.313  0.00  0.00    +0.000 C 
ATOM     29  C   UNL     1      -3.624  12.962  24.332  0.00  0.00    +0.000 C 
ATOM     30  C   UNL     1      -1.685  14.503  24.092  0.00  0.00    +0.000 C 
ATOM     31  C   UNL     1      -3.446  14.391  22.303  0.00  0.00    +0.000 C 
ENDBRANCH  25  28
ENDBRANCH  21  22
ENDBRANCH  20  21
ENDBRANCH   3  20
TORSDOF 8
ENDMDL
MODEL 8
REMARK VINA RESULT:      -7.7      1.203      1.746
REMARK  Name = 
REMARK  13 active torsions:
REMARK  status: ('A' for Active; 'I' for Inactive)
REMARK    1  A    between atoms: C_1  and  C_2
REMARK    2  A    between atoms: C_2  and  C_3
REMARK    3  A    between atoms: C_2  and  C_18
REMARK    4  A    between atoms: N_5  and  C_6
REMARK    5  A    between atoms: C_6  and  C_7
REMARK    6  A    between atoms: C_7  and  C_8
REMARK    7  A    between atoms: C_11  and  C_12
REMARK    8  A    between atoms: C_12  and  C_13
REMARK    9  A    between atoms: C_12  and  C_14
REMARK   10  A    between atoms: C_12  and  C_15
REMARK   11  A    between atoms: C_21  and  N_22
REMARK   12  A    between atoms: N_22  and  S_23
REMARK   13  A    between atoms: S_23  and  C_24
REMARK                            x       y       z     vdW  Elec       q    Type
REMARK                         _______ _______ _______ _____ _____    ______ ____
ROOT
ATOM      1  C   UNL     1       6.975   6.156  16.668  0.00  0.00    +0.000 C 
ATOM      2  O   UNL     1       7.907   5.366  16.762  0.00  0.00    +0.000 OA
ATOM      3  N   UNL     1       7.115   7.515  16.864  0.00  0.00    +0.000 N 
ATOM      4  H   UNL     1       6.282   8.073  16.996  0.00  0.00    +0.000 HD
ENDROOT
BRANCH   1   6
ATOM      5  C   UNL     1       4.723   6.896  15.839  0.00  0.00    +0.000 C 
ATOM      6  C   UNL     1       5.562   5.696  16.289  0.00  0.00    +0.000 C 
BRANCH   6   7
ATOM      7  C   UNL     1       4.932   4.846  17.384  0.00  0.00    +0.000 A 
ATOM      8  C   UNL     1       5.181   5.073  18.748  0.00  0.00    +0.000 A 
ATOM      9  C   UNL     1       4.579   4.285  19.731  0.00  0.00    +0.000 A 
ATOM     10  C   UNL     1       3.733   3.245  19.367  0.00  0.00    +0.000 A 
ATOM     11  C   UNL     1       3.494   2.996  18.016  0.00  0.00    +0.000 A 
ATOM     12  F   UNL     1       2.667   2.005  17.650  0.00  0.00    +0.000 F 
ATOM     13  C   UNL     1       4.083   3.783  17.027  0.00  0.00    +0.000 A 
BRANCH  10  14
ATOM     14  N   UNL     1       3.104   2.494  20.398  0.00  0.00    +0.000 N 
ATOM     15  H   UNL     1       3.093   1.477  20.314  0.00  0.00    +0.000 HD
BRANCH  14  16
ATOM     16  S   UNL     1       1.765   3.148  21.171  0.00  0.00    +0.000 S 
ATOM     17  C   UNL     1       0.454   2.987  19.970  0.00  0.00    +0.000 C 
ATOM     18  O   UNL     1       1.466   2.244  22.263  0.00  0.00    +0.000 OA
ATOM     19  O   UNL     1       2.002   4.555  21.412  0.00  0.00    +0.000 OA
ENDBRANCH  14  16
ENDBRANCH  10  14
ENDBRANCH   6   7
ENDBRANCH   1   6
BRANCH   3  20
ATOM     20  C   UNL     1       8.389   8.056  17.300  0.00  0.00    +0.000 C 
BRANCH  20  21
ATOM     21  C   UNL     1       8.309   8.655  18.703  0.00  0.00    +0.000 C 
BRANCH  21  22
ATOM     22  C   UNL     1       8.862  10.054  18.717  0.00  0.00    +0.000 A 
ATOM     23  C   UNL     1       9.706  10.466  19.749  0.00  0.00    +0.000 A 
ATOM     24  C   UNL     1      10.203  11.772  19.782  0.00  0.00    +0.000 A 
ATOM     25  C   UNL     1       9.877  12.704  18.784  0.00  0.00    +0.000 A 
ATOM     26  C   UNL     1       8.995  12.283  17.772  0.00  0.00    +0.000 A 
ATOM     27  C   UNL     1       8.496  10.977  17.735  0.00  0.00    +0.000 A 
BRANCH  25  28
ATOM     28  C   UNL     1      10.480  14.120  18.748  0.00  0.00    +0.000 C 
ATOM     29  C   UNL     1      11.177  14.454  17.410  0.00  0.00    +0.000 C 
ATOM     30  C   UNL     1       9.352  15.154  18.950  0.00  0.00    +0.000 C 
ATOM     31  C   UNL     1      11.527  14.294  19.868  0.00  0.00    +0.000 C 
ENDBRANCH  25  28
ENDBRANCH  21  22
ENDBRANCH  20  21
ENDBRANCH   3  20
TORSDOF 8
ENDMDL
MODEL 9
REMARK VINA RESULT:      -7.6      7.732     11.605
REMARK  Name = 
REMARK  13 active torsions:
REMARK  status: ('A' for Active; 'I' for Inactive)
REMARK    1  A    between atoms: C_1  and  C_2
REMARK    2  A    between atoms: C_2  and  C_3
REMARK    3  A    between atoms: C_2  and  C_18
REMARK    4  A    between atoms: N_5  and  C_6
REMARK    5  A    between atoms: C_6  and  C_7
REMARK    6  A    between atoms: C_7  and  C_8
REMARK    7  A    between atoms: C_11  and  C_12
REMARK    8  A    between atoms: C_12  and  C_13
REMARK    9  A    between atoms: C_12  and  C_14
REMARK   10  A    between atoms: C_12  and  C_15
REMARK   11  A    between atoms: C_21  and  N_22
REMARK   12  A    between atoms: N_22  and  S_23
REMARK   13  A    between atoms: S_23  and  C_24
REMARK                            x       y       z     vdW  Elec       q    Type
REMARK                         _______ _______ _______ _____ _____    ______ ____
ROOT
ATOM      1  C   UNL     1      -0.027   9.966  20.456  0.00  0.00    +0.000 C 
ATOM      2  O   UNL     1      -0.909   9.155  20.202  0.00  0.00    +0.000 OA
ATOM      3  N   UNL     1       0.973  10.298  19.564  0.00  0.00    +0.000 N 
ATOM      4  H   UNL     1       1.785  10.791  19.909  0.00  0.00    +0.000 HD
ENDROOT
BRANCH   1   6
ATOM      5  C   UNL     1       0.282   9.725  22.936  0.00  0.00    +0.000 C 
ATOM      6  C   UNL     1       0.022  10.712  21.795  0.00  0.00    +0.000 C 
BRANCH   6   7
ATOM      7  C   UNL     1      -1.194  11.608  21.987  0.00  0.00    +0.000 A 
ATOM      8  C   UNL     1      -1.575  12.573  21.039  0.00  0.00    +0.000 A 
ATOM      9  C   UNL     1      -2.702  13.372  21.236  0.00  0.00    +0.000 A 
ATOM     10  C   UNL     1      -3.458  13.234  22.393  0.00  0.00    +0.000 A 
ATOM     11  C   UNL     1      -3.080  12.295  23.352  0.00  0.00    +0.000 A 
ATOM     12  F   UNL     1      -3.810  12.140  24.467  0.00  0.00    +0.000 F 
ATOM     13  C   UNL     1      -1.961  11.485  23.160  0.00  0.00    +0.000 A 
BRANCH  10  14
ATOM     14  N   UNL     1      -4.625  14.035  22.537  0.00  0.00    +0.000 N 
ATOM     15  H   UNL     1      -4.705  14.624  23.367  0.00  0.00    +0.000 HD
BRANCH  14  16
ATOM     16  S   UNL     1      -6.084  13.449  21.950  0.00  0.00    +0.000 S 
ATOM     17  C   UNL     1      -6.228  14.196  20.335  0.00  0.00    +0.000 C 
ATOM     18  O   UNL     1      -5.882  12.027  21.754  0.00  0.00    +0.000 OA
ATOM     19  O   UNL     1      -7.158  13.940  22.785  0.00  0.00    +0.000 OA
ENDBRANCH  14  16
ENDBRANCH  10  14
ENDBRANCH   6   7
ENDBRANCH   1   6
BRANCH   3  20
ATOM     20  C   UNL     1       1.071   9.602  18.295  0.00  0.00    +0.000 C 
BRANCH  20  21
ATOM     21  C   UNL     1       2.406   8.876  18.140  0.00  0.00    +0.000 C 
BRANCH  21  22
ATOM     22  C   UNL     1       2.282   7.437  18.564  0.00  0.00    +0.000 A 
ATOM     23  C   UNL     1       2.177   7.109  19.916  0.00  0.00    +0.000 A 
ATOM     24  C   UNL     1       2.086   5.773  20.318  0.00  0.00    +0.000 A 
ATOM     25  C   UNL     1       2.093   4.726  19.384  0.00  0.00    +0.000 A 
ATOM     26  C   UNL     1       2.238   5.073  18.028  0.00  0.00    +0.000 A 
ATOM     27  C   UNL     1       2.328   6.408  17.621  0.00  0.00    +0.000 A 
BRANCH  25  28
ATOM     28  C   UNL     1       1.906   3.254  19.792  0.00  0.00    +0.000 C 
ATOM     29  C   UNL     1       1.042   2.448  18.796  0.00  0.00    +0.000 C 
ATOM     30  C   UNL     1       3.288   2.569  19.860  0.00  0.00    +0.000 C 
ATOM     31  C   UNL     1       1.228   3.154  21.174  0.00  0.00    +0.000 C 
ENDBRANCH  25  28
ENDBRANCH  21  22
ENDBRANCH  20  21
ENDBRANCH   3  20
TORSDOF 8
ENDMDL
