MODEL 1
REMARK VINA RESULT:      -8.7      0.000      0.000
REMARK  Name = 
REMARK  11 active torsions:
REMARK  status: ('A' for Active; 'I' for Inactive)
REMARK    1  A    between atoms: C_1  and  C_2
REMARK    2  A    between atoms: C_2  and  C_3
REMARK    3  A    between atoms: C_3  and  O_4
REMARK    4  A    between atoms: O_4  and  C_5
REMARK    5  A    between atoms: C_5  and  C_7
REMARK    6  A    between atoms: C_9  and  C_10
REMARK    7  A    between atoms: C_13  and  C_14
REMARK    8  A    between atoms: N_18  and  C_19
REMARK    9  A    between atoms: C_23  and  C_24
REMARK   10  A    between atoms: C_24  and  O_26
REMARK   11  A    between atoms: C_29  and  C_30
REMARK                            x       y       z     vdW  Elec       q    Type
REMARK                         _______ _______ _______ _____ _____    ______ ____
ROOT
ATOM      1  C   UNL     1       6.535   4.845  16.452  0.00  0.00    +0.000 A 
ATOM      2  C   UNL     1       7.262   5.298  17.531  0.00  0.00    +0.000 A 
ATOM      3  C   UNL     1       6.469   5.057  18.681  0.00  0.00    +0.000 A 
ATOM      4  C   UNL     1       5.275   4.480  18.266  0.00  0.00    +0.000 A 
ATOM      5  O   UNL     1       5.322   4.405  16.887  0.00  0.00    +0.000 OA
ENDROOT
BRANCH   4   6
ATOM      6  C   UNL     1       4.149   4.067  19.041  0.00  0.00    +0.000 C 
ATOM      7  C   UNL     1       3.237   4.937  19.496  0.00  0.00    +0.000 C 
ATOM      8  C   UNL     1       3.108   6.374  19.170  0.00  0.00    +0.000 C 
ATOM      9  O   UNL     1       3.673   6.977  18.274  0.00  0.00    +0.000 OA
ATOM     10  N   UNL     1       2.103   6.807  20.044  0.00  0.00    +0.000 N 
ATOM     11  N   UNL     1       1.501   5.786  20.772  0.00  0.00    +0.000 NA
ATOM     12  C   UNL     1       2.136   4.688  20.448  0.00  0.00    +0.000 C 
ATOM     13  C   UNL     1       1.778   3.346  20.996  0.00  0.00    +0.000 C 
BRANCH  10  14
ATOM     14  C   UNL     1       1.589   8.124  20.126  0.00  0.00    +0.000 A 
ATOM     15  C   UNL     1       1.577   8.965  19.004  0.00  0.00    +0.000 A 
ATOM     16  C   UNL     1       0.992  10.229  19.050  0.00  0.00    +0.000 A 
ATOM     17  C   UNL     1       0.431  10.682  20.238  0.00  0.00    +0.000 A 
ATOM     18  C   UNL     1       0.477   9.883  21.385  0.00  0.00    +0.000 A 
ATOM     19  C   UNL     1       1.054   8.605  21.329  0.00  0.00    +0.000 A 
BRANCH  18  20
ATOM     20  C   UNL     1      -0.160  10.410  22.617  0.00  0.00    +0.000 C 
ATOM     21  O   UNL     1      -0.976  11.316  22.598  0.00  0.00    +0.000 OA
BRANCH  20  22
ATOM     22  O   UNL     1       0.276   9.837  23.757  0.00  0.00    +0.000 OA
ATOM     23  H   UNL     1      -0.293   9.131  24.114  0.00  0.00    +0.000 HD
ENDBRANCH  20  22
ENDBRANCH  18  20
ENDBRANCH  10  14
ENDBRANCH   4   6
BRANCH   1  26
ATOM     24  C   UNL     1       6.241   3.801  12.818  0.00  0.00    +0.000 A 
ATOM     25  C   UNL     1       6.054   3.863  14.217  0.00  0.00    +0.000 A 
ATOM     26  C   UNL     1       6.806   4.732  15.022  0.00  0.00    +0.000 A 
ATOM     27  C   UNL     1       7.776   5.530  14.403  0.00  0.00    +0.000 A 
ATOM     28  C   UNL     1       7.957   5.493  13.012  0.00  0.00    +0.000 A 
ATOM     29  C   UNL     1       7.181   4.642  12.215  0.00  0.00    +0.000 A 
ATOM     30 CL   UNL     1       7.405   4.752  10.505  0.00  0.00    +0.000 Cl
BRANCH  24  31
ATOM     31  C   UNL     1       5.395   2.820  12.096  0.00  0.00    +0.000 C 
ATOM     32  O   UNL     1       5.853   1.817  11.574  0.00  0.00    +0.000 OA
BRANCH  31  33
ATOM     33  O   UNL     1       4.137   3.304  11.934  0.00  0.00    +0.000 OA
BRANCH  33  34
ATOM     34  C   UNL     1       3.929   4.188  10.822  0.00  0.00    +0.000 C 
BRANCH  34  36
ATOM     35  C   UNL     1       2.348   4.763   8.970  0.00  0.00    +0.000 C 
ATOM     36  C   UNL     1       2.896   3.641   9.842  0.00  0.00    +0.000 C 
ENDBRANCH  34  36
ENDBRANCH  33  34
ENDBRANCH  31  33
ENDBRANCH  24  31
ENDBRANCH   1  26
TORSDOF 9
ENDMDL
MODEL 2
REMARK VINA RESULT:      -8.5      5.714      9.012
REMARK  Name = 
REMARK  11 active torsions:
REMARK  status: ('A' for Active; 'I' for Inactive)
REMARK    1  A    between atoms: C_1  and  C_2
REMARK    2  A    between atoms: C_2  and  C_3
REMARK    3  A    between atoms: C_3  and  O_4
REMARK    4  A    between atoms: O_4  and  C_5
REMARK    5  A    between atoms: C_5  and  C_7
REMARK    6  A    between atoms: C_9  and  C_10
REMARK    7  A    between atoms: C_13  and  C_14
REMARK    8  A    between atoms: N_18  and  C_19
REMARK    9  A    between atoms: C_23  and  C_24
REMARK   10  A    between atoms: C_24  and  O_26
REMARK   11  A    between atoms: C_29  and  C_30
REMARK                            x       y       z     vdW  Elec       q    Type
REMARK                         _______ _______ _______ _____ _____    ______ ____
ROOT
ATOM      1  C   UNL     1       8.327   8.723  18.277  0.00  0.00    +0.000 A 
ATOM      2  C   UNL     1       8.522   7.670  19.143  0.00  0.00    +0.000 A 
ATOM      3  C   UNL     1       8.061   6.508  18.474  0.00  0.00    +0.000 A 
ATOM      4  C   UNL     1       7.584   6.891  17.227  0.00  0.00    +0.000 A 
ATOM      5  O   UNL     1       7.715   8.264  17.150  0.00  0.00    +0.000 OA
ENDROOT
BRANCH   4   6
ATOM      6  C   UNL     1       7.006   6.094  16.191  0.00  0.00    +0.000 C 
ATOM      7  C   UNL     1       5.893   5.373  16.383  0.00  0.00    +0.000 C 
ATOM      8  C   UNL     1       4.991   5.384  17.555  0.00  0.00    +0.000 C 
ATOM      9  O   UNL     1       4.978   6.198  18.463  0.00  0.00    +0.000 OA
ATOM     10  N   UNL     1       4.106   4.333  17.282  0.00  0.00    +0.000 N 
ATOM     11  N   UNL     1       4.266   3.765  16.023  0.00  0.00    +0.000 NA
ATOM     12  C   UNL     1       5.289   4.373  15.479  0.00  0.00    +0.000 C 
ATOM     13  C   UNL     1       5.780   4.072  14.101  0.00  0.00    +0.000 C 
BRANCH  10  14
ATOM     14  C   UNL     1       3.024   3.929  18.103  0.00  0.00    +0.000 A 
ATOM     15  C   UNL     1       1.710   3.925  17.614  0.00  0.00    +0.000 A 
ATOM     16  C   UNL     1       0.652   3.443  18.383  0.00  0.00    +0.000 A 
ATOM     17  C   UNL     1       0.893   2.981  19.670  0.00  0.00    +0.000 A 
ATOM     18  C   UNL     1       2.188   3.024  20.199  0.00  0.00    +0.000 A 
ATOM     19  C   UNL     1       3.253   3.496  19.416  0.00  0.00    +0.000 A 
BRANCH  18  20
ATOM     20  C   UNL     1       2.388   2.495  21.570  0.00  0.00    +0.000 C 
ATOM     21  O   UNL     1       1.518   2.535  22.423  0.00  0.00    +0.000 OA
BRANCH  20  22
ATOM     22  O   UNL     1       3.625   2.012  21.804  0.00  0.00    +0.000 OA
ATOM     23  H   UNL     1       4.336   2.679  21.828  0.00  0.00    +0.000 HD
ENDBRANCH  20  22
ENDBRANCH  18  20
ENDBRANCH  10  14
ENDBRANCH   4   6
BRANCH   1  26
ATOM     24  C   UNL     1      10.023  11.988  19.197  0.00  0.00    +0.000 A 
ATOM     25  C   UNL     1       9.633  10.630  19.197  0.00  0.00    +0.000 A 
ATOM     26  C   UNL     1       8.651  10.146  18.321  0.00  0.00    +0.000 A 
ATOM     27  C   UNL     1       8.039  11.055  17.449  0.00  0.00    +0.000 A 
ATOM     28  C   UNL     1       8.431  12.402  17.424  0.00  0.00    +0.000 A 
ATOM     29  C   UNL     1       9.433  12.869  18.285  0.00  0.00    +0.000 A 
ATOM     30 CL   UNL     1       9.919  14.517  18.098  0.00  0.00    +0.000 Cl
BRANCH  24  31
ATOM     31  C   UNL     1      11.054  12.366  20.193  0.00  0.00    +0.000 C 
ATOM     32  O   UNL     1      12.248  12.342  19.941  0.00  0.00    +0.000 OA
BRANCH  31  33
ATOM     33  O   UNL     1      10.498  12.524  21.420  0.00  0.00    +0.000 OA
BRANCH  33  34
ATOM     34  C   UNL     1       9.869  13.788  21.680  0.00  0.00    +0.000 C 
BRANCH  34  36
ATOM     35  C   UNL     1       8.195  13.742  23.540  0.00  0.00    +0.000 C 
ATOM     36  C   UNL     1       8.394  13.631  22.033  0.00  0.00    +0.000 C 
ENDBRANCH  34  36
ENDBRANCH  33  34
ENDBRANCH  31  33
ENDBRANCH  24  31
ENDBRANCH   1  26
TORSDOF 9
ENDMDL
MODEL 3
REMARK VINA RESULT:      -8.4      4.499      7.581
REMARK  Name = 
REMARK  11 active torsions:
REMARK  status: ('A' for Active; 'I' for Inactive)
REMARK    1  A    between atoms: C_1  and  C_2
REMARK    2  A    between atoms: C_2  and  C_3
REMARK    3  A    between atoms: C_3  and  O_4
REMARK    4  A    between atoms: O_4  and  C_5
REMARK    5  A    between atoms: C_5  and  C_7
REMARK    6  A    between atoms: C_9  and  C_10
REMARK    7  A    between atoms: C_13  and  C_14
REMARK    8  A    between atoms: N_18  and  C_19
REMARK    9  A    between atoms: C_23  and  C_24
REMARK   10  A    between atoms: C_24  and  O_26
REMARK   11  A    between atoms: C_29  and  C_30
REMARK                            x       y       z     vdW  Elec       q    Type
REMARK                         _______ _______ _______ _____ _____    ______ ____
ROOT
ATOM      1  C   UNL     1       1.999   7.882  18.801  0.00  0.00    +0.000 A 
ATOM      2  C   UNL     1       2.169   8.587  17.631  0.00  0.00    +0.000 A 
ATOM      3  C   UNL     1       1.818   9.931  17.915  0.00  0.00    +0.000 A 
ATOM      4  C   UNL     1       1.428  10.000  19.247  0.00  0.00    +0.000 A 
ATOM      5  O   UNL     1       1.503   8.718  19.755  0.00  0.00    +0.000 OA
ENDROOT
BRANCH   4   6
ATOM      6  C   UNL     1       0.974  11.124  20.003  0.00  0.00    +0.000 C 
ATOM      7  C   UNL     1      -0.282  11.581  19.918  0.00  0.00    +0.000 C 
ATOM      8  C   UNL     1      -1.431  10.964  19.219  0.00  0.00    +0.000 C 
ATOM      9  O   UNL     1      -1.496   9.831  18.774  0.00  0.00    +0.000 OA
ATOM     10  N   UNL     1      -2.427  11.943  19.323  0.00  0.00    +0.000 N 
ATOM     11  N   UNL     1      -2.079  13.029  20.118  0.00  0.00    +0.000 NA
ATOM     12  C   UNL     1      -0.840  12.824  20.489  0.00  0.00    +0.000 C 
ATOM     13  C   UNL     1      -0.091  13.755  21.384  0.00  0.00    +0.000 C 
BRANCH  10  14
ATOM     14  C   UNL     1      -3.746  11.838  18.817  0.00  0.00    +0.000 A 
ATOM     15  C   UNL     1      -3.981  11.664  17.445  0.00  0.00    +0.000 A 
ATOM     16  C   UNL     1      -5.268  11.469  16.949  0.00  0.00    +0.000 A 
ATOM     17  C   UNL     1      -6.348  11.471  17.822  0.00  0.00    +0.000 A 
ATOM     18  C   UNL     1      -6.145  11.695  19.188  0.00  0.00    +0.000 A 
ATOM     19  C   UNL     1      -4.845  11.876  19.685  0.00  0.00    +0.000 A 
BRANCH  18  20
ATOM     20  C   UNL     1      -7.334  11.663  20.075  0.00  0.00    +0.000 C 
ATOM     21  O   UNL     1      -7.722  12.641  20.690  0.00  0.00    +0.000 OA
BRANCH  20  22
ATOM     22  O   UNL     1      -7.916  10.451  20.179  0.00  0.00    +0.000 OA
ATOM     23  H   UNL     1      -8.379  10.140  19.379  0.00  0.00    +0.000 HD
ENDBRANCH  20  22
ENDBRANCH  18  20
ENDBRANCH  10  14
ENDBRANCH   4   6
BRANCH   1  26
ATOM     24  C   UNL     1       3.279   4.313  18.749  0.00  0.00    +0.000 A 
ATOM     25  C   UNL     1       2.947   5.627  18.350  0.00  0.00    +0.000 A 
ATOM     26  C   UNL     1       2.253   6.501  19.200  0.00  0.00    +0.000 A 
ATOM     27  C   UNL     1       1.871   6.029  20.461  0.00  0.00    +0.000 A 
ATOM     28  C   UNL     1       2.212   4.733  20.878  0.00  0.00    +0.000 A 
ATOM     29  C   UNL     1       2.929   3.878  20.032  0.00  0.00    +0.000 A 
ATOM     30 CL   UNL     1       3.395   2.346  20.680  0.00  0.00    +0.000 Cl
BRANCH  24  31
ATOM     31  C   UNL     1       3.992   3.491  17.742  0.00  0.00    +0.000 C 
ATOM     32  O   UNL     1       3.722   2.317  17.543  0.00  0.00    +0.000 OA
BRANCH  31  33
ATOM     33  O   UNL     1       5.071   4.157  17.259  0.00  0.00    +0.000 OA
BRANCH  33  34
ATOM     34  C   UNL     1       6.125   4.431  18.194  0.00  0.00    +0.000 C 
BRANCH  34  36
ATOM     35  C   UNL     1       7.130   6.699  17.860  0.00  0.00    +0.000 C 
ATOM     36  C   UNL     1       7.268   5.212  17.555  0.00  0.00    +0.000 C 
ENDBRANCH  34  36
ENDBRANCH  33  34
ENDBRANCH  31  33
ENDBRANCH  24  31
ENDBRANCH   1  26
TORSDOF 9
ENDMDL
MODEL 4
REMARK VINA RESULT:      -8.3      4.373      7.219
REMARK  Name = 
REMARK  11 active torsions:
REMARK  status: ('A' for Active; 'I' for Inactive)
REMARK    1  A    between atoms: C_1  and  C_2
REMARK    2  A    between atoms: C_2  and  C_3
REMARK    3  A    between atoms: C_3  and  O_4
REMARK    4  A    between atoms: O_4  and  C_5
REMARK    5  A    between atoms: C_5  and  C_7
REMARK    6  A    between atoms: C_9  and  C_10
REMARK    7  A    between atoms: C_13  and  C_14
REMARK    8  A    between atoms: N_18  and  C_19
REMARK    9  A    between atoms: C_23  and  C_24
REMARK   10  A    between atoms: C_24  and  O_26
REMARK   11  A    between atoms: C_29  and  C_30
REMARK                            x       y       z     vdW  Elec       q    Type
REMARK                         _______ _______ _______ _____ _____    ______ ____
ROOT
ATOM      1  C   UNL     1       2.171   7.749  18.823  0.00  0.00    +0.000 A 
ATOM      2  C   UNL     1       2.189   8.559  17.710  0.00  0.00    +0.000 A 
ATOM      3  C   UNL     1       1.731   9.833  18.132  0.00  0.00    +0.000 A 
ATOM      4  C   UNL     1       1.432   9.755  19.486  0.00  0.00    +0.000 A 
ATOM      5  O   UNL     1       1.666   8.450  19.876  0.00  0.00    +0.000 OA
ENDROOT
BRANCH   4   6
ATOM      6  C   UNL     1       0.926  10.762  20.364  0.00  0.00    +0.000 C 
ATOM      7  C   UNL     1      -0.300  11.284  20.221  0.00  0.00    +0.000 C 
ATOM      8  C   UNL     1      -1.378  10.841  19.310  0.00  0.00    +0.000 C 
ATOM      9  O   UNL     1      -1.423   9.799  18.679  0.00  0.00    +0.000 OA
ATOM     10  N   UNL     1      -2.352  11.836  19.466  0.00  0.00    +0.000 N 
ATOM     11  N   UNL     1      -2.066  12.762  20.463  0.00  0.00    +0.000 NA
ATOM     12  C   UNL     1      -0.884  12.443  20.926  0.00  0.00    +0.000 C 
ATOM     13  C   UNL     1      -0.216  13.182  22.038  0.00  0.00    +0.000 C 
BRANCH  10  14
ATOM     14  C   UNL     1      -3.607  11.874  18.810  0.00  0.00    +0.000 A 
ATOM     15  C   UNL     1      -3.723  11.535  17.455  0.00  0.00    +0.000 A 
ATOM     16  C   UNL     1      -4.965  11.482  16.824  0.00  0.00    +0.000 A 
ATOM     17  C   UNL     1      -6.113  11.796  17.541  0.00  0.00    +0.000 A 
ATOM     18  C   UNL     1      -6.017  12.188  18.880  0.00  0.00    +0.000 A 
ATOM     19  C   UNL     1      -4.766  12.225  19.515  0.00  0.00    +0.000 A 
BRANCH  18  20
ATOM     20  C   UNL     1      -7.279  12.488  19.601  0.00  0.00    +0.000 C 
ATOM     21  O   UNL     1      -7.915  13.510  19.413  0.00  0.00    +0.000 OA
BRANCH  20  22
ATOM     22  O   UNL     1      -7.633  11.558  20.511  0.00  0.00    +0.000 OA
ATOM     23  H   UNL     1      -7.659  10.641  20.184  0.00  0.00    +0.000 HD
ENDBRANCH  20  22
ENDBRANCH  18  20
ENDBRANCH  10  14
ENDBRANCH   4   6
BRANCH   1  26
ATOM     24  C   UNL     1       4.243   4.572  18.854  0.00  0.00    +0.000 A 
ATOM     25  C   UNL     1       3.780   5.871  18.546  0.00  0.00    +0.000 A 
ATOM     26  C   UNL     1       2.586   6.373  19.083  0.00  0.00    +0.000 A 
ATOM     27  C   UNL     1       1.839   5.539  19.925  0.00  0.00    +0.000 A 
ATOM     28  C   UNL     1       2.298   4.254  20.254  0.00  0.00    +0.000 A 
ATOM     29  C   UNL     1       3.506   3.773  19.734  0.00  0.00    +0.000 A 
ATOM     30 CL   UNL     1       4.036   2.226  20.289  0.00  0.00    +0.000 Cl
BRANCH  24  31
ATOM     31  C   UNL     1       5.508   4.163  18.196  0.00  0.00    +0.000 C 
ATOM     32  O   UNL     1       6.605   4.439  18.655  0.00  0.00    +0.000 OA
BRANCH  31  33
ATOM     33  O   UNL     1       5.261   3.651  16.964  0.00  0.00    +0.000 OA
BRANCH  33  34
ATOM     34  C   UNL     1       6.156   4.050  15.915  0.00  0.00    +0.000 C 
BRANCH  34  36
ATOM     35  C   UNL     1       5.258   6.341  15.458  0.00  0.00    +0.000 C 
ATOM     36  C   UNL     1       5.470   4.945  14.887  0.00  0.00    +0.000 C 
ENDBRANCH  34  36
ENDBRANCH  33  34
ENDBRANCH  31  33
ENDBRANCH  24  31
ENDBRANCH   1  26
TORSDOF 9
ENDMDL
MODEL 5
REMARK VINA RESULT:      -8.1      1.416      1.793
REMARK  Name = 
REMARK  11 active torsions:
REMARK  status: ('A' for Active; 'I' for Inactive)
REMARK    1  A    between atoms: C_1  and  C_2
REMARK    2  A    between atoms: C_2  and  C_3
REMARK    3  A    between atoms: C_3  and  O_4
REMARK    4  A    between atoms: O_4  and  C_5
REMARK    5  A    between atoms: C_5  and  C_7
REMARK    6  A    between atoms: C_9  and  C_10
REMARK    7  A    between atoms: C_13  and  C_14
REMARK    8  A    between atoms: N_18  and  C_19
REMARK    9  A    between atoms: C_23  and  C_24
REMARK   10  A    between atoms: C_24  and  O_26
REMARK   11  A    between atoms: C_29  and  C_30
REMARK                            x       y       z     vdW  Elec       q    Type
REMARK                         _______ _______ _______ _____ _____    ______ ____
ROOT
ATOM      1  C   UNL     1       6.281   4.537  16.408  0.00  0.00    +0.000 A 
ATOM      2  C   UNL     1       6.984   4.877  17.542  0.00  0.00    +0.000 A 
ATOM      3  C   UNL     1       6.134   4.599  18.642  0.00  0.00    +0.000 A 
ATOM      4  C   UNL     1       4.932   4.113  18.142  0.00  0.00    +0.000 A 
ATOM      5  O   UNL     1       5.031   4.131  16.764  0.00  0.00    +0.000 OA
ENDROOT
BRANCH   4   6
ATOM      6  C   UNL     1       3.756   3.707  18.844  0.00  0.00    +0.000 C 
ATOM      7  C   UNL     1       2.915   4.590  19.401  0.00  0.00    +0.000 C 
ATOM      8  C   UNL     1       2.923   6.063  19.268  0.00  0.00    +0.000 C 
ATOM      9  O   UNL     1       3.559   6.724  18.466  0.00  0.00    +0.000 OA
ATOM     10  N   UNL     1       1.940   6.467  20.182  0.00  0.00    +0.000 N 
ATOM     11  N   UNL     1       1.233   5.418  20.760  0.00  0.00    +0.000 NA
ATOM     12  C   UNL     1       1.775   4.319  20.300  0.00  0.00    +0.000 C 
ATOM     13  C   UNL     1       1.286   2.955  20.660  0.00  0.00    +0.000 C 
BRANCH  10  14
ATOM     14  C   UNL     1       1.545   7.804  20.433  0.00  0.00    +0.000 A 
ATOM     15  C   UNL     1       1.304   8.252  21.740  0.00  0.00    +0.000 A 
ATOM     16  C   UNL     1       1.003   9.586  22.006  0.00  0.00    +0.000 A 
ATOM     17  C   UNL     1       0.913  10.491  20.956  0.00  0.00    +0.000 A 
ATOM     18  C   UNL     1       1.097  10.057  19.639  0.00  0.00    +0.000 A 
ATOM     19  C   UNL     1       1.414   8.716  19.377  0.00  0.00    +0.000 A 
BRANCH  18  20
ATOM     20  C   UNL     1       1.011  11.075  18.562  0.00  0.00    +0.000 C 
ATOM     21  O   UNL     1       1.866  11.928  18.395  0.00  0.00    +0.000 OA
BRANCH  20  22
ATOM     22  O   UNL     1      -0.111  11.003  17.818  0.00  0.00    +0.000 OA
ATOM     23  H   UNL     1      -0.370  11.830  17.371  0.00  0.00    +0.000 HD
ENDBRANCH  20  22
ENDBRANCH  18  20
ENDBRANCH  10  14
ENDBRANCH   4   6
BRANCH   1  26
ATOM     24  C   UNL     1       6.133   3.694  12.713  0.00  0.00    +0.000 A 
ATOM     25  C   UNL     1       5.896   3.675  14.105  0.00  0.00    +0.000 A 
ATOM     26  C   UNL     1       6.605   4.508  14.984  0.00  0.00    +0.000 A 
ATOM     27  C   UNL     1       7.583   5.352  14.446  0.00  0.00    +0.000 A 
ATOM     28  C   UNL     1       7.815   5.396  13.063  0.00  0.00    +0.000 A 
ATOM     29  C   UNL     1       7.082   4.580  12.192  0.00  0.00    +0.000 A 
ATOM     30 CL   UNL     1       7.365   4.789  10.501  0.00  0.00    +0.000 Cl
BRANCH  24  31
ATOM     31  C   UNL     1       5.329   2.744  11.906  0.00  0.00    +0.000 C 
ATOM     32  O   UNL     1       5.801   1.725  11.430  0.00  0.00    +0.000 OA
BRANCH  31  33
ATOM     33  O   UNL     1       4.111   3.272  11.621  0.00  0.00    +0.000 OA
BRANCH  33  34
ATOM     34  C   UNL     1       3.808   3.467  10.232  0.00  0.00    +0.000 C 
BRANCH  34  36
ATOM     35  C   UNL     1       2.561   4.816   8.533  0.00  0.00    +0.000 C 
ATOM     36  C   UNL     1       2.787   4.581  10.021  0.00  0.00    +0.000 C 
ENDBRANCH  34  36
ENDBRANCH  33  34
ENDBRANCH  31  33
ENDBRANCH  24  31
ENDBRANCH   1  26
TORSDOF 9
ENDMDL
MODEL 6
REMARK VINA RESULT:      -8.1      4.270      6.925
REMARK  Name = 
REMARK  11 active torsions:
REMARK  status: ('A' for Active; 'I' for Inactive)
REMARK    1  A    between atoms: C_1  and  C_2
REMARK    2  A    between atoms: C_2  and  C_3
REMARK    3  A    between atoms: C_3  and  O_4
REMARK    4  A    between atoms: O_4  and  C_5
REMARK    5  A    between atoms: C_5  and  C_7
REMARK    6  A    between atoms: C_9  and  C_10
REMARK    7  A    between atoms: C_13  and  C_14
REMARK    8  A    between atoms: N_18  and  C_19
REMARK    9  A    between atoms: C_23  and  C_24
REMARK   10  A    between atoms: C_24  and  O_26
REMARK   11  A    between atoms: C_29  and  C_30
REMARK                            x       y       z     vdW  Elec       q    Type
REMARK                         _______ _______ _______ _____ _____    ______ ____
ROOT
ATOM      1  C   UNL     1       2.216   7.754  18.268  0.00  0.00    +0.000 A 
ATOM      2  C   UNL     1       2.400   8.877  17.494  0.00  0.00    +0.000 A 
ATOM      3  C   UNL     1       1.876   9.967  18.234  0.00  0.00    +0.000 A 
ATOM      4  C   UNL     1       1.372   9.471  19.430  0.00  0.00    +0.000 A 
ATOM      5  O   UNL     1       1.550   8.101  19.404  0.00  0.00    +0.000 OA
ENDROOT
BRANCH   4   6
ATOM      6  C   UNL     1       0.732  10.164  20.502  0.00  0.00    +0.000 C 
ATOM      7  C   UNL     1      -0.467  10.744  20.362  0.00  0.00    +0.000 C 
ATOM      8  C   UNL     1      -1.398  10.648  19.216  0.00  0.00    +0.000 C 
ATOM      9  O   UNL     1      -1.338   9.862  18.287  0.00  0.00    +0.000 OA
ATOM     10  N   UNL     1      -2.398  11.573  19.543  0.00  0.00    +0.000 N 
ATOM     11  N   UNL     1      -2.271  12.126  20.812  0.00  0.00    +0.000 NA
ATOM     12  C   UNL     1      -1.163  11.638  21.310  0.00  0.00    +0.000 C 
ATOM     13  C   UNL     1      -0.671  11.966  22.682  0.00  0.00    +0.000 C 
BRANCH  10  14
ATOM     14  C   UNL     1      -3.546  11.858  18.764  0.00  0.00    +0.000 A 
ATOM     15  C   UNL     1      -3.674  11.363  17.458  0.00  0.00    +0.000 A 
ATOM     16  C   UNL     1      -4.838  11.561  16.718  0.00  0.00    +0.000 A 
ATOM     17  C   UNL     1      -5.887  12.286  17.269  0.00  0.00    +0.000 A 
ATOM     18  C   UNL     1      -5.762  12.836  18.549  0.00  0.00    +0.000 A 
ATOM     19  C   UNL     1      -4.594  12.621  19.297  0.00  0.00    +0.000 A 
BRANCH  18  20
ATOM     20  C   UNL     1      -6.925  13.580  19.094  0.00  0.00    +0.000 C 
ATOM     21  O   UNL     1      -7.915  13.021  19.534  0.00  0.00    +0.000 OA
BRANCH  20  22
ATOM     22  O   UNL     1      -6.811  14.922  19.015  0.00  0.00    +0.000 OA
ATOM     23  H   UNL     1      -5.905  15.258  18.889  0.00  0.00    +0.000 HD
ENDBRANCH  20  22
ENDBRANCH  18  20
ENDBRANCH  10  14
ENDBRANCH   4   6
BRANCH   1  26
ATOM     24  C   UNL     1       4.329   4.613  18.042  0.00  0.00    +0.000 A 
ATOM     25  C   UNL     1       3.942   5.970  18.093  0.00  0.00    +0.000 A 
ATOM     26  C   UNL     1       2.592   6.350  18.125  0.00  0.00    +0.000 A 
ATOM     27  C   UNL     1       1.622   5.341  18.080  0.00  0.00    +0.000 A 
ATOM     28  C   UNL     1       1.993   3.988  18.050  0.00  0.00    +0.000 A 
ATOM     29  C   UNL     1       3.344   3.619  18.047  0.00  0.00    +0.000 A 
ATOM     30 CL   UNL     1       3.694   1.929  18.120  0.00  0.00    +0.000 Cl
BRANCH  24  31
ATOM     31  C   UNL     1       5.789   4.357  17.988  0.00  0.00    +0.000 C 
ATOM     32  O   UNL     1       6.531   4.592  18.928  0.00  0.00    +0.000 OA
BRANCH  31  33
ATOM     33  O   UNL     1       6.172   4.043  16.724  0.00  0.00    +0.000 OA
BRANCH  33  34
ATOM     34  C   UNL     1       7.010   4.997  16.054  0.00  0.00    +0.000 C 
BRANCH  34  36
ATOM     35  C   UNL     1       5.731   4.035  14.130  0.00  0.00    +0.000 C 
ATOM     36  C   UNL     1       6.963   4.834  14.539  0.00  0.00    +0.000 C 
ENDBRANCH  34  36
ENDBRANCH  33  34
ENDBRANCH  31  33
ENDBRANCH  24  31
ENDBRANCH   1  26
TORSDOF 9
ENDMDL
MODEL 7
REMARK VINA RESULT:      -8.0      3.116     10.367
REMARK  Name = 
REMARK  11 active torsions:
REMARK  status: ('A' for Active; 'I' for Inactive)
REMARK    1  A    between atoms: C_1  and  C_2
REMARK    2  A    between atoms: C_2  and  C_3
REMARK    3  A    between atoms: C_3  and  O_4
REMARK    4  A    between atoms: O_4  and  C_5
REMARK    5  A    between atoms: C_5  and  C_7
REMARK    6  A    between atoms: C_9  and  C_10
REMARK    7  A    between atoms: C_13  and  C_14
REMARK    8  A    between atoms: N_18  and  C_19
REMARK    9  A    between atoms: C_23  and  C_24
REMARK   10  A    between atoms: C_24  and  O_26
REMARK   11  A    between atoms: C_29  and  C_30
REMARK                            x       y       z     vdW  Elec       q    Type
REMARK                         _______ _______ _______ _____ _____    ______ ____
ROOT
ATOM      1  C   UNL     1       2.472   6.741  19.272  0.00  0.00    +0.000 A 
ATOM      2  C   UNL     1       2.097   5.446  19.554  0.00  0.00    +0.000 A 
ATOM      3  C   UNL     1       3.292   4.685  19.612  0.00  0.00    +0.000 A 
ATOM      4  C   UNL     1       4.357   5.536  19.347  0.00  0.00    +0.000 A 
ATOM      5  O   UNL     1       3.821   6.784  19.094  0.00  0.00    +0.000 OA
ENDROOT
BRANCH   4   6
ATOM      6  C   UNL     1       5.754   5.248  19.277  0.00  0.00    +0.000 C 
ATOM      7  C   UNL     1       6.379   5.025  18.113  0.00  0.00    +0.000 C 
ATOM      8  C   UNL     1       5.843   5.193  16.744  0.00  0.00    +0.000 C 
ATOM      9  O   UNL     1       4.814   5.762  16.424  0.00  0.00    +0.000 OA
ATOM     10  N   UNL     1       6.862   4.665  15.939  0.00  0.00    +0.000 N 
ATOM     11  N   UNL     1       8.016   4.319  16.633  0.00  0.00    +0.000 NA
ATOM     12  C   UNL     1       7.758   4.542  17.897  0.00  0.00    +0.000 C 
ATOM     13  C   UNL     1       8.757   4.320  18.985  0.00  0.00    +0.000 C 
BRANCH  10  14
ATOM     14  C   UNL     1       6.846   4.599  14.524  0.00  0.00    +0.000 A 
ATOM     15  C   UNL     1       7.711   5.391  13.756  0.00  0.00    +0.000 A 
ATOM     16  C   UNL     1       7.768   5.268  12.369  0.00  0.00    +0.000 A 
ATOM     17  C   UNL     1       6.934   4.362  11.726  0.00  0.00    +0.000 A 
ATOM     18  C   UNL     1       6.025   3.599  12.466  0.00  0.00    +0.000 A 
ATOM     19  C   UNL     1       5.982   3.715  13.864  0.00  0.00    +0.000 A 
BRANCH  18  20
ATOM     20  C   UNL     1       5.177   2.631  11.727  0.00  0.00    +0.000 C 
ATOM     21  O   UNL     1       4.053   2.903  11.342  0.00  0.00    +0.000 OA
BRANCH  20  22
ATOM     22  O   UNL     1       5.737   1.415  11.561  0.00  0.00    +0.000 OA
ATOM     23  H   UNL     1       6.449   1.370  10.898  0.00  0.00    +0.000 HD
ENDBRANCH  20  22
ENDBRANCH  18  20
ENDBRANCH  10  14
ENDBRANCH   4   6
BRANCH   1  26
ATOM     24  C   UNL     1       0.588   9.894  20.216  0.00  0.00    +0.000 A 
ATOM     25  C   UNL     1       1.216   8.631  20.293  0.00  0.00    +0.000 A 
ATOM     26  C   UNL     1       1.748   8.004  19.157  0.00  0.00    +0.000 A 
ATOM     27  C   UNL     1       1.621   8.655  17.924  0.00  0.00    +0.000 A 
ATOM     28  C   UNL     1       1.018   9.919  17.837  0.00  0.00    +0.000 A 
ATOM     29  C   UNL     1       0.515  10.549  18.983  0.00  0.00    +0.000 A 
ATOM     30 CL   UNL     1      -0.107  12.148  18.786  0.00  0.00    +0.000 Cl
BRANCH  24  31
ATOM     31  C   UNL     1       0.050  10.428  21.491  0.00  0.00    +0.000 C 
ATOM     32  O   UNL     1       0.649  10.328  22.549  0.00  0.00    +0.000 OA
BRANCH  31  33
ATOM     33  O   UNL     1      -1.238  10.828  21.335  0.00  0.00    +0.000 OA
BRANCH  33  34
ATOM     34  C   UNL     1      -1.626  12.022  22.031  0.00  0.00    +0.000 C 
BRANCH  34  36
ATOM     35  C   UNL     1      -3.442  12.762  23.584  0.00  0.00    +0.000 C 
ATOM     36  C   UNL     1      -2.368  11.713  23.326  0.00  0.00    +0.000 C 
ENDBRANCH  34  36
ENDBRANCH  33  34
ENDBRANCH  31  33
ENDBRANCH  24  31
ENDBRANCH   1  26
TORSDOF 9
ENDMDL
MODEL 8
REMARK VINA RESULT:      -7.9      4.272      7.351
REMARK  Name = 
REMARK  11 active torsions:
REMARK  status: ('A' for Active; 'I' for Inactive)
REMARK    1  A    between atoms: C_1  and  C_2
REMARK    2  A    between atoms: C_2  and  C_3
REMARK    3  A    between atoms: C_3  and  O_4
REMARK    4  A    between atoms: O_4  and  C_5
REMARK    5  A    between atoms: C_5  and  C_7
REMARK    6  A    between atoms: C_9  and  C_10
REMARK    7  A    between atoms: C_13  and  C_14
REMARK    8  A    between atoms: N_18  and  C_19
REMARK    9  A    between atoms: C_23  and  C_24
REMARK   10  A    between atoms: C_24  and  O_26
REMARK   11  A    between atoms: C_29  and  C_30
REMARK                            x       y       z     vdW  Elec       q    Type
REMARK                         _______ _______ _______ _____ _____    ______ ____
ROOT
ATOM      1  C   UNL     1       1.736   7.033  20.298  0.00  0.00    +0.000 A 
ATOM      2  C   UNL     1       1.148   7.361  21.500  0.00  0.00    +0.000 A 
ATOM      3  C   UNL     1       0.942   8.763  21.477  0.00  0.00    +0.000 A 
ATOM      4  C   UNL     1       1.426   9.250  20.269  0.00  0.00    +0.000 A 
ATOM      5  O   UNL     1       1.953   8.172  19.584  0.00  0.00    +0.000 OA
ENDROOT
BRANCH   4   6
ATOM      6  C   UNL     1       1.462  10.591  19.779  0.00  0.00    +0.000 C 
ATOM      7  C   UNL     1       0.380  11.191  19.265  0.00  0.00    +0.000 C 
ATOM      8  C   UNL     1      -1.016  10.703  19.258  0.00  0.00    +0.000 C 
ATOM      9  O   UNL     1      -1.471   9.772  19.900  0.00  0.00    +0.000 OA
ATOM     10  N   UNL     1      -1.676  11.644  18.457  0.00  0.00    +0.000 N 
ATOM     11  N   UNL     1      -0.888  12.727  18.082  0.00  0.00    +0.000 NA
ATOM     12  C   UNL     1       0.306  12.489  18.562  0.00  0.00    +0.000 C 
ATOM     13  C   UNL     1       1.454  13.431  18.401  0.00  0.00    +0.000 C 
BRANCH  10  14
ATOM     14  C   UNL     1      -3.057  11.638  18.140  0.00  0.00    +0.000 A 
ATOM     15  C   UNL     1      -3.497  11.366  16.837  0.00  0.00    +0.000 A 
ATOM     16  C   UNL     1      -4.854  11.268  16.535  0.00  0.00    +0.000 A 
ATOM     17  C   UNL     1      -5.796  11.468  17.536  0.00  0.00    +0.000 A 
ATOM     18  C   UNL     1      -5.382  11.792  18.833  0.00  0.00    +0.000 A 
ATOM     19  C   UNL     1      -4.014  11.875  19.135  0.00  0.00    +0.000 A 
BRANCH  18  20
ATOM     20  C   UNL     1      -6.433  11.971  19.865  0.00  0.00    +0.000 C 
ATOM     21  O   UNL     1      -6.235  12.572  20.907  0.00  0.00    +0.000 OA
BRANCH  20  22
ATOM     22  O   UNL     1      -7.606  11.372  19.573  0.00  0.00    +0.000 OA
ATOM     23  H   UNL     1      -7.675  11.006  18.673  0.00  0.00    +0.000 HD
ENDBRANCH  20  22
ENDBRANCH  18  20
ENDBRANCH  10  14
ENDBRANCH   4   6
BRANCH   1  26
ATOM     24  C   UNL     1       3.781   4.439  18.435  0.00  0.00    +0.000 A 
ATOM     25  C   UNL     1       3.342   5.668  18.976  0.00  0.00    +0.000 A 
ATOM     26  C   UNL     1       2.129   5.774  19.671  0.00  0.00    +0.000 A 
ATOM     27  C   UNL     1       1.339   4.625  19.799  0.00  0.00    +0.000 A 
ATOM     28  C   UNL     1       1.773   3.394  19.284  0.00  0.00    +0.000 A 
ATOM     29  C   UNL     1       3.000   3.293  18.616  0.00  0.00    +0.000 A 
ATOM     30 CL   UNL     1       3.493   1.714  18.119  0.00  0.00    +0.000 Cl
BRANCH  24  31
ATOM     31  C   UNL     1       5.071   4.478  17.704  0.00  0.00    +0.000 C 
ATOM     32  O   UNL     1       5.142   4.356  16.492  0.00  0.00    +0.000 OA
BRANCH  31  33
ATOM     33  O   UNL     1       6.113   4.454  18.574  0.00  0.00    +0.000 OA
BRANCH  33  34
ATOM     34  C   UNL     1       7.381   4.892  18.064  0.00  0.00    +0.000 C 
BRANCH  34  36
ATOM     35  C   UNL     1       7.441   7.343  17.562  0.00  0.00    +0.000 C 
ATOM     36  C   UNL     1       7.765   6.270  18.593  0.00  0.00    +0.000 C 
ENDBRANCH  34  36
ENDBRANCH  33  34
ENDBRANCH  31  33
ENDBRANCH  24  31
ENDBRANCH   1  26
TORSDOF 9
ENDMDL
MODEL 9
REMARK VINA RESULT:      -7.9      3.604     10.063
REMARK  Name = 
REMARK  11 active torsions:
REMARK  status: ('A' for Active; 'I' for Inactive)
REMARK    1  A    between atoms: C_1  and  C_2
REMARK    2  A    between atoms: C_2  and  C_3
REMARK    3  A    between atoms: C_3  and  O_4
REMARK    4  A    between atoms: O_4  and  C_5
REMARK    5  A    between atoms: C_5  and  C_7
REMARK    6  A    between atoms: C_9  and  C_10
REMARK    7  A    between atoms: C_13  and  C_14
REMARK    8  A    between atoms: N_18  and  C_19
REMARK    9  A    between atoms: C_23  and  C_24
REMARK   10  A    between atoms: C_24  and  O_26
REMARK   11  A    between atoms: C_29  and  C_30
REMARK                            x       y       z     vdW  Elec       q    Type
REMARK                         _______ _______ _______ _____ _____    ______ ____
ROOT
ATOM      1  C   UNL     1       2.230   6.912  19.499  0.00  0.00    +0.000 A 
ATOM      2  C   UNL     1       1.875   5.722  18.905  0.00  0.00    +0.000 A 
ATOM      3  C   UNL     1       3.079   5.001  18.697  0.00  0.00    +0.000 A 
ATOM      4  C   UNL     1       4.132   5.782  19.156  0.00  0.00    +0.000 A 
ATOM      5  O   UNL     1       3.587   6.972  19.599  0.00  0.00    +0.000 OA
ENDROOT
BRANCH   4   6
ATOM      6  C   UNL     1       5.533   5.508  19.156  0.00  0.00    +0.000 C 
ATOM      7  C   UNL     1       6.209   5.246  18.028  0.00  0.00    +0.000 C 
ATOM      8  C   UNL     1       5.730   5.353  16.633  0.00  0.00    +0.000 C 
ATOM      9  O   UNL     1       4.709   5.897  16.248  0.00  0.00    +0.000 OA
ATOM     10  N   UNL     1       6.786   4.806  15.893  0.00  0.00    +0.000 N 
ATOM     11  N   UNL     1       7.914   4.502  16.648  0.00  0.00    +0.000 NA
ATOM     12  C   UNL     1       7.601   4.771  17.890  0.00  0.00    +0.000 C 
ATOM     13  C   UNL     1       8.555   4.605  19.027  0.00  0.00    +0.000 C 
BRANCH  10  14
ATOM     14  C   UNL     1       6.831   4.684  14.483  0.00  0.00    +0.000 A 
ATOM     15  C   UNL     1       7.735   5.439  13.721  0.00  0.00    +0.000 A 
ATOM     16  C   UNL     1       7.850   5.260  12.344  0.00  0.00    +0.000 A 
ATOM     17  C   UNL     1       7.037   4.335  11.702  0.00  0.00    +0.000 A 
ATOM     18  C   UNL     1       6.091   3.608  12.432  0.00  0.00    +0.000 A 
ATOM     19  C   UNL     1       5.989   3.780  13.821  0.00  0.00    +0.000 A 
BRANCH  18  20
ATOM     20  C   UNL     1       5.267   2.617  11.696  0.00  0.00    +0.000 C 
ATOM     21  O   UNL     1       4.138   2.861  11.307  0.00  0.00    +0.000 OA
BRANCH  20  22
ATOM     22  O   UNL     1       5.856   1.414  11.537  0.00  0.00    +0.000 OA
ATOM     23  H   UNL     1       5.969   1.122  10.614  0.00  0.00    +0.000 HD
ENDBRANCH  20  22
ENDBRANCH  18  20
ENDBRANCH  10  14
ENDBRANCH   4   6
BRANCH   1  26
ATOM     24  C   UNL     1       0.262  10.151  19.663  0.00  0.00    +0.000 A 
ATOM     25  C   UNL     1       1.064   9.088  19.188  0.00  0.00    +0.000 A 
ATOM     26  C   UNL     1       1.477   8.046  20.030  0.00  0.00    +0.000 A 
ATOM     27  C   UNL     1       1.092   8.092  21.376  0.00  0.00    +0.000 A 
ATOM     28  C   UNL     1       0.279   9.130  21.855  0.00  0.00    +0.000 A 
ATOM     29  C   UNL     1      -0.151  10.152  20.999  0.00  0.00    +0.000 A 
ATOM     30 CL   UNL     1      -1.238  11.321  21.660  0.00  0.00    +0.000 Cl
BRANCH  24  31
ATOM     31  C   UNL     1      -0.080  11.197  18.669  0.00  0.00    +0.000 C 
ATOM     32  O   UNL     1       0.173  12.378  18.847  0.00  0.00    +0.000 OA
BRANCH  31  33
ATOM     33  O   UNL     1      -0.866  10.685  17.688  0.00  0.00    +0.000 OA
BRANCH  33  34
ATOM     34  C   UNL     1      -2.055  11.423  17.371  0.00  0.00    +0.000 C 
BRANCH  34  36
ATOM     35  C   UNL     1      -3.684  12.177  19.115  0.00  0.00    +0.000 C 
ATOM     36  C   UNL     1      -3.234  11.009  18.246  0.00  0.00    +0.000 C 
ENDBRANCH  34  36
ENDBRANCH  33  34
ENDBRANCH  31  33
ENDBRANCH  24  31
ENDBRANCH   1  26
TORSDOF 9
ENDMDL
