MODEL 1
REMARK VINA RESULT:      -7.9      0.000      0.000
REMARK  Name = 
REMARK  6 active torsions:
REMARK  status: ('A' for Active; 'I' for Inactive)
REMARK    1  A    between atoms: C_1  and  O_2
REMARK    2  A    between atoms: O_2  and  C_3
REMARK    3  A    between atoms: C_14  and  C_16
REMARK    4  A    between atoms: C_18  and  C_19
REMARK    5  A    between atoms: C_19  and  C_20
REMARK    6  A    between atoms: C_19  and  C_21
REMARK                            x       y       z     vdW  Elec       q    Type
REMARK                         _______ _______ _______ _____ _____    ______ ____
ROOT
ATOM      1  C   UNL     1      -1.285  11.575  22.030  0.00  0.00    +0.000 A 
ATOM      2  C   UNL     1      -1.695  12.419  20.998  0.00  0.00    +0.000 A 
ATOM      3  C   UNL     1      -1.286  12.200  19.678  0.00  0.00    +0.000 A 
ATOM      4  C   UNL     1      -0.446  11.110  19.430  0.00  0.00    +0.000 A 
ATOM      5  N   UNL     1       0.105  10.679  18.242  0.00  0.00    +0.000 N 
ATOM      6  C   UNL     1       0.893   9.596  18.476  0.00  0.00    +0.000 A 
ATOM      7  C   UNL     1       0.829   9.268  19.818  0.00  0.00    +0.000 A 
ATOM      8  C   UNL     1      -0.008  10.245  20.438  0.00  0.00    +0.000 A 
ATOM      9  C   UNL     1      -0.428  10.497  21.761  0.00  0.00    +0.000 A 
ATOM     10  C   UNL     1       1.583   8.114  20.416  0.00  0.00    +0.000 C 
ATOM     11  N   UNL     1       2.292   7.367  19.354  0.00  0.00    +0.000 N 
ATOM     12  C   UNL     1       2.536   6.008  19.570  0.00  0.00    +0.000 C 
ATOM     13  O   UNL     1       2.220   5.472  20.635  0.00  0.00    +0.000 OA
ATOM     14  C   UNL     1       2.853   8.180  18.256  0.00  0.00    +0.000 C 
ATOM     15  C   UNL     1       1.726   8.880  17.474  0.00  0.00    +0.000 C 
ATOM     16  H   UNL     1      -0.039  11.126  17.346  0.00  0.00    +0.000 HD
ENDROOT
BRANCH  12  17
ATOM     17  C   UNL     1       3.215   5.200  18.528  0.00  0.00    +0.000 A 
ATOM     18  C   UNL     1       4.602   5.269  18.220  0.00  0.00    +0.000 A 
ATOM     19  C   UNL     1       4.807   4.406  17.166  0.00  0.00    +0.000 A 
ATOM     20  N   UNL     1       3.590   3.831  16.940  0.00  0.00    +0.000 N 
ATOM     21  N   UNL     1       2.622   4.261  17.762  0.00  0.00    +0.000 NA
ATOM     22  H   UNL     1       3.349   3.139  16.237  0.00  0.00    +0.000 HD
BRANCH  19  23
ATOM     23  C   UNL     1       6.021   4.064  16.362  0.00  0.00    +0.000 C 
ATOM     24  C   UNL     1       5.911   4.610  14.938  0.00  0.00    +0.000 C 
ATOM     25  C   UNL     1       7.286   4.582  17.047  0.00  0.00    +0.000 C 
ENDBRANCH  19  23
ENDBRANCH  12  17
BRANCH   1  27
ATOM     26  C   UNL     1      -2.831  12.451  23.594  0.00  0.00    +0.000 C 
ATOM     27  O   UNL     1      -1.624  11.735  23.349  0.00  0.00    +0.000 OA
ENDBRANCH   1  27
TORSDOF 3
ENDMDL
MODEL 2
REMARK VINA RESULT:      -7.9      2.304      9.005
REMARK  Name = 
REMARK  6 active torsions:
REMARK  status: ('A' for Active; 'I' for Inactive)
REMARK    1  A    between atoms: C_1  and  O_2
REMARK    2  A    between atoms: O_2  and  C_3
REMARK    3  A    between atoms: C_14  and  C_16
REMARK    4  A    between atoms: C_18  and  C_19
REMARK    5  A    between atoms: C_19  and  C_20
REMARK    6  A    between atoms: C_19  and  C_21
REMARK                            x       y       z     vdW  Elec       q    Type
REMARK                         _______ _______ _______ _____ _____    ______ ____
ROOT
ATOM      1  C   UNL     1       3.806   5.288  19.048  0.00  0.00    +0.000 A 
ATOM      2  C   UNL     1       4.138   5.721  17.765  0.00  0.00    +0.000 A 
ATOM      3  C   UNL     1       3.647   6.930  17.260  0.00  0.00    +0.000 A 
ATOM      4  C   UNL     1       2.808   7.687  18.084  0.00  0.00    +0.000 A 
ATOM      5  N   UNL     1       2.188   8.892  17.835  0.00  0.00    +0.000 N 
ATOM      6  C   UNL     1       1.430   9.241  18.909  0.00  0.00    +0.000 A 
ATOM      7  C   UNL     1       1.585   8.292  19.902  0.00  0.00    +0.000 A 
ATOM      8  C   UNL     1       2.447   7.283  19.374  0.00  0.00    +0.000 A 
ATOM      9  C   UNL     1       2.948   6.055  19.853  0.00  0.00    +0.000 A 
ATOM     10  C   UNL     1       0.887   8.375  21.231  0.00  0.00    +0.000 C 
ATOM     11  N   UNL     1       0.121   9.636  21.323  0.00  0.00    +0.000 N 
ATOM     12  C   UNL     1      -0.091  10.175  22.595  0.00  0.00    +0.000 C 
ATOM     13  O   UNL     1       0.300   9.582  23.604  0.00  0.00    +0.000 OA
ATOM     14  C   UNL     1      -0.520  10.096  20.074  0.00  0.00    +0.000 C 
ATOM     15  C   UNL     1       0.545  10.431  19.013  0.00  0.00    +0.000 C 
ATOM     16  H   UNL     1       2.267   9.412  16.971  0.00  0.00    +0.000 HD
ENDROOT
BRANCH  12  17
ATOM     17  C   UNL     1      -0.825  11.456  22.748  0.00  0.00    +0.000 A 
ATOM     18  C   UNL     1      -2.133  11.582  23.291  0.00  0.00    +0.000 A 
ATOM     19  C   UNL     1      -2.459  12.918  23.201  0.00  0.00    +0.000 A 
ATOM     20  N   UNL     1      -1.347  13.518  22.686  0.00  0.00    +0.000 N 
ATOM     21  N   UNL     1      -0.337  12.674  22.436  0.00  0.00    +0.000 NA
ATOM     22  H   UNL     1      -1.210  14.503  22.479  0.00  0.00    +0.000 HD
BRANCH  19  23
ATOM     23  C   UNL     1      -3.697  13.682  23.554  0.00  0.00    +0.000 C 
ATOM     24  C   UNL     1      -4.689  12.800  24.314  0.00  0.00    +0.000 C 
ATOM     25  C   UNL     1      -3.348  14.930  24.363  0.00  0.00    +0.000 C 
ENDBRANCH  19  23
ENDBRANCH  12  17
BRANCH   1  27
ATOM     26  C   UNL     1       3.195   3.227  20.037  0.00  0.00    +0.000 C 
ATOM     27  O   UNL     1       4.227   4.108  19.606  0.00  0.00    +0.000 OA
ENDBRANCH   1  27
TORSDOF 3
ENDMDL
MODEL 3
REMARK VINA RESULT:      -7.7      2.345      9.119
REMARK  Name = 
REMARK  6 active torsions:
REMARK  status: ('A' for Active; 'I' for Inactive)
REMARK    1  A    between atoms: C_1  and  O_2
REMARK    2  A    between atoms: O_2  and  C_3
REMARK    3  A    between atoms: C_14  and  C_16
REMARK    4  A    between atoms: C_18  and  C_19
REMARK    5  A    between atoms: C_19  and  C_20
REMARK    6  A    between atoms: C_19  and  C_21
REMARK                            x       y       z     vdW  Elec       q    Type
REMARK                         _______ _______ _______ _____ _____    ______ ____
ROOT
ATOM      1  C   UNL     1       3.402   5.615  19.055  0.00  0.00    +0.000 A 
ATOM      2  C   UNL     1       3.802   6.104  17.812  0.00  0.00    +0.000 A 
ATOM      3  C   UNL     1       3.389   7.364  17.364  0.00  0.00    +0.000 A 
ATOM      4  C   UNL     1       2.557   8.113  18.202  0.00  0.00    +0.000 A 
ATOM      5  N   UNL     1       2.005   9.360  18.004  0.00  0.00    +0.000 N 
ATOM      6  C   UNL     1       1.226   9.684  19.070  0.00  0.00    +0.000 A 
ATOM      7  C   UNL     1       1.297   8.672  20.010  0.00  0.00    +0.000 A 
ATOM      8  C   UNL     1       2.129   7.654  19.452  0.00  0.00    +0.000 A 
ATOM      9  C   UNL     1       2.552   6.376  19.874  0.00  0.00    +0.000 A 
ATOM     10  C   UNL     1       0.555   8.712  21.317  0.00  0.00    +0.000 C 
ATOM     11  N   UNL     1      -0.152  10.004  21.457  0.00  0.00    +0.000 N 
ATOM     12  C   UNL     1      -0.385  10.478  22.751  0.00  0.00    +0.000 C 
ATOM     13  O   UNL     1      -0.061   9.808  23.736  0.00  0.00    +0.000 OA
ATOM     14  C   UNL     1      -0.724  10.567  20.217  0.00  0.00    +0.000 C 
ATOM     15  C   UNL     1       0.395  10.908  19.215  0.00  0.00    +0.000 C 
ATOM     16  H   UNL     1       2.142   9.924  17.176  0.00  0.00    +0.000 HD
ENDROOT
BRANCH  12  17
ATOM     17  C   UNL     1      -1.062  11.782  22.955  0.00  0.00    +0.000 A 
ATOM     18  C   UNL     1      -2.452  11.946  23.207  0.00  0.00    +0.000 A 
ATOM     19  C   UNL     1      -2.673  13.304  23.278  0.00  0.00    +0.000 A 
ATOM     20  N   UNL     1      -1.439  13.870  23.134  0.00  0.00    +0.000 N 
ATOM     21  N   UNL     1      -0.447  12.983  22.973  0.00  0.00    +0.000 NA
ATOM     22  H   UNL     1      -1.203  14.858  23.134  0.00  0.00    +0.000 HD
BRANCH  19  23
ATOM     23  C   UNL     1      -3.914  14.117  23.473  0.00  0.00    +0.000 C 
ATOM     24  C   UNL     1      -4.082  15.143  22.352  0.00  0.00    +0.000 C 
ATOM     25  C   UNL     1      -5.142  13.212  23.570  0.00  0.00    +0.000 C 
ENDBRANCH  19  23
ENDBRANCH  12  17
BRANCH   1  27
ATOM     26  C   UNL     1       4.918   3.799  19.001  0.00  0.00    +0.000 C 
ATOM     27  O   UNL     1       3.745   4.385  19.556  0.00  0.00    +0.000 OA
ENDBRANCH   1  27
TORSDOF 3
ENDMDL
MODEL 4
REMARK VINA RESULT:      -7.5      2.586      8.159
REMARK  Name = 
REMARK  6 active torsions:
REMARK  status: ('A' for Active; 'I' for Inactive)
REMARK    1  A    between atoms: C_1  and  O_2
REMARK    2  A    between atoms: O_2  and  C_3
REMARK    3  A    between atoms: C_14  and  C_16
REMARK    4  A    between atoms: C_18  and  C_19
REMARK    5  A    between atoms: C_19  and  C_20
REMARK    6  A    between atoms: C_19  and  C_21
REMARK                            x       y       z     vdW  Elec       q    Type
REMARK                         _______ _______ _______ _____ _____    ______ ____
ROOT
ATOM      1  C   UNL     1       3.171   3.762  20.126  0.00  0.00    +0.000 A 
ATOM      2  C   UNL     1       3.834   3.610  18.909  0.00  0.00    +0.000 A 
ATOM      3  C   UNL     1       3.914   4.664  17.992  0.00  0.00    +0.000 A 
ATOM      4  C   UNL     1       3.302   5.873  18.336  0.00  0.00    +0.000 A 
ATOM      5  N   UNL     1       3.223   7.050  17.623  0.00  0.00    +0.000 N 
ATOM      6  C   UNL     1       2.495   7.957  18.328  0.00  0.00    +0.000 A 
ATOM      7  C   UNL     1       2.129   7.403  19.541  0.00  0.00    +0.000 A 
ATOM      8  C   UNL     1       2.623   6.063  19.544  0.00  0.00    +0.000 A 
ATOM      9  C   UNL     1       2.548   4.979  20.444  0.00  0.00    +0.000 A 
ATOM     10  C   UNL     1       1.316   8.141  20.568  0.00  0.00    +0.000 C 
ATOM     11  N   UNL     1       1.073   9.529  20.118  0.00  0.00    +0.000 N 
ATOM     12  C   UNL     1       0.884  10.505  21.101  0.00  0.00    +0.000 C 
ATOM     13  O   UNL     1       0.865  10.201  22.296  0.00  0.00    +0.000 OA
ATOM     14  C   UNL     1       0.850   9.710  18.669  0.00  0.00    +0.000 C 
ATOM     15  C   UNL     1       2.113   9.321  17.878  0.00  0.00    +0.000 C 
ATOM     16  H   UNL     1       3.623   7.195  16.706  0.00  0.00    +0.000 HD
ENDROOT
BRANCH  12  17
ATOM     17  C   UNL     1       0.667  11.920  20.712  0.00  0.00    +0.000 A 
ATOM     18  C   UNL     1       1.701  12.838  20.376  0.00  0.00    +0.000 A 
ATOM     19  C   UNL     1       1.081  14.044  20.134  0.00  0.00    +0.000 A 
ATOM     20  N   UNL     1      -0.253  13.788  20.268  0.00  0.00    +0.000 N 
ATOM     21  N   UNL     1      -0.536  12.515  20.580  0.00  0.00    +0.000 NA
ATOM     22  H   UNL     1      -1.026  14.438  20.161  0.00  0.00    +0.000 HD
BRANCH  19  23
ATOM     23  C   UNL     1       1.610  15.399  19.784  0.00  0.00    +0.000 C 
ATOM     24  C   UNL     1       2.527  15.333  18.562  0.00  0.00    +0.000 C 
ATOM     25  C   UNL     1       0.464  16.383  19.550  0.00  0.00    +0.000 C 
ENDBRANCH  19  23
ENDBRANCH  12  17
BRANCH   1  27
ATOM     26  C   UNL     1       1.754   2.697  21.694  0.00  0.00    +0.000 C 
ATOM     27  O   UNL     1       3.030   2.773  21.066  0.00  0.00    +0.000 OA
ENDBRANCH   1  27
TORSDOF 3
ENDMDL
MODEL 5
REMARK VINA RESULT:      -7.5      2.260      8.995
REMARK  Name = 
REMARK  6 active torsions:
REMARK  status: ('A' for Active; 'I' for Inactive)
REMARK    1  A    between atoms: C_1  and  O_2
REMARK    2  A    between atoms: O_2  and  C_3
REMARK    3  A    between atoms: C_14  and  C_16
REMARK    4  A    between atoms: C_18  and  C_19
REMARK    5  A    between atoms: C_19  and  C_20
REMARK    6  A    between atoms: C_19  and  C_21
REMARK                            x       y       z     vdW  Elec       q    Type
REMARK                         _______ _______ _______ _____ _____    ______ ____
ROOT
ATOM      1  C   UNL     1       3.487   4.663  19.530  0.00  0.00    +0.000 A 
ATOM      2  C   UNL     1       3.959   4.964  18.253  0.00  0.00    +0.000 A 
ATOM      3  C   UNL     1       3.661   6.187  17.641  0.00  0.00    +0.000 A 
ATOM      4  C   UNL     1       2.868   7.094  18.351  0.00  0.00    +0.000 A 
ATOM      5  N   UNL     1       2.423   8.345  17.984  0.00  0.00    +0.000 N 
ATOM      6  C   UNL     1       1.643   8.856  18.974  0.00  0.00    +0.000 A 
ATOM      7  C   UNL     1       1.607   7.964  20.031  0.00  0.00    +0.000 A 
ATOM      8  C   UNL     1       2.371   6.825  19.631  0.00  0.00    +0.000 A 
ATOM      9  C   UNL     1       2.678   5.580  20.219  0.00  0.00    +0.000 A 
ATOM     10  C   UNL     1       0.834   8.221  21.294  0.00  0.00    +0.000 C 
ATOM     11  N   UNL     1       0.229   9.570  21.252  0.00  0.00    +0.000 N 
ATOM     12  C   UNL     1      -0.002  10.216  22.470  0.00  0.00    +0.000 C 
ATOM     13  O   UNL     1       0.241   9.650  23.539  0.00  0.00    +0.000 OA
ATOM     14  C   UNL     1      -0.261  10.018  19.933  0.00  0.00    +0.000 C 
ATOM     15  C   UNL     1       0.909  10.148  18.939  0.00  0.00    +0.000 C 
ATOM     16  H   UNL     1       2.628   8.791  17.100  0.00  0.00    +0.000 HD
ENDROOT
BRANCH  12  17
ATOM     17  C   UNL     1      -0.577  11.583  22.490  0.00  0.00    +0.000 A 
ATOM     18  C   UNL     1      -1.854  11.919  23.019  0.00  0.00    +0.000 A 
ATOM     19  C   UNL     1      -2.022  13.267  22.791  0.00  0.00    +0.000 A 
ATOM     20  N   UNL     1      -0.854  13.675  22.214  0.00  0.00    +0.000 N 
ATOM     21  N   UNL     1       0.046  12.696  22.051  0.00  0.00    +0.000 NA
ATOM     22  H   UNL     1      -0.606  14.610  21.904  0.00  0.00    +0.000 HD
BRANCH  19  23
ATOM     23  C   UNL     1      -3.156  14.205  23.065  0.00  0.00    +0.000 C 
ATOM     24  C   UNL     1      -2.682  15.659  23.056  0.00  0.00    +0.000 C 
ATOM     25  C   UNL     1      -4.286  13.995  22.057  0.00  0.00    +0.000 C 
ENDBRANCH  19  23
ENDBRANCH  12  17
BRANCH   1  27
ATOM     26  C   UNL     1       4.065   2.374  19.362  0.00  0.00    +0.000 C 
ATOM     27  O   UNL     1       3.717   3.482  20.187  0.00  0.00    +0.000 OA
ENDBRANCH   1  27
TORSDOF 3
ENDMDL
MODEL 6
REMARK VINA RESULT:      -7.4      2.279      8.464
REMARK  Name = 
REMARK  6 active torsions:
REMARK  status: ('A' for Active; 'I' for Inactive)
REMARK    1  A    between atoms: C_1  and  O_2
REMARK    2  A    between atoms: O_2  and  C_3
REMARK    3  A    between atoms: C_14  and  C_16
REMARK    4  A    between atoms: C_18  and  C_19
REMARK    5  A    between atoms: C_19  and  C_20
REMARK    6  A    between atoms: C_19  and  C_21
REMARK                            x       y       z     vdW  Elec       q    Type
REMARK                         _______ _______ _______ _____ _____    ______ ____
ROOT
ATOM      1  C   UNL     1       3.273   3.639  19.701  0.00  0.00    +0.000 A 
ATOM      2  C   UNL     1       3.912   3.600  18.462  0.00  0.00    +0.000 A 
ATOM      3  C   UNL     1       3.972   4.732  17.643  0.00  0.00    +0.000 A 
ATOM      4  C   UNL     1       3.362   5.903  18.105  0.00  0.00    +0.000 A 
ATOM      5  N   UNL     1       3.265   7.138  17.502  0.00  0.00    +0.000 N 
ATOM      6  C   UNL     1       2.548   7.975  18.299  0.00  0.00    +0.000 A 
ATOM      7  C   UNL     1       2.208   7.312  19.464  0.00  0.00    +0.000 A 
ATOM      8  C   UNL     1       2.706   5.980  19.337  0.00  0.00    +0.000 A 
ATOM      9  C   UNL     1       2.652   4.819  20.138  0.00  0.00    +0.000 A 
ATOM     10  C   UNL     1       1.413   7.951  20.569  0.00  0.00    +0.000 C 
ATOM     11  N   UNL     1       1.156   9.372  20.250  0.00  0.00    +0.000 N 
ATOM     12  C   UNL     1       0.983  10.256  21.320  0.00  0.00    +0.000 C 
ATOM     13  O   UNL     1       0.988   9.845  22.483  0.00  0.00    +0.000 OA
ATOM     14  C   UNL     1       0.904   9.682  18.828  0.00  0.00    +0.000 C 
ATOM     15  C   UNL     1       2.152   9.372  17.981  0.00  0.00    +0.000 C 
ATOM     16  H   UNL     1       3.647   7.367  16.594  0.00  0.00    +0.000 HD
ENDROOT
BRANCH  12  17
ATOM     17  C   UNL     1       0.754  11.699  21.063  0.00  0.00    +0.000 A 
ATOM     18  C   UNL     1      -0.517  12.289  20.817  0.00  0.00    +0.000 A 
ATOM     19  C   UNL     1      -0.281  13.624  20.575  0.00  0.00    +0.000 A 
ATOM     20  N   UNL     1       1.064  13.781  20.745  0.00  0.00    +0.000 N 
ATOM     21  N   UNL     1       1.708  12.651  21.072  0.00  0.00    +0.000 NA
ATOM     22  H   UNL     1       1.609  14.633  20.651  0.00  0.00    +0.000 HD
BRANCH  19  23
ATOM     23  C   UNL     1      -1.185  14.760  20.213  0.00  0.00    +0.000 C 
ATOM     24  C   UNL     1      -1.647  15.515  21.460  0.00  0.00    +0.000 C 
ATOM     25  C   UNL     1      -0.496  15.706  19.229  0.00  0.00    +0.000 C 
ENDBRANCH  19  23
ENDBRANCH  12  17
BRANCH   1  27
ATOM     26  C   UNL     1       2.178   2.704  21.579  0.00  0.00    +0.000 C 
ATOM     27  O   UNL     1       3.154   2.569  20.550  0.00  0.00    +0.000 OA
ENDBRANCH   1  27
TORSDOF 3
ENDMDL
MODEL 7
REMARK VINA RESULT:      -7.3      2.553      8.903
REMARK  Name = 
REMARK  6 active torsions:
REMARK  status: ('A' for Active; 'I' for Inactive)
REMARK    1  A    between atoms: C_1  and  O_2
REMARK    2  A    between atoms: O_2  and  C_3
REMARK    3  A    between atoms: C_14  and  C_16
REMARK    4  A    between atoms: C_18  and  C_19
REMARK    5  A    between atoms: C_19  and  C_20
REMARK    6  A    between atoms: C_19  and  C_21
REMARK                            x       y       z     vdW  Elec       q    Type
REMARK                         _______ _______ _______ _____ _____    ______ ____
ROOT
ATOM      1  C   UNL     1       3.667   5.691  19.041  0.00  0.00    +0.000 A 
ATOM      2  C   UNL     1       3.992   6.163  17.770  0.00  0.00    +0.000 A 
ATOM      3  C   UNL     1       3.471   7.370  17.291  0.00  0.00    +0.000 A 
ATOM      4  C   UNL     1       2.609   8.085  18.128  0.00  0.00    +0.000 A 
ATOM      5  N   UNL     1       1.958   9.279  17.904  0.00  0.00    +0.000 N 
ATOM      6  C   UNL     1       1.187   9.582  18.983  0.00  0.00    +0.000 A 
ATOM      7  C   UNL     1       1.362   8.614  19.954  0.00  0.00    +0.000 A 
ATOM      8  C   UNL     1       2.253   7.642  19.406  0.00  0.00    +0.000 A 
ATOM      9  C   UNL     1       2.785   6.415  19.859  0.00  0.00    +0.000 A 
ATOM     10  C   UNL     1       0.656   8.647  21.281  0.00  0.00    +0.000 C 
ATOM     11  N   UNL     1      -0.143   9.885  21.399  0.00  0.00    +0.000 N 
ATOM     12  C   UNL     1      -0.375  10.388  22.682  0.00  0.00    +0.000 C 
ATOM     13  O   UNL     1       0.028   9.782  23.679  0.00  0.00    +0.000 OA
ATOM     14  C   UNL     1      -0.791  10.357  20.158  0.00  0.00    +0.000 C 
ATOM     15  C   UNL     1       0.269  10.745  19.110  0.00  0.00    +0.000 C 
ATOM     16  H   UNL     1       2.027   9.820  17.053  0.00  0.00    +0.000 HD
ENDROOT
BRANCH  12  17
ATOM     17  C   UNL     1      -1.143  11.645  22.861  0.00  0.00    +0.000 A 
ATOM     18  C   UNL     1      -0.654  12.946  22.561  0.00  0.00    +0.000 A 
ATOM     19  C   UNL     1      -1.652  13.825  22.921  0.00  0.00    +0.000 A 
ATOM     20  N   UNL     1      -2.681  13.035  23.345  0.00  0.00    +0.000 N 
ATOM     21  N   UNL     1      -2.420  11.722  23.289  0.00  0.00    +0.000 NA
ATOM     22  H   UNL     1      -3.591  13.329  23.688  0.00  0.00    +0.000 HD
BRANCH  19  23
ATOM     23  C   UNL     1      -1.738  15.319  22.899  0.00  0.00    +0.000 C 
ATOM     24  C   UNL     1      -2.841  15.820  23.832  0.00  0.00    +0.000 C 
ATOM     25  C   UNL     1      -0.392  15.944  23.263  0.00  0.00    +0.000 C 
ENDBRANCH  19  23
ENDBRANCH  12  17
BRANCH   1  27
ATOM     26  C   UNL     1       3.118   3.527  19.824  0.00  0.00    +0.000 C 
ATOM     27  O   UNL     1       4.116   4.510  19.573  0.00  0.00    +0.000 OA
ENDBRANCH   1  27
TORSDOF 3
ENDMDL
MODEL 8
REMARK VINA RESULT:      -7.3      2.131      8.665
REMARK  Name = 
REMARK  6 active torsions:
REMARK  status: ('A' for Active; 'I' for Inactive)
REMARK    1  A    between atoms: C_1  and  O_2
REMARK    2  A    between atoms: O_2  and  C_3
REMARK    3  A    between atoms: C_14  and  C_16
REMARK    4  A    between atoms: C_18  and  C_19
REMARK    5  A    between atoms: C_19  and  C_20
REMARK    6  A    between atoms: C_19  and  C_21
REMARK                            x       y       z     vdW  Elec       q    Type
REMARK                         _______ _______ _______ _____ _____    ______ ____
ROOT
ATOM      1  C   UNL     1       3.737   3.883  19.257  0.00  0.00    +0.000 A 
ATOM      2  C   UNL     1       4.291   4.044  17.987  0.00  0.00    +0.000 A 
ATOM      3  C   UNL     1       4.166   5.251  17.291  0.00  0.00    +0.000 A 
ATOM      4  C   UNL     1       3.461   6.288  17.908  0.00  0.00    +0.000 A 
ATOM      5  N   UNL     1       3.184   7.557  17.446  0.00  0.00    +0.000 N 
ATOM      6  C   UNL     1       2.432   8.218  18.366  0.00  0.00    +0.000 A 
ATOM      7  C   UNL     1       2.248   7.408  19.472  0.00  0.00    +0.000 A 
ATOM      8  C   UNL     1       2.884   6.164  19.176  0.00  0.00    +0.000 A 
ATOM      9  C   UNL     1       3.017   4.932  19.851  0.00  0.00    +0.000 A 
ATOM     10  C   UNL     1       1.462   7.834  20.680  0.00  0.00    +0.000 C 
ATOM     11  N   UNL     1       1.025   9.239  20.529  0.00  0.00    +0.000 N 
ATOM     12  C   UNL     1       0.826   9.985  21.695  0.00  0.00    +0.000 C 
ATOM     13  O   UNL     1       0.956   9.465  22.806  0.00  0.00    +0.000 OA
ATOM     14  C   UNL     1       0.644   9.655  19.164  0.00  0.00    +0.000 C 
ATOM     15  C   UNL     1       1.860   9.583  18.221  0.00  0.00    +0.000 C 
ATOM     16  H   UNL     1       3.475   7.918  16.548  0.00  0.00    +0.000 HD
ENDROOT
BRANCH  12  17
ATOM     17  C   UNL     1       0.418  11.408  21.606  0.00  0.00    +0.000 A 
ATOM     18  C   UNL     1      -0.844  11.919  22.018  0.00  0.00    +0.000 A 
ATOM     19  C   UNL     1      -0.833  13.263  21.715  0.00  0.00    +0.000 A 
ATOM     20  N   UNL     1       0.414  13.500  21.212  0.00  0.00    +0.000 N 
ATOM     21  N   UNL     1       1.199  12.415  21.166  0.00  0.00    +0.000 NA
ATOM     22  H   UNL     1       0.794  14.382  20.880  0.00  0.00    +0.000 HD
BRANCH  19  23
ATOM     23  C   UNL     1      -1.863  14.339  21.857  0.00  0.00    +0.000 C 
ATOM     24  C   UNL     1      -3.051  13.857  22.692  0.00  0.00    +0.000 C 
ATOM     25  C   UNL     1      -1.248  15.599  22.464  0.00  0.00    +0.000 C 
ENDBRANCH  19  23
ENDBRANCH  12  17
BRANCH   1  27
ATOM     26  C   UNL     1       2.905   2.655  21.101  0.00  0.00    +0.000 C 
ATOM     27  O   UNL     1       3.797   2.728  19.993  0.00  0.00    +0.000 OA
ENDBRANCH   1  27
TORSDOF 3
ENDMDL
MODEL 9
REMARK VINA RESULT:      -7.3      2.177      8.636
REMARK  Name = 
REMARK  6 active torsions:
REMARK  status: ('A' for Active; 'I' for Inactive)
REMARK    1  A    between atoms: C_1  and  O_2
REMARK    2  A    between atoms: O_2  and  C_3
REMARK    3  A    between atoms: C_14  and  C_16
REMARK    4  A    between atoms: C_18  and  C_19
REMARK    5  A    between atoms: C_19  and  C_20
REMARK    6  A    between atoms: C_19  and  C_21
REMARK                            x       y       z     vdW  Elec       q    Type
REMARK                         _______ _______ _______ _____ _____    ______ ____
ROOT
ATOM      1  C   UNL     1       3.161   3.959  19.841  0.00  0.00    +0.000 A 
ATOM      2  C   UNL     1       3.728   4.036  18.569  0.00  0.00    +0.000 A 
ATOM      3  C   UNL     1       3.661   5.215  17.818  0.00  0.00    +0.000 A 
ATOM      4  C   UNL     1       3.001   6.311  18.383  0.00  0.00    +0.000 A 
ATOM      5  N   UNL     1       2.785   7.568  17.863  0.00  0.00    +0.000 N 
ATOM      6  C   UNL     1       2.061   8.305  18.748  0.00  0.00    +0.000 A 
ATOM      7  C   UNL     1       1.835   7.554  19.887  0.00  0.00    +0.000 A 
ATOM      8  C   UNL     1       2.415   6.270  19.652  0.00  0.00    +0.000 A 
ATOM      9  C   UNL     1       2.488   5.065  20.383  0.00  0.00    +0.000 A 
ATOM     10  C   UNL     1       1.065   8.071  21.070  0.00  0.00    +0.000 C 
ATOM     11  N   UNL     1       0.694   9.486  20.854  0.00  0.00    +0.000 N 
ATOM     12  C   UNL     1       0.524  10.292  21.983  0.00  0.00    +0.000 C 
ATOM     13  O   UNL     1       0.626   9.817  23.117  0.00  0.00    +0.000 OA
ATOM     14  C   UNL     1       0.338   9.856  19.469  0.00  0.00    +0.000 C 
ATOM     15  C   UNL     1       1.553   9.686  18.537  0.00  0.00    +0.000 C 
ATOM     16  H   UNL     1       3.096   7.875  16.951  0.00  0.00    +0.000 HD
ENDROOT
BRANCH  12  17
ATOM     17  C   UNL     1       0.183  11.727  21.827  0.00  0.00    +0.000 A 
ATOM     18  C   UNL     1      -1.102  12.288  22.072  0.00  0.00    +0.000 A 
ATOM     19  C   UNL     1      -1.004  13.625  21.757  0.00  0.00    +0.000 A 
ATOM     20  N   UNL     1       0.304  13.812  21.413  0.00  0.00    +0.000 N 
ATOM     21  N   UNL     1       1.049  12.700  21.478  0.00  0.00    +0.000 NA
ATOM     22  H   UNL     1       0.754  14.674  21.121  0.00  0.00    +0.000 HD
BRANCH  19  23
ATOM     23  C   UNL     1      -2.004  14.738  21.756  0.00  0.00    +0.000 C 
ATOM     24  C   UNL     1      -1.870  15.596  20.497  0.00  0.00    +0.000 C 
ATOM     25  C   UNL     1      -3.424  14.189  21.891  0.00  0.00    +0.000 C 
ENDBRANCH  19  23
ENDBRANCH  12  17
BRANCH   1  27
ATOM     26  C   UNL     1       2.101   2.740  21.570  0.00  0.00    +0.000 C 
ATOM     27  O   UNL     1       3.165   2.837  20.629  0.00  0.00    +0.000 OA
ENDBRANCH   1  27
TORSDOF 3
ENDMDL
