MODEL 1
REMARK VINA RESULT:      -6.9      0.000      0.000
REMARK  Name = 
REMARK  5 active torsions:
REMARK  status: ('A' for Active; 'I' for Inactive)
REMARK    1  A    between atoms: C_1  and  N_2
REMARK    2  A    between atoms: N_2  and  C_3
REMARK    3  A    between atoms: N_2  and  C_4
REMARK    4  A    between atoms: C_4  and  C_5
REMARK    5  A    between atoms: C_5  and  C_6
REMARK                            x       y       z     vdW  Elec       q    Type
REMARK                         _______ _______ _______ _____ _____    ______ ____
ROOT
ATOM      1  C   UNL     1       4.502   4.428  18.668  0.00  0.00    +0.000 A 
ATOM      2  N   UNL     1       5.200   4.277  17.508  0.00  0.00    +0.000 NA
ATOM      3  C   UNL     1       5.180   5.256  16.577  0.00  0.00    +0.000 A 
ATOM      4  C   UNL     1       4.465   6.436  16.691  0.00  0.00    +0.000 A 
ATOM      5  C   UNL     1       3.729   6.612  17.871  0.00  0.00    +0.000 A 
ATOM      6  C   UNL     1       3.782   5.614  18.843  0.00  0.00    +0.000 A 
ATOM      7  N   UNL     1       3.012   6.041  19.898  0.00  0.00    +0.000 N 
ATOM      8  C   UNL     1       2.397   7.234  19.612  0.00  0.00    +0.000 A 
ATOM      9  C   UNL     1       1.490   7.983  20.372  0.00  0.00    +0.000 A 
ATOM     10  C   UNL     1       1.005   9.165  19.812  0.00  0.00    +0.000 A 
ATOM     11  C   UNL     1       1.421   9.586  18.551  0.00  0.00    +0.000 A 
ATOM     12  C   UNL     1       2.341   8.831  17.812  0.00  0.00    +0.000 A 
ATOM     13  C   UNL     1       2.836   7.625  18.349  0.00  0.00    +0.000 A 
ATOM     14  H   UNL     1       2.893   5.536  20.764  0.00  0.00    +0.000 HD
ENDROOT
BRANCH   1  15
ATOM     15  C   UNL     1       4.471   3.266  19.622  0.00  0.00    +0.000 C 
BRANCH  15  16
ATOM     16  C   UNL     1       3.277   2.341  19.363  0.00  0.00    +0.000 C 
BRANCH  16  18
ATOM     17  C   UNL     1       0.900   2.471  18.845  0.00  0.00    +0.000 C 
ATOM     18  N   UNL     1       1.975   2.957  19.715  0.00  0.00    +0.000 NA
ATOM     19  C   UNL     1       1.653   2.641  21.111  0.00  0.00    +0.000 C 
ENDBRANCH  16  18
ENDBRANCH  15  16
ENDBRANCH   1  15
TORSDOF 3
ENDMDL
MODEL 2
REMARK VINA RESULT:      -6.8      1.414      4.135
REMARK  Name = 
REMARK  5 active torsions:
REMARK  status: ('A' for Active; 'I' for Inactive)
REMARK    1  A    between atoms: C_1  and  N_2
REMARK    2  A    between atoms: N_2  and  C_3
REMARK    3  A    between atoms: N_2  and  C_4
REMARK    4  A    between atoms: C_4  and  C_5
REMARK    5  A    between atoms: C_5  and  C_6
REMARK                            x       y       z     vdW  Elec       q    Type
REMARK                         _______ _______ _______ _____ _____    ______ ____
ROOT
ATOM      1  C   UNL     1       2.400   6.010  19.691  0.00  0.00    +0.000 A 
ATOM      2  N   UNL     1       1.954   7.295  19.763  0.00  0.00    +0.000 NA
ATOM      3  C   UNL     1       2.301   8.184  18.807  0.00  0.00    +0.000 A 
ATOM      4  C   UNL     1       3.122   7.900  17.729  0.00  0.00    +0.000 A 
ATOM      5  C   UNL     1       3.603   6.587  17.636  0.00  0.00    +0.000 A 
ATOM      6  C   UNL     1       3.213   5.666  18.607  0.00  0.00    +0.000 A 
ATOM      7  N   UNL     1       3.787   4.463  18.271  0.00  0.00    +0.000 N 
ATOM      8  C   UNL     1       4.598   4.590  17.171  0.00  0.00    +0.000 A 
ATOM      9  C   UNL     1       5.410   3.641  16.538  0.00  0.00    +0.000 A 
ATOM     10  C   UNL     1       6.154   4.065  15.436  0.00  0.00    +0.000 A 
ATOM     11  C   UNL     1       6.077   5.378  14.980  0.00  0.00    +0.000 A 
ATOM     12  C   UNL     1       5.248   6.310  15.618  0.00  0.00    +0.000 A 
ATOM     13  C   UNL     1       4.496   5.912  16.742  0.00  0.00    +0.000 A 
ATOM     14  H   UNL     1       3.649   3.600  18.777  0.00  0.00    +0.000 HD
ENDROOT
BRANCH   1  15
ATOM     15  C   UNL     1       2.074   5.091  20.835  0.00  0.00    +0.000 C 
BRANCH  15  16
ATOM     16  C   UNL     1       0.954   4.107  20.481  0.00  0.00    +0.000 C 
BRANCH  16  18
ATOM     17  C   UNL     1       1.585   2.032  19.370  0.00  0.00    +0.000 C 
ATOM     18  N   UNL     1       1.347   2.689  20.659  0.00  0.00    +0.000 NA
ATOM     19  C   UNL     1       2.568   2.625  21.471  0.00  0.00    +0.000 C 
ENDBRANCH  16  18
ENDBRANCH  15  16
ENDBRANCH   1  15
TORSDOF 3
ENDMDL
MODEL 3
REMARK VINA RESULT:      -6.8      2.476      5.342
REMARK  Name = 
REMARK  5 active torsions:
REMARK  status: ('A' for Active; 'I' for Inactive)
REMARK    1  A    between atoms: C_1  and  N_2
REMARK    2  A    between atoms: N_2  and  C_3
REMARK    3  A    between atoms: N_2  and  C_4
REMARK    4  A    between atoms: C_4  and  C_5
REMARK    5  A    between atoms: C_5  and  C_6
REMARK                            x       y       z     vdW  Elec       q    Type
REMARK                         _______ _______ _______ _____ _____    ______ ____
ROOT
ATOM      1  C   UNL     1       5.225   4.676  16.217  0.00  0.00    +0.000 A 
ATOM      2  N   UNL     1       5.388   6.004  15.965  0.00  0.00    +0.000 NA
ATOM      3  C   UNL     1       4.724   6.918  16.707  0.00  0.00    +0.000 A 
ATOM      4  C   UNL     1       3.839   6.611  17.726  0.00  0.00    +0.000 A 
ATOM      5  C   UNL     1       3.644   5.250  17.999  0.00  0.00    +0.000 A 
ATOM      6  C   UNL     1       4.359   4.314  17.254  0.00  0.00    +0.000 A 
ATOM      7  N   UNL     1       4.017   3.072  17.735  0.00  0.00    +0.000 N 
ATOM      8  C   UNL     1       3.049   3.166  18.703  0.00  0.00    +0.000 A 
ATOM      9  C   UNL     1       2.379   2.156  19.405  0.00  0.00    +0.000 A 
ATOM     10  C   UNL     1       1.411   2.551  20.331  0.00  0.00    +0.000 A 
ATOM     11  C   UNL     1       1.137   3.898  20.553  0.00  0.00    +0.000 A 
ATOM     12  C   UNL     1       1.827   4.894  19.850  0.00  0.00    +0.000 A 
ATOM     13  C   UNL     1       2.800   4.523  18.900  0.00  0.00    +0.000 A 
ATOM     14  H   UNL     1       4.408   2.201  17.408  0.00  0.00    +0.000 HD
ENDROOT
BRANCH   1  15
ATOM     15  C   UNL     1       5.902   3.701  15.294  0.00  0.00    +0.000 C 
BRANCH  15  16
ATOM     16  C   UNL     1       6.553   4.399  14.095  0.00  0.00    +0.000 C 
BRANCH  16  18
ATOM     17  C   UNL     1       5.079   3.475  12.390  0.00  0.00    +0.000 C 
ATOM     18  N   UNL     1       6.466   3.611  12.844  0.00  0.00    +0.000 NA
ATOM     19  C   UNL     1       7.257   4.272  11.800  0.00  0.00    +0.000 C 
ENDBRANCH  16  18
ENDBRANCH  15  16
ENDBRANCH   1  15
TORSDOF 3
ENDMDL
MODEL 4
REMARK VINA RESULT:      -6.7      1.698      5.031
REMARK  Name = 
REMARK  5 active torsions:
REMARK  status: ('A' for Active; 'I' for Inactive)
REMARK    1  A    between atoms: C_1  and  N_2
REMARK    2  A    between atoms: N_2  and  C_3
REMARK    3  A    between atoms: N_2  and  C_4
REMARK    4  A    between atoms: C_4  and  C_5
REMARK    5  A    between atoms: C_5  and  C_6
REMARK                            x       y       z     vdW  Elec       q    Type
REMARK                         _______ _______ _______ _____ _____    ______ ____
ROOT
ATOM      1  C   UNL     1       4.196   6.811  17.258  0.00  0.00    +0.000 A 
ATOM      2  N   UNL     1       3.537   8.000  17.183  0.00  0.00    +0.000 NA
ATOM      3  C   UNL     1       2.533   8.270  18.046  0.00  0.00    +0.000 A 
ATOM      4  C   UNL     1       2.082   7.402  19.025  0.00  0.00    +0.000 A 
ATOM      5  C   UNL     1       2.738   6.166  19.118  0.00  0.00    +0.000 A 
ATOM      6  C   UNL     1       3.795   5.908  18.247  0.00  0.00    +0.000 A 
ATOM      7  N   UNL     1       4.279   4.661  18.563  0.00  0.00    +0.000 N 
ATOM      8  C   UNL     1       3.524   4.071  19.546  0.00  0.00    +0.000 A 
ATOM      9  C   UNL     1       3.628   2.796  20.116  0.00  0.00    +0.000 A 
ATOM     10  C   UNL     1       2.696   2.453  21.096  0.00  0.00    +0.000 A 
ATOM     11  C   UNL     1       1.712   3.352  21.497  0.00  0.00    +0.000 A 
ATOM     12  C   UNL     1       1.632   4.629  20.925  0.00  0.00    +0.000 A 
ATOM     13  C   UNL     1       2.553   4.996  19.923  0.00  0.00    +0.000 A 
ATOM     14  H   UNL     1       5.073   4.223  18.119  0.00  0.00    +0.000 HD
ENDROOT
BRANCH   1  15
ATOM     15  C   UNL     1       5.231   6.518  16.207  0.00  0.00    +0.000 C 
BRANCH  15  16
ATOM     16  C   UNL     1       6.655   6.572  16.770  0.00  0.00    +0.000 C 
BRANCH  16  18
ATOM     17  C   UNL     1       7.676   4.599  17.771  0.00  0.00    +0.000 C 
ATOM     18  N   UNL     1       7.426   5.330  16.525  0.00  0.00    +0.000 NA
ATOM     19  C   UNL     1       6.679   4.472  15.599  0.00  0.00    +0.000 C 
ENDBRANCH  16  18
ENDBRANCH  15  16
ENDBRANCH   1  15
TORSDOF 3
ENDMDL
MODEL 5
REMARK VINA RESULT:      -6.6      3.048      5.397
REMARK  Name = 
REMARK  5 active torsions:
REMARK  status: ('A' for Active; 'I' for Inactive)
REMARK    1  A    between atoms: C_1  and  N_2
REMARK    2  A    between atoms: N_2  and  C_3
REMARK    3  A    between atoms: N_2  and  C_4
REMARK    4  A    between atoms: C_4  and  C_5
REMARK    5  A    between atoms: C_5  and  C_6
REMARK                            x       y       z     vdW  Elec       q    Type
REMARK                         _______ _______ _______ _____ _____    ______ ____
ROOT
ATOM      1  C   UNL     1       5.371   4.597  16.404  0.00  0.00    +0.000 A 
ATOM      2  N   UNL     1       6.459   5.265  16.878  0.00  0.00    +0.000 NA
ATOM      3  C   UNL     1       6.551   5.558  18.193  0.00  0.00    +0.000 A 
ATOM      4  C   UNL     1       5.587   5.247  19.138  0.00  0.00    +0.000 A 
ATOM      5  C   UNL     1       4.452   4.567  18.675  0.00  0.00    +0.000 A 
ATOM      6  C   UNL     1       4.380   4.238  17.323  0.00  0.00    +0.000 A 
ATOM      7  N   UNL     1       3.200   3.557  17.139  0.00  0.00    +0.000 N 
ATOM      8  C   UNL     1       2.470   3.507  18.299  0.00  0.00    +0.000 A 
ATOM      9  C   UNL     1       1.199   2.971  18.540  0.00  0.00    +0.000 A 
ATOM     10  C   UNL     1       0.689   3.084  19.834  0.00  0.00    +0.000 A 
ATOM     11  C   UNL     1       1.425   3.696  20.846  0.00  0.00    +0.000 A 
ATOM     12  C   UNL     1       2.701   4.214  20.589  0.00  0.00    +0.000 A 
ATOM     13  C   UNL     1       3.235   4.125  19.287  0.00  0.00    +0.000 A 
ATOM     14  H   UNL     1       2.896   3.161  16.261  0.00  0.00    +0.000 HD
ENDROOT
BRANCH   1  15
ATOM     15  C   UNL     1       5.269   4.392  14.918  0.00  0.00    +0.000 C 
BRANCH  15  16
ATOM     16  C   UNL     1       6.646   4.355  14.246  0.00  0.00    +0.000 C 
BRANCH  16  18
ATOM     17  C   UNL     1       5.256   3.469  12.451  0.00  0.00    +0.000 C 
ATOM     18  N   UNL     1       6.627   3.701  12.916  0.00  0.00    +0.000 NA
ATOM     19  C   UNL     1       7.331   4.553  11.950  0.00  0.00    +0.000 C 
ENDBRANCH  16  18
ENDBRANCH  15  16
ENDBRANCH   1  15
TORSDOF 3
ENDMDL
MODEL 6
REMARK VINA RESULT:      -6.5      3.038      5.188
REMARK  Name = 
REMARK  5 active torsions:
REMARK  status: ('A' for Active; 'I' for Inactive)
REMARK    1  A    between atoms: C_1  and  N_2
REMARK    2  A    between atoms: N_2  and  C_3
REMARK    3  A    between atoms: N_2  and  C_4
REMARK    4  A    between atoms: C_4  and  C_5
REMARK    5  A    between atoms: C_5  and  C_6
REMARK                            x       y       z     vdW  Elec       q    Type
REMARK                         _______ _______ _______ _____ _____    ______ ____
ROOT
ATOM      1  C   UNL     1       5.565   4.261  18.853  0.00  0.00    +0.000 A 
ATOM      2  N   UNL     1       6.336   5.029  19.672  0.00  0.00    +0.000 NA
ATOM      3  C   UNL     1       7.291   5.826  19.147  0.00  0.00    +0.000 A 
ATOM      4  C   UNL     1       7.584   5.920  17.797  0.00  0.00    +0.000 A 
ATOM      5  C   UNL     1       6.811   5.132  16.932  0.00  0.00    +0.000 A 
ATOM      6  C   UNL     1       5.804   4.338  17.478  0.00  0.00    +0.000 A 
ATOM      7  N   UNL     1       5.184   3.701  16.429  0.00  0.00    +0.000 N 
ATOM      8  C   UNL     1       5.803   3.988  15.238  0.00  0.00    +0.000 A 
ATOM      9  C   UNL     1       5.538   3.510  13.949  0.00  0.00    +0.000 A 
ATOM     10  C   UNL     1       6.357   3.965  12.915  0.00  0.00    +0.000 A 
ATOM     11  C   UNL     1       7.387   4.870  13.159  0.00  0.00    +0.000 A 
ATOM     12  C   UNL     1       7.628   5.347  14.454  0.00  0.00    +0.000 A 
ATOM     13  C   UNL     1       6.825   4.894  15.519  0.00  0.00    +0.000 A 
ATOM     14  H   UNL     1       4.388   3.085  16.520  0.00  0.00    +0.000 HD
ENDROOT
BRANCH   1  15
ATOM     15  C   UNL     1       4.591   3.312  19.496  0.00  0.00    +0.000 C 
BRANCH  15  16
ATOM     16  C   UNL     1       3.152   3.838  19.437  0.00  0.00    +0.000 C 
BRANCH  16  18
ATOM     17  C   UNL     1       1.478   2.239  18.680  0.00  0.00    +0.000 C 
ATOM     18  N   UNL     1       2.388   3.316  18.280  0.00  0.00    +0.000 NA
ATOM     19  C   UNL     1       1.615   4.409  17.679  0.00  0.00    +0.000 C 
ENDBRANCH  16  18
ENDBRANCH  15  16
ENDBRANCH   1  15
TORSDOF 3
ENDMDL
MODEL 7
REMARK VINA RESULT:      -6.5      1.923      5.081
REMARK  Name = 
REMARK  5 active torsions:
REMARK  status: ('A' for Active; 'I' for Inactive)
REMARK    1  A    between atoms: C_1  and  N_2
REMARK    2  A    between atoms: N_2  and  C_3
REMARK    3  A    between atoms: N_2  and  C_4
REMARK    4  A    between atoms: C_4  and  C_5
REMARK    5  A    between atoms: C_5  and  C_6
REMARK                            x       y       z     vdW  Elec       q    Type
REMARK                         _______ _______ _______ _____ _____    ______ ____
ROOT
ATOM      1  C   UNL     1       4.395   6.401  17.100  0.00  0.00    +0.000 A 
ATOM      2  N   UNL     1       3.942   7.684  17.047  0.00  0.00    +0.000 NA
ATOM      3  C   UNL     1       2.952   8.084  17.875  0.00  0.00    +0.000 A 
ATOM      4  C   UNL     1       2.315   7.267  18.793  0.00  0.00    +0.000 A 
ATOM      5  C   UNL     1       2.755   5.938  18.861  0.00  0.00    +0.000 A 
ATOM      6  C   UNL     1       3.800   5.541  18.029  0.00  0.00    +0.000 A 
ATOM      7  N   UNL     1       4.058   4.220  18.311  0.00  0.00    +0.000 N 
ATOM      8  C   UNL     1       3.167   3.728  19.231  0.00  0.00    +0.000 A 
ATOM      9  C   UNL     1       3.032   2.433  19.749  0.00  0.00    +0.000 A 
ATOM     10  C   UNL     1       2.006   2.213  20.669  0.00  0.00    +0.000 A 
ATOM     11  C   UNL     1       1.161   3.247  21.064  0.00  0.00    +0.000 A 
ATOM     12  C   UNL     1       1.321   4.539  20.546  0.00  0.00    +0.000 A 
ATOM     13  C   UNL     1       2.340   4.786  19.605  0.00  0.00    +0.000 A 
ATOM     14  H   UNL     1       4.793   3.674  17.885  0.00  0.00    +0.000 HD
ENDROOT
BRANCH   1  15
ATOM     15  C   UNL     1       5.421   5.979  16.085  0.00  0.00    +0.000 C 
BRANCH  15  16
ATOM     16  C   UNL     1       6.815   5.829  16.705  0.00  0.00    +0.000 C 
BRANCH  16  18
ATOM     17  C   UNL     1       7.736   5.926  18.958  0.00  0.00    +0.000 C 
ATOM     18  N   UNL     1       7.005   6.657  17.919  0.00  0.00    +0.000 NA
ATOM     19  C   UNL     1       7.749   7.871  17.564  0.00  0.00    +0.000 C 
ENDBRANCH  16  18
ENDBRANCH  15  16
ENDBRANCH   1  15
TORSDOF 3
ENDMDL
MODEL 8
REMARK VINA RESULT:      -6.5      2.232      5.227
REMARK  Name = 
REMARK  5 active torsions:
REMARK  status: ('A' for Active; 'I' for Inactive)
REMARK    1  A    between atoms: C_1  and  N_2
REMARK    2  A    between atoms: N_2  and  C_3
REMARK    3  A    between atoms: N_2  and  C_4
REMARK    4  A    between atoms: C_4  and  C_5
REMARK    5  A    between atoms: C_5  and  C_6
REMARK                            x       y       z     vdW  Elec       q    Type
REMARK                         _______ _______ _______ _____ _____    ______ ____
ROOT
ATOM      1  C   UNL     1       5.711   5.260  16.720  0.00  0.00    +0.000 A 
ATOM      2  N   UNL     1       5.416   6.492  16.220  0.00  0.00    +0.000 NA
ATOM      3  C   UNL     1       4.435   7.231  16.784  0.00  0.00    +0.000 A 
ATOM      4  C   UNL     1       3.657   6.822  17.854  0.00  0.00    +0.000 A 
ATOM      5  C   UNL     1       3.935   5.553  18.382  0.00  0.00    +0.000 A 
ATOM      6  C   UNL     1       4.971   4.811  17.817  0.00  0.00    +0.000 A 
ATOM      7  N   UNL     1       5.056   3.637  18.529  0.00  0.00    +0.000 N 
ATOM      8  C   UNL     1       4.064   3.557  19.474  0.00  0.00    +0.000 A 
ATOM      9  C   UNL     1       3.750   2.522  20.363  0.00  0.00    +0.000 A 
ATOM     10  C   UNL     1       2.656   2.711  21.209  0.00  0.00    +0.000 A 
ATOM     11  C   UNL     1       1.918   3.891  21.175  0.00  0.00    +0.000 A 
ATOM     12  C   UNL     1       2.256   4.922  20.289  0.00  0.00    +0.000 A 
ATOM     13  C   UNL     1       3.348   4.752  19.413  0.00  0.00    +0.000 A 
ATOM     14  H   UNL     1       5.744   2.916  18.367  0.00  0.00    +0.000 HD
ENDROOT
BRANCH   1  15
ATOM     15  C   UNL     1       6.736   4.436  15.990  0.00  0.00    +0.000 C 
BRANCH  15  16
ATOM     16  C   UNL     1       6.127   3.679  14.805  0.00  0.00    +0.000 C 
BRANCH  16  18
ATOM     17  C   UNL     1       7.620   5.059  13.464  0.00  0.00    +0.000 C 
ATOM     18  N   UNL     1       6.329   4.366  13.508  0.00  0.00    +0.000 NA
ATOM     19  C   UNL     1       6.269   3.380  12.424  0.00  0.00    +0.000 C 
ENDBRANCH  16  18
ENDBRANCH  15  16
ENDBRANCH   1  15
TORSDOF 3
ENDMDL
MODEL 9
REMARK VINA RESULT:      -6.5      2.511      5.570
REMARK  Name = 
REMARK  5 active torsions:
REMARK  status: ('A' for Active; 'I' for Inactive)
REMARK    1  A    between atoms: C_1  and  N_2
REMARK    2  A    between atoms: N_2  and  C_3
REMARK    3  A    between atoms: N_2  and  C_4
REMARK    4  A    between atoms: C_4  and  C_5
REMARK    5  A    between atoms: C_5  and  C_6
REMARK                            x       y       z     vdW  Elec       q    Type
REMARK                         _______ _______ _______ _____ _____    ______ ____
ROOT
ATOM      1  C   UNL     1       5.928   5.279  16.267  0.00  0.00    +0.000 A 
ATOM      2  N   UNL     1       5.880   6.639  16.202  0.00  0.00    +0.000 NA
ATOM      3  C   UNL     1       4.894   7.310  16.837  0.00  0.00    +0.000 A 
ATOM      4  C   UNL     1       3.874   6.714  17.559  0.00  0.00    +0.000 A 
ATOM      5  C   UNL     1       3.895   5.314  17.634  0.00  0.00    +0.000 A 
ATOM      6  C   UNL     1       4.934   4.630  17.005  0.00  0.00    +0.000 A 
ATOM      7  N   UNL     1       4.740   3.292  17.255  0.00  0.00    +0.000 N 
ATOM      8  C   UNL     1       3.575   3.080  17.947  0.00  0.00    +0.000 A 
ATOM      9  C   UNL     1       2.973   1.881  18.348  0.00  0.00    +0.000 A 
ATOM     10  C   UNL     1       1.758   1.969  19.030  0.00  0.00    +0.000 A 
ATOM     11  C   UNL     1       1.179   3.204  19.310  0.00  0.00    +0.000 A 
ATOM     12  C   UNL     1       1.803   4.393  18.912  0.00  0.00    +0.000 A 
ATOM     13  C   UNL     1       3.024   4.333  18.210  0.00  0.00    +0.000 A 
ATOM     14  H   UNL     1       5.362   2.555  16.952  0.00  0.00    +0.000 HD
ENDROOT
BRANCH   1  15
ATOM     15  C   UNL     1       6.980   4.577  15.455  0.00  0.00    +0.000 C 
BRANCH  15  16
ATOM     16  C   UNL     1       6.369   3.679  14.373  0.00  0.00    +0.000 C 
BRANCH  16  18
ATOM     17  C   UNL     1       7.649   5.003  12.778  0.00  0.00    +0.000 C 
ATOM     18  N   UNL     1       6.389   4.295  13.025  0.00  0.00    +0.000 NA
ATOM     19  C   UNL     1       6.214   3.247  12.013  0.00  0.00    +0.000 C 
ENDBRANCH  16  18
ENDBRANCH  15  16
ENDBRANCH   1  15
TORSDOF 3
ENDMDL
