MODEL 1
REMARK VINA RESULT:      -8.3      0.000      0.000
REMARK  Name = 
REMARK  3 active torsions:
REMARK  status: ('A' for Active; 'I' for Inactive)
REMARK    1  A    between atoms: C_1  and  N_2
REMARK    2  A    between atoms: N_8  and  S_9
REMARK    3  A    between atoms: S_9  and  C_12
REMARK                            x       y       z     vdW  Elec       q    Type
REMARK                         _______ _______ _______ _____ _____    ______ ____
ROOT
ATOM      1  C   UNL     1       4.630   2.460  20.205  0.00  0.00    +0.000 C 
ATOM      2  N   UNL     1       3.298   3.022  19.996  0.00  0.00    +0.000 NA
ATOM      3  C   UNL     1       2.384   2.150  19.266  0.00  0.00    +0.000 C 
ATOM      4  C   UNL     1       2.596   1.997  17.761  0.00  0.00    +0.000 C 
ATOM      5  O   UNL     1       2.142   3.125  17.027  0.00  0.00    +0.000 OA
ATOM      6  C   UNL     1       2.920   4.313  17.118  0.00  0.00    +0.000 C 
ATOM      7  C   UNL     1       4.397   4.137  16.786  0.00  0.00    +0.000 C 
ATOM      8  N   UNL     1       5.107   5.448  16.696  0.00  0.00    +0.000 NA
ATOM      9  C   UNL     1       4.871   6.358  17.856  0.00  0.00    +0.000 C 
ATOM     10  C   UNL     1       3.384   6.457  18.230  0.00  0.00    +0.000 C 
ATOM     11  C   UNL     1       2.727   5.071  18.427  0.00  0.00    +0.000 C 
ATOM     12  C   UNL     1       3.299   4.446  19.714  0.00  0.00    +0.000 C 
ENDROOT
BRANCH   8  13
ATOM     13  S   UNL     1       6.794   5.236  16.382  0.00  0.00    +0.000 S 
ATOM     14  O   UNL     1       7.436   6.528  16.484  0.00  0.00    +0.000 OA
ATOM     15  O   UNL     1       7.238   4.109  17.178  0.00  0.00    +0.000 OA
BRANCH  13  16
ATOM     16  C   UNL     1       6.804   4.764  14.674  0.00  0.00    +0.000 A 
ATOM     17  C   UNL     1       7.702   5.402  13.810  0.00  0.00    +0.000 A 
ATOM     18  C   UNL     1       7.718   5.060  12.463  0.00  0.00    +0.000 A 
ATOM     19  C   UNL     1       6.843   4.082  11.985  0.00  0.00    +0.000 A 
ATOM     20  C   UNL     1       5.952   3.442  12.848  0.00  0.00    +0.000 A 
ATOM     21  C   UNL     1       5.928   3.782  14.202  0.00  0.00    +0.000 A 
ENDBRANCH  13  16
ENDBRANCH   8  13
TORSDOF 2
ENDMDL
MODEL 2
REMARK VINA RESULT:      -8.3      0.086      1.064
REMARK  Name = 
REMARK  3 active torsions:
REMARK  status: ('A' for Active; 'I' for Inactive)
REMARK    1  A    between atoms: C_1  and  N_2
REMARK    2  A    between atoms: N_8  and  S_9
REMARK    3  A    between atoms: S_9  and  C_12
REMARK                            x       y       z     vdW  Elec       q    Type
REMARK                         _______ _______ _______ _____ _____    ______ ____
ROOT
ATOM      1  C   UNL     1       4.647   2.587  20.222  0.00  0.00    +0.000 C 
ATOM      2  N   UNL     1       3.308   3.122  19.983  0.00  0.00    +0.000 NA
ATOM      3  C   UNL     1       2.413   2.212  19.278  0.00  0.00    +0.000 C 
ATOM      4  C   UNL     1       2.639   2.009  17.781  0.00  0.00    +0.000 C 
ATOM      5  O   UNL     1       2.174   3.104  17.004  0.00  0.00    +0.000 OA
ATOM      6  C   UNL     1       2.934   4.305  17.058  0.00  0.00    +0.000 C 
ATOM      7  C   UNL     1       4.416   4.139  16.743  0.00  0.00    +0.000 C 
ATOM      8  N   UNL     1       5.108   5.456  16.612  0.00  0.00    +0.000 NA
ATOM      9  C   UNL     1       4.850   6.403  17.738  0.00  0.00    +0.000 C 
ATOM     10  C   UNL     1       3.359   6.494  18.097  0.00  0.00    +0.000 C 
ATOM     11  C   UNL     1       2.721   5.106  18.339  0.00  0.00    +0.000 C 
ATOM     12  C   UNL     1       3.291   4.536  19.651  0.00  0.00    +0.000 C 
ENDROOT
BRANCH   8  13
ATOM     13  S   UNL     1       6.800   5.258  16.318  0.00  0.00    +0.000 S 
ATOM     14  O   UNL     1       7.435   6.551  16.451  0.00  0.00    +0.000 OA
ATOM     15  O   UNL     1       7.239   4.120  17.100  0.00  0.00    +0.000 OA
BRANCH  13  16
ATOM     16  C   UNL     1       6.836   4.816  14.602  0.00  0.00    +0.000 A 
ATOM     17  C   UNL     1       5.961   3.821  14.151  0.00  0.00    +0.000 A 
ATOM     18  C   UNL     1       5.981   3.447  12.812  0.00  0.00    +0.000 A 
ATOM     19  C   UNL     1       6.869   4.067  11.931  0.00  0.00    +0.000 A 
ATOM     20  C   UNL     1       7.737   5.064  12.381  0.00  0.00    +0.000 A 
ATOM     21  C   UNL     1       7.726   5.444  13.725  0.00  0.00    +0.000 A 
ENDBRANCH  13  16
ENDBRANCH   8  13
TORSDOF 2
ENDMDL
MODEL 3
REMARK VINA RESULT:      -8.1      2.578      3.284
REMARK  Name = 
REMARK  3 active torsions:
REMARK  status: ('A' for Active; 'I' for Inactive)
REMARK    1  A    between atoms: C_1  and  N_2
REMARK    2  A    between atoms: N_8  and  S_9
REMARK    3  A    between atoms: S_9  and  C_12
REMARK                            x       y       z     vdW  Elec       q    Type
REMARK                         _______ _______ _______ _____ _____    ______ ____
ROOT
ATOM      1  C   UNL     1       4.251   2.397  20.362  0.00  0.00    +0.000 C 
ATOM      2  N   UNL     1       2.945   3.035  20.516  0.00  0.00    +0.000 NA
ATOM      3  C   UNL     1       1.822   2.229  20.051  0.00  0.00    +0.000 C 
ATOM      4  C   UNL     1       1.619   2.094  18.543  0.00  0.00    +0.000 C 
ATOM      5  O   UNL     1       1.052   3.260  17.961  0.00  0.00    +0.000 OA
ATOM      6  C   UNL     1       1.893   4.402  17.848  0.00  0.00    +0.000 C 
ATOM      7  C   UNL     1       3.218   4.153  17.135  0.00  0.00    +0.000 C 
ATOM      8  N   UNL     1       3.952   5.425  16.866  0.00  0.00    +0.000 NA
ATOM      9  C   UNL     1       4.085   6.322  18.052  0.00  0.00    +0.000 C 
ATOM     10  C   UNL     1       2.758   6.495  18.807  0.00  0.00    +0.000 C 
ATOM     11  C   UNL     1       2.098   5.143  19.165  0.00  0.00    +0.000 C 
ATOM     12  C   UNL     1       2.954   4.463  20.251  0.00  0.00    +0.000 C 
ENDROOT
BRANCH   8  13
ATOM     13  S   UNL     1       5.481   5.128  16.114  0.00  0.00    +0.000 S 
ATOM     14  O   UNL     1       5.733   3.705  16.154  0.00  0.00    +0.000 OA
ATOM     15  O   UNL     1       5.490   5.860  14.863  0.00  0.00    +0.000 OA
BRANCH  13  16
ATOM     16  C   UNL     1       6.611   5.906  17.235  0.00  0.00    +0.000 A 
ATOM     17  C   UNL     1       6.994   7.229  16.986  0.00  0.00    +0.000 A 
ATOM     18  C   UNL     1       7.892   7.856  17.844  0.00  0.00    +0.000 A 
ATOM     19  C   UNL     1       8.399   7.164  18.945  0.00  0.00    +0.000 A 
ATOM     20  C   UNL     1       8.011   5.846  19.196  0.00  0.00    +0.000 A 
ATOM     21  C   UNL     1       7.113   5.208  18.338  0.00  0.00    +0.000 A 
ENDBRANCH  13  16
ENDBRANCH   8  13
TORSDOF 2
ENDMDL
MODEL 4
REMARK VINA RESULT:      -8.0      2.571      3.391
REMARK  Name = 
REMARK  3 active torsions:
REMARK  status: ('A' for Active; 'I' for Inactive)
REMARK    1  A    between atoms: C_1  and  N_2
REMARK    2  A    between atoms: N_8  and  S_9
REMARK    3  A    between atoms: S_9  and  C_12
REMARK                            x       y       z     vdW  Elec       q    Type
REMARK                         _______ _______ _______ _____ _____    ______ ____
ROOT
ATOM      1  C   UNL     1       4.216   2.452  20.386  0.00  0.00    +0.000 C 
ATOM      2  N   UNL     1       2.917   3.107  20.526  0.00  0.00    +0.000 NA
ATOM      3  C   UNL     1       1.787   2.308  20.065  0.00  0.00    +0.000 C 
ATOM      4  C   UNL     1       1.590   2.157  18.559  0.00  0.00    +0.000 C 
ATOM      5  O   UNL     1       1.039   3.321  17.958  0.00  0.00    +0.000 OA
ATOM      6  C   UNL     1       1.895   4.451  17.835  0.00  0.00    +0.000 C 
ATOM      7  C   UNL     1       3.220   4.178  17.132  0.00  0.00    +0.000 C 
ATOM      8  N   UNL     1       3.970   5.437  16.851  0.00  0.00    +0.000 NA
ATOM      9  C   UNL     1       4.108   6.349  18.025  0.00  0.00    +0.000 C 
ATOM     10  C   UNL     1       2.779   6.547  18.771  0.00  0.00    +0.000 C 
ATOM     11  C   UNL     1       2.102   5.207  19.143  0.00  0.00    +0.000 C 
ATOM     12  C   UNL     1       2.944   4.531  20.242  0.00  0.00    +0.000 C 
ENDROOT
BRANCH   8  13
ATOM     13  S   UNL     1       5.499   5.113  16.110  0.00  0.00    +0.000 S 
ATOM     14  O   UNL     1       5.742   3.689  16.183  0.00  0.00    +0.000 OA
ATOM     15  O   UNL     1       5.517   5.816  14.843  0.00  0.00    +0.000 OA
BRANCH  13  16
ATOM     16  C   UNL     1       6.631   5.908  17.217  0.00  0.00    +0.000 A 
ATOM     17  C   UNL     1       7.110   5.185  18.315  0.00  0.00    +0.000 A 
ATOM     18  C   UNL     1       7.988   5.793  19.207  0.00  0.00    +0.000 A 
ATOM     19  C   UNL     1       8.386   7.114  18.996  0.00  0.00    +0.000 A 
ATOM     20  C   UNL     1       7.913   7.833  17.896  0.00  0.00    +0.000 A 
ATOM     21  C   UNL     1       7.028   7.231  16.999  0.00  0.00    +0.000 A 
ENDBRANCH  13  16
ENDBRANCH   8  13
TORSDOF 2
ENDMDL
MODEL 5
REMARK VINA RESULT:      -7.4      2.906      3.547
REMARK  Name = 
REMARK  3 active torsions:
REMARK  status: ('A' for Active; 'I' for Inactive)
REMARK    1  A    between atoms: C_1  and  N_2
REMARK    2  A    between atoms: N_8  and  S_9
REMARK    3  A    between atoms: S_9  and  C_12
REMARK                            x       y       z     vdW  Elec       q    Type
REMARK                         _______ _______ _______ _____ _____    ______ ____
ROOT
ATOM      1  C   UNL     1       2.907   2.615  21.293  0.00  0.00    +0.000 C 
ATOM      2  N   UNL     1       1.743   3.410  20.909  0.00  0.00    +0.000 NA
ATOM      3  C   UNL     1       0.752   2.686  20.120  0.00  0.00    +0.000 C 
ATOM      4  C   UNL     1       1.081   2.394  18.658  0.00  0.00    +0.000 C 
ATOM      5  O   UNL     1       0.940   3.537  17.826  0.00  0.00    +0.000 OA
ATOM      6  C   UNL     1       1.927   4.555  17.950  0.00  0.00    +0.000 C 
ATOM      7  C   UNL     1       3.365   4.073  17.796  0.00  0.00    +0.000 C 
ATOM      8  N   UNL     1       4.328   5.212  17.728  0.00  0.00    +0.000 NA
ATOM      9  C   UNL     1       4.163   6.226  18.812  0.00  0.00    +0.000 C 
ATOM     10  C   UNL     1       2.696   6.637  19.009  0.00  0.00    +0.000 C 
ATOM     11  C   UNL     1       1.758   5.422  19.194  0.00  0.00    +0.000 C 
ATOM     12  C   UNL     1       2.058   4.785  20.565  0.00  0.00    +0.000 C 
ENDROOT
BRANCH   8  13
ATOM     13  S   UNL     1       5.962   4.655  17.617  0.00  0.00    +0.000 S 
ATOM     14  O   UNL     1       6.222   3.794  18.749  0.00  0.00    +0.000 OA
ATOM     15  O   UNL     1       6.164   4.195  16.258  0.00  0.00    +0.000 OA
BRANCH  13  16
ATOM     16  C   UNL     1       6.887   6.148  17.854  0.00  0.00    +0.000 A 
ATOM     17  C   UNL     1       7.825   6.195  18.891  0.00  0.00    +0.000 A 
ATOM     18  C   UNL     1       8.553   7.360  19.106  0.00  0.00    +0.000 A 
ATOM     19  C   UNL     1       8.343   8.470  18.286  0.00  0.00    +0.000 A 
ATOM     20  C   UNL     1       7.411   8.421  17.247  0.00  0.00    +0.000 A 
ATOM     21  C   UNL     1       6.674   7.255  17.027  0.00  0.00    +0.000 A 
ENDBRANCH  13  16
ENDBRANCH   8  13
TORSDOF 2
ENDMDL
MODEL 6
REMARK VINA RESULT:      -7.1      1.273      1.406
REMARK  Name = 
REMARK  3 active torsions:
REMARK  status: ('A' for Active; 'I' for Inactive)
REMARK    1  A    between atoms: C_1  and  N_2
REMARK    2  A    between atoms: N_8  and  S_9
REMARK    3  A    between atoms: S_9  and  C_12
REMARK                            x       y       z     vdW  Elec       q    Type
REMARK                         _______ _______ _______ _____ _____    ______ ____
ROOT
ATOM      1  C   UNL     1       3.216   2.575  21.169  0.00  0.00    +0.000 C 
ATOM      2  N   UNL     1       1.972   3.258  20.824  0.00  0.00    +0.000 NA
ATOM      3  C   UNL     1       1.065   2.475  19.991  0.00  0.00    +0.000 C 
ATOM      4  C   UNL     1       1.423   2.304  18.517  0.00  0.00    +0.000 C 
ATOM      5  O   UNL     1       1.157   3.469  17.749  0.00  0.00    +0.000 OA
ATOM      6  C   UNL     1       2.027   4.580  17.935  0.00  0.00    +0.000 C 
ATOM      7  C   UNL     1       3.509   4.267  17.762  0.00  0.00    +0.000 C 
ATOM      8  N   UNL     1       4.342   5.506  17.762  0.00  0.00    +0.000 NA
ATOM      9  C   UNL     1       4.068   6.434  18.899  0.00  0.00    +0.000 C 
ATOM     10  C   UNL     1       2.565   6.671  19.112  0.00  0.00    +0.000 C 
ATOM     11  C   UNL     1       1.765   5.352  19.224  0.00  0.00    +0.000 C 
ATOM     12  C   UNL     1       2.135   4.676  20.558  0.00  0.00    +0.000 C 
ENDROOT
BRANCH   8  13
ATOM     13  S   UNL     1       6.027   5.139  17.628  0.00  0.00    +0.000 S 
ATOM     14  O   UNL     1       6.774   6.347  17.899  0.00  0.00    +0.000 OA
ATOM     15  O   UNL     1       6.260   3.924  18.383  0.00  0.00    +0.000 OA
BRANCH  13  16
ATOM     16  C   UNL     1       6.198   4.777  15.902  0.00  0.00    +0.000 A 
ATOM     17  C   UNL     1       7.364   5.188  15.246  0.00  0.00    +0.000 A 
ATOM     18  C   UNL     1       7.516   4.929  13.889  0.00  0.00    +0.000 A 
ATOM     19  C   UNL     1       6.508   4.259  13.194  0.00  0.00    +0.000 A 
ATOM     20  C   UNL     1       5.347   3.843  13.850  0.00  0.00    +0.000 A 
ATOM     21  C   UNL     1       5.186   4.102  15.212  0.00  0.00    +0.000 A 
ENDBRANCH  13  16
ENDBRANCH   8  13
TORSDOF 2
ENDMDL
MODEL 7
REMARK VINA RESULT:      -7.1      2.830      3.513
REMARK  Name = 
REMARK  3 active torsions:
REMARK  status: ('A' for Active; 'I' for Inactive)
REMARK    1  A    between atoms: C_1  and  N_2
REMARK    2  A    between atoms: N_8  and  S_9
REMARK    3  A    between atoms: S_9  and  C_12
REMARK                            x       y       z     vdW  Elec       q    Type
REMARK                         _______ _______ _______ _____ _____    ______ ____
ROOT
ATOM      1  C   UNL     1       3.181   2.550  21.150  0.00  0.00    +0.000 C 
ATOM      2  N   UNL     1       1.986   3.313  20.797  0.00  0.00    +0.000 NA
ATOM      3  C   UNL     1       1.008   2.570  20.010  0.00  0.00    +0.000 C 
ATOM      4  C   UNL     1       1.325   2.314  18.538  0.00  0.00    +0.000 C 
ATOM      5  O   UNL     1       1.134   3.466  17.728  0.00  0.00    +0.000 OA
ATOM      6  C   UNL     1       2.089   4.513  17.856  0.00  0.00    +0.000 C 
ATOM      7  C   UNL     1       3.540   4.082  17.673  0.00  0.00    +0.000 C 
ATOM      8  N   UNL     1       4.464   5.253  17.612  0.00  0.00    +0.000 NA
ATOM      9  C   UNL     1       4.281   6.242  18.715  0.00  0.00    +0.000 C 
ATOM     10  C   UNL     1       2.805   6.602  18.941  0.00  0.00    +0.000 C 
ATOM     11  C   UNL     1       1.910   5.353  19.117  0.00  0.00    +0.000 C 
ATOM     12  C   UNL     1       2.251   4.704  20.472  0.00  0.00    +0.000 C 
ENDROOT
BRANCH   8  13
ATOM     13  S   UNL     1       6.113   4.753  17.467  0.00  0.00    +0.000 S 
ATOM     14  O   UNL     1       6.392   3.809  18.527  0.00  0.00    +0.000 OA
ATOM     15  O   UNL     1       6.335   4.411  16.076  0.00  0.00    +0.000 OA
BRANCH  13  16
ATOM     16  C   UNL     1       6.994   6.246  17.832  0.00  0.00    +0.000 A 
ATOM     17  C   UNL     1       6.738   7.380  17.053  0.00  0.00    +0.000 A 
ATOM     18  C   UNL     1       7.428   8.560  17.311  0.00  0.00    +0.000 A 
ATOM     19  C   UNL     1       8.365   8.604  18.344  0.00  0.00    +0.000 A 
ATOM     20  C   UNL     1       8.616   7.474  19.126  0.00  0.00    +0.000 A 
ATOM     21  C   UNL     1       7.929   6.285  18.871  0.00  0.00    +0.000 A 
ENDBRANCH  13  16
ENDBRANCH   8  13
TORSDOF 2
ENDMDL
MODEL 8
REMARK VINA RESULT:      -6.6      2.671      6.223
REMARK  Name = 
REMARK  3 active torsions:
REMARK  status: ('A' for Active; 'I' for Inactive)
REMARK    1  A    between atoms: C_1  and  N_2
REMARK    2  A    between atoms: N_8  and  S_9
REMARK    3  A    between atoms: S_9  and  C_12
REMARK                            x       y       z     vdW  Elec       q    Type
REMARK                         _______ _______ _______ _____ _____    ______ ____
ROOT
ATOM      1  C   UNL     1       7.410   5.518  19.772  0.00  0.00    +0.000 C 
ATOM      2  N   UNL     1       7.909   5.677  18.408  0.00  0.00    +0.000 NA
ATOM      3  C   UNL     1       8.035   7.063  17.971  0.00  0.00    +0.000 C 
ATOM      4  C   UNL     1       6.754   7.822  17.631  0.00  0.00    +0.000 C 
ATOM      5  O   UNL     1       6.216   7.451  16.369  0.00  0.00    +0.000 OA
ATOM      6  C   UNL     1       5.602   6.170  16.279  0.00  0.00    +0.000 C 
ATOM      7  C   UNL     1       4.515   5.908  17.316  0.00  0.00    +0.000 C 
ATOM      8  N   UNL     1       3.774   4.642  17.036  0.00  0.00    +0.000 NA
ATOM      9  C   UNL     1       4.648   3.457  16.789  0.00  0.00    +0.000 C 
ATOM     10  C   UNL     1       5.788   3.764  15.806  0.00  0.00    +0.000 C 
ATOM     11  C   UNL     1       6.598   5.018  16.209  0.00  0.00    +0.000 C 
ATOM     12  C   UNL     1       7.405   4.682  17.478  0.00  0.00    +0.000 C 
ENDROOT
BRANCH   8  13
ATOM     13  S   UNL     1       2.586   4.320  18.251  0.00  0.00    +0.000 S 
ATOM     14  O   UNL     1       1.388   3.846  17.594  0.00  0.00    +0.000 OA
ATOM     15  O   UNL     1       3.236   3.542  19.286  0.00  0.00    +0.000 OA
BRANCH  13  16
ATOM     16  C   UNL     1       2.246   5.939  18.886  0.00  0.00    +0.000 A 
ATOM     17  C   UNL     1       2.021   6.083  20.259  0.00  0.00    +0.000 A 
ATOM     18  C   UNL     1       1.737   7.342  20.779  0.00  0.00    +0.000 A 
ATOM     19  C   UNL     1       1.684   8.448  19.929  0.00  0.00    +0.000 A 
ATOM     20  C   UNL     1       1.915   8.304  18.560  0.00  0.00    +0.000 A 
ATOM     21  C   UNL     1       2.198   7.043  18.029  0.00  0.00    +0.000 A 
ENDBRANCH  13  16
ENDBRANCH   8  13
TORSDOF 2
ENDMDL
MODEL 9
REMARK VINA RESULT:      -6.6      2.689      6.158
REMARK  Name = 
REMARK  3 active torsions:
REMARK  status: ('A' for Active; 'I' for Inactive)
REMARK    1  A    between atoms: C_1  and  N_2
REMARK    2  A    between atoms: N_8  and  S_9
REMARK    3  A    between atoms: S_9  and  C_12
REMARK                            x       y       z     vdW  Elec       q    Type
REMARK                         _______ _______ _______ _____ _____    ______ ____
ROOT
ATOM      1  C   UNL     1       7.380   5.491  19.862  0.00  0.00    +0.000 C 
ATOM      2  N   UNL     1       7.919   5.625  18.510  0.00  0.00    +0.000 NA
ATOM      3  C   UNL     1       8.108   7.004  18.071  0.00  0.00    +0.000 C 
ATOM      4  C   UNL     1       6.865   7.807  17.695  0.00  0.00    +0.000 C 
ATOM      5  O   UNL     1       6.346   7.450  16.422  0.00  0.00    +0.000 OA
ATOM      6  C   UNL     1       5.687   6.193  16.321  0.00  0.00    +0.000 C 
ATOM      7  C   UNL     1       4.566   5.975  17.331  0.00  0.00    +0.000 C 
ATOM      8  N   UNL     1       3.785   4.737  17.037  0.00  0.00    +0.000 NA
ATOM      9  C   UNL     1       4.621   3.519  16.818  0.00  0.00    +0.000 C 
ATOM     10  C   UNL     1       5.795   3.779  15.862  0.00  0.00    +0.000 C 
ATOM     11  C   UNL     1       6.641   5.004  16.281  0.00  0.00    +0.000 C 
ATOM     12  C   UNL     1       7.403   4.645  17.572  0.00  0.00    +0.000 C 
ENDROOT
BRANCH   8  13
ATOM     13  S   UNL     1       2.556   4.465  18.222  0.00  0.00    +0.000 S 
ATOM     14  O   UNL     1       1.379   3.969  17.544  0.00  0.00    +0.000 OA
ATOM     15  O   UNL     1       3.167   3.725  19.309  0.00  0.00    +0.000 OA
BRANCH  13  16
ATOM     16  C   UNL     1       2.201   6.108  18.783  0.00  0.00    +0.000 A 
ATOM     17  C   UNL     1       2.128   7.135  17.836  0.00  0.00    +0.000 A 
ATOM     18  C   UNL     1       1.866   8.436  18.253  0.00  0.00    +0.000 A 
ATOM     19  C   UNL     1       1.674   8.703  19.610  0.00  0.00    +0.000 A 
ATOM     20  C   UNL     1       1.741   7.676  20.554  0.00  0.00    +0.000 A 
ATOM     21  C   UNL     1       2.007   6.369  20.143  0.00  0.00    +0.000 A 
ENDBRANCH  13  16
ENDBRANCH   8  13
TORSDOF 2
ENDMDL
