MODEL 1
REMARK VINA RESULT:      -6.8      0.000      0.000
REMARK  Name = 
REMARK  6 active torsions:
REMARK  status: ('A' for Active; 'I' for Inactive)
REMARK    1  A    between atoms: C_1  and  C_2
REMARK    2  A    between atoms: C_4  and  N_5
REMARK    3  A    between atoms: C_6  and  C_7
REMARK    4  A    between atoms: C_7  and  C_9
REMARK    5  A    between atoms: C_12  and  C_13
REMARK    6  A    between atoms: C_20  and  C_21
REMARK                            x       y       z     vdW  Elec       q    Type
REMARK                         _______ _______ _______ _____ _____    ______ ____
ROOT
ATOM      1  C   UNL     1      -0.964  11.978  18.625  0.00  0.00    +0.000 C 
ATOM      2  O   UNL     1      -0.401  13.048  18.390  0.00  0.00    +0.000 OA
ENDROOT
BRANCH   1   3
ATOM      3  C   UNL     1      -0.137  10.799  19.047  0.00  0.00    +0.000 A 
ATOM      4  C   UNL     1       0.619  10.150  18.057  0.00  0.00    +0.000 A 
ATOM      5  C   UNL     1       1.352   9.011  18.359  0.00  0.00    +0.000 A 
ATOM      6  C   UNL     1       1.410   8.535  19.675  0.00  0.00    +0.000 A 
ATOM      7  C   UNL     1       2.232   7.295  19.937  0.00  0.00    +0.000 C 
ATOM      8  C   UNL     1       0.734   9.225  20.715  0.00  0.00    +0.000 A 
ATOM      9  C   UNL     1       0.835   8.810  22.064  0.00  0.00    +0.000 A 
ATOM     10  C   UNL     1       0.178   9.470  23.095  0.00  0.00    +0.000 A 
ATOM     11  C   UNL     1      -0.626  10.557  22.806  0.00  0.00    +0.000 A 
ATOM     12  C   UNL     1      -0.755  10.983  21.485  0.00  0.00    +0.000 A 
ATOM     13  C   UNL     1      -0.073  10.361  20.404  0.00  0.00    +0.000 A 
ENDBRANCH   1   3
BRANCH   1  18
ATOM     14  C   UNL     1      -6.111  11.909  19.361  0.00  0.00    +0.000 C 
ATOM     15  C   UNL     1      -4.751  11.806  18.746  0.00  0.00    +0.000 A 
ATOM     16  S   UNL     1      -4.591  11.179  17.174  0.00  0.00    +0.000 S 
ATOM     17  C   UNL     1      -2.897  11.326  17.205  0.00  0.00    +0.000 A 
ATOM     18  C   UNL     1      -2.423  11.834  18.409  0.00  0.00    +0.000 A 
ATOM     19  C   UNL     1      -3.532  12.178  19.296  0.00  0.00    +0.000 A 
ATOM     20  C   UNL     1      -3.440  12.832  20.644  0.00  0.00    +0.000 C 
BRANCH  17  21
ATOM     21  N   UNL     1      -2.167  10.951  16.126  0.00  0.00    +0.000 N 
ATOM     22  H   UNL     1      -2.098  11.593  15.345  0.00  0.00    +0.000 HD
ATOM     23  H   UNL     1      -1.298  10.441  16.311  0.00  0.00    +0.000 HD
ENDBRANCH  17  21
ENDBRANCH   1  18
TORSDOF 3
ENDMDL
MODEL 2
REMARK VINA RESULT:      -6.7      6.635      9.491
REMARK  Name = 
REMARK  6 active torsions:
REMARK  status: ('A' for Active; 'I' for Inactive)
REMARK    1  A    between atoms: C_1  and  C_2
REMARK    2  A    between atoms: C_4  and  N_5
REMARK    3  A    between atoms: C_6  and  C_7
REMARK    4  A    between atoms: C_7  and  C_9
REMARK    5  A    between atoms: C_12  and  C_13
REMARK    6  A    between atoms: C_20  and  C_21
REMARK                            x       y       z     vdW  Elec       q    Type
REMARK                         _______ _______ _______ _____ _____    ______ ____
ROOT
ATOM      1  C   UNL     1       5.973   4.820  18.623  0.00  0.00    +0.000 C 
ATOM      2  O   UNL     1       6.970   5.139  19.271  0.00  0.00    +0.000 OA
ENDROOT
BRANCH   1   3
ATOM      3  C   UNL     1       4.757   4.331  19.355  0.00  0.00    +0.000 A 
ATOM      4  C   UNL     1       4.767   3.004  19.813  0.00  0.00    +0.000 A 
ATOM      5  C   UNL     1       3.650   2.462  20.435  0.00  0.00    +0.000 A 
ATOM      6  C   UNL     1       2.524   3.254  20.684  0.00  0.00    +0.000 A 
ATOM      7  C   UNL     1       1.346   2.605  21.371  0.00  0.00    +0.000 C 
ATOM      8  C   UNL     1       2.520   4.625  20.317  0.00  0.00    +0.000 A 
ATOM      9  C   UNL     1       1.425   5.468  20.622  0.00  0.00    +0.000 A 
ATOM     10  C   UNL     1       1.401   6.812  20.269  0.00  0.00    +0.000 A 
ATOM     11  C   UNL     1       2.467   7.354  19.574  0.00  0.00    +0.000 A 
ATOM     12  C   UNL     1       3.555   6.546  19.248  0.00  0.00    +0.000 A 
ATOM     13  C   UNL     1       3.638   5.176  19.621  0.00  0.00    +0.000 A 
ENDBRANCH   1   3
BRANCH   1  18
ATOM     14  C   UNL     1       5.111   3.667  13.627  0.00  0.00    +0.000 C 
ATOM     15  C   UNL     1       5.610   4.310  14.883  0.00  0.00    +0.000 A 
ATOM     16  S   UNL     1       6.801   5.519  14.786  0.00  0.00    +0.000 S 
ATOM     17  C   UNL     1       6.867   5.697  16.476  0.00  0.00    +0.000 A 
ATOM     18  C   UNL     1       6.004   4.834  17.141  0.00  0.00    +0.000 A 
ATOM     19  C   UNL     1       5.212   4.058  16.188  0.00  0.00    +0.000 A 
ATOM     20  C   UNL     1       4.114   3.088  16.507  0.00  0.00    +0.000 C 
BRANCH  17  21
ATOM     21  N   UNL     1       7.712   6.602  17.026  0.00  0.00    +0.000 N 
ATOM     22  H   UNL     1       7.736   6.686  18.037  0.00  0.00    +0.000 HD
ATOM     23  H   UNL     1       8.633   6.700  16.589  0.00  0.00    +0.000 HD
ENDBRANCH  17  21
ENDBRANCH   1  18
TORSDOF 3
ENDMDL
MODEL 3
REMARK VINA RESULT:      -6.6      2.487      6.302
REMARK  Name = 
REMARK  6 active torsions:
REMARK  status: ('A' for Active; 'I' for Inactive)
REMARK    1  A    between atoms: C_1  and  C_2
REMARK    2  A    between atoms: C_4  and  N_5
REMARK    3  A    between atoms: C_6  and  C_7
REMARK    4  A    between atoms: C_7  and  C_9
REMARK    5  A    between atoms: C_12  and  C_13
REMARK    6  A    between atoms: C_20  and  C_21
REMARK                            x       y       z     vdW  Elec       q    Type
REMARK                         _______ _______ _______ _____ _____    ______ ____
ROOT
ATOM      1  C   UNL     1      -1.299  12.325  20.186  0.00  0.00    +0.000 C 
ATOM      2  O   UNL     1      -0.690  13.388  20.060  0.00  0.00    +0.000 OA
ENDROOT
BRANCH   1   3
ATOM      3  C   UNL     1      -2.722  12.243  19.718  0.00  0.00    +0.000 A 
ATOM      4  C   UNL     1      -3.718  12.716  20.588  0.00  0.00    +0.000 A 
ATOM      5  C   UNL     1      -5.061  12.606  20.253  0.00  0.00    +0.000 A 
ATOM      6  C   UNL     1      -5.440  12.092  19.007  0.00  0.00    +0.000 A 
ATOM      7  C   UNL     1      -6.916  12.008  18.701  0.00  0.00    +0.000 C 
ATOM      8  C   UNL     1      -4.452  11.694  18.068  0.00  0.00    +0.000 A 
ATOM      9  C   UNL     1      -4.803  11.239  16.775  0.00  0.00    +0.000 A 
ATOM     10  C   UNL     1      -3.852  10.843  15.843  0.00  0.00    +0.000 A 
ATOM     11  C   UNL     1      -2.512  10.863  16.186  0.00  0.00    +0.000 A 
ATOM     12  C   UNL     1      -2.135  11.294  17.457  0.00  0.00    +0.000 A 
ATOM     13  C   UNL     1      -3.071  11.744  18.428  0.00  0.00    +0.000 A 
ENDBRANCH   1   3
BRANCH   1  18
ATOM     14  C   UNL     1       1.231   7.878  21.114  0.00  0.00    +0.000 C 
ATOM     15  C   UNL     1       0.483   9.163  21.286  0.00  0.00    +0.000 A 
ATOM     16  S   UNL     1      -0.048   9.619  22.835  0.00  0.00    +0.000 S 
ATOM     17  C   UNL     1      -0.790  11.033  22.248  0.00  0.00    +0.000 A 
ATOM     18  C   UNL     1      -0.664  11.173  20.871  0.00  0.00    +0.000 A 
ATOM     19  C   UNL     1       0.148  10.094  20.313  0.00  0.00    +0.000 A 
ATOM     20  C   UNL     1       0.585   9.939  18.886  0.00  0.00    +0.000 C 
BRANCH  17  21
ATOM     21  N   UNL     1      -1.423  11.868  23.106  0.00  0.00    +0.000 N 
ATOM     22  H   UNL     1      -2.353  11.618  23.423  0.00  0.00    +0.000 HD
ATOM     23  H   UNL     1      -0.850  12.304  23.834  0.00  0.00    +0.000 HD
ENDBRANCH  17  21
ENDBRANCH   1  18
TORSDOF 3
ENDMDL
MODEL 4
REMARK VINA RESULT:      -6.5      1.577      1.941
REMARK  Name = 
REMARK  6 active torsions:
REMARK  status: ('A' for Active; 'I' for Inactive)
REMARK    1  A    between atoms: C_1  and  C_2
REMARK    2  A    between atoms: C_4  and  N_5
REMARK    3  A    between atoms: C_6  and  C_7
REMARK    4  A    between atoms: C_7  and  C_9
REMARK    5  A    between atoms: C_12  and  C_13
REMARK    6  A    between atoms: C_20  and  C_21
REMARK                            x       y       z     vdW  Elec       q    Type
REMARK                         _______ _______ _______ _____ _____    ______ ____
ROOT
ATOM      1  C   UNL     1      -1.247  12.324  19.135  0.00  0.00    +0.000 C 
ATOM      2  O   UNL     1      -0.711  13.376  18.785  0.00  0.00    +0.000 OA
ENDROOT
BRANCH   1   3
ATOM      3  C   UNL     1      -0.384  11.128  19.418  0.00  0.00    +0.000 A 
ATOM      4  C   UNL     1       0.353  10.594  18.349  0.00  0.00    +0.000 A 
ATOM      5  C   UNL     1       1.117   9.447  18.520  0.00  0.00    +0.000 A 
ATOM      6  C   UNL     1       1.224   8.849  19.781  0.00  0.00    +0.000 A 
ATOM      7  C   UNL     1       2.077   7.608  19.899  0.00  0.00    +0.000 C 
ATOM      8  C   UNL     1       0.565   9.420  20.900  0.00  0.00    +0.000 A 
ATOM      9  C   UNL     1       0.714   8.880  22.200  0.00  0.00    +0.000 A 
ATOM     10  C   UNL     1       0.076   9.423  23.308  0.00  0.00    +0.000 A 
ATOM     11  C   UNL     1      -0.757  10.515  23.148  0.00  0.00    +0.000 A 
ATOM     12  C   UNL     1      -0.934  11.063  21.878  0.00  0.00    +0.000 A 
ATOM     13  C   UNL     1      -0.273  10.563  20.723  0.00  0.00    +0.000 A 
ENDBRANCH   1   3
BRANCH   1  18
ATOM     14  C   UNL     1      -6.172  11.018  18.099  0.00  0.00    +0.000 C 
ATOM     15  C   UNL     1      -4.950  11.620  18.719  0.00  0.00    +0.000 A 
ATOM     16  S   UNL     1      -5.123  12.775  19.954  0.00  0.00    +0.000 S 
ATOM     17  C   UNL     1      -3.442  12.997  20.087  0.00  0.00    +0.000 A 
ATOM     18  C   UNL     1      -2.724  12.215  19.189  0.00  0.00    +0.000 A 
ATOM     19  C   UNL     1      -3.621  11.352  18.423  0.00  0.00    +0.000 A 
ATOM     20  C   UNL     1      -3.229  10.306  17.422  0.00  0.00    +0.000 C 
BRANCH  17  21
ATOM     21  N   UNL     1      -2.947  13.873  20.994  0.00  0.00    +0.000 N 
ATOM     22  H   UNL     1      -3.220  13.766  21.965  0.00  0.00    +0.000 HD
ATOM     23  H   UNL     1      -1.971  14.158  20.876  0.00  0.00    +0.000 HD
ENDBRANCH  17  21
ENDBRANCH   1  18
TORSDOF 3
ENDMDL
MODEL 5
REMARK VINA RESULT:      -6.4      6.757      9.881
REMARK  Name = 
REMARK  6 active torsions:
REMARK  status: ('A' for Active; 'I' for Inactive)
REMARK    1  A    between atoms: C_1  and  C_2
REMARK    2  A    between atoms: C_4  and  N_5
REMARK    3  A    between atoms: C_6  and  C_7
REMARK    4  A    between atoms: C_7  and  C_9
REMARK    5  A    between atoms: C_12  and  C_13
REMARK    6  A    between atoms: C_20  and  C_21
REMARK                            x       y       z     vdW  Elec       q    Type
REMARK                         _______ _______ _______ _____ _____    ______ ____
ROOT
ATOM      1  C   UNL     1       6.300   4.627  17.976  0.00  0.00    +0.000 C 
ATOM      2  O   UNL     1       7.301   4.549  18.690  0.00  0.00    +0.000 OA
ENDROOT
BRANCH   1   3
ATOM      3  C   UNL     1       4.945   4.606  18.620  0.00  0.00    +0.000 A 
ATOM      4  C   UNL     1       4.627   3.500  19.425  0.00  0.00    +0.000 A 
ATOM      5  C   UNL     1       3.367   3.378  19.995  0.00  0.00    +0.000 A 
ATOM      6  C   UNL     1       2.418   4.396  19.839  0.00  0.00    +0.000 A 
ATOM      7  C   UNL     1       1.070   4.204  20.492  0.00  0.00    +0.000 C 
ATOM      8  C   UNL     1       2.742   5.569  19.110  0.00  0.00    +0.000 A 
ATOM      9  C   UNL     1       1.830   6.644  18.997  0.00  0.00    +0.000 A 
ATOM     10  C   UNL     1       2.127   7.800  18.285  0.00  0.00    +0.000 A 
ATOM     11  C   UNL     1       3.345   7.908  17.638  0.00  0.00    +0.000 A 
ATOM     12  C   UNL     1       4.260   6.861  17.720  0.00  0.00    +0.000 A 
ATOM     13  C   UNL     1       4.013   5.676  18.467  0.00  0.00    +0.000 A 
ENDBRANCH   1   3
BRANCH   1  18
ATOM     14  C   UNL     1       6.012   3.353  12.944  0.00  0.00    +0.000 C 
ATOM     15  C   UNL     1       6.297   4.072  14.224  0.00  0.00    +0.000 A 
ATOM     16  S   UNL     1       7.252   5.478  14.198  0.00  0.00    +0.000 S 
ATOM     17  C   UNL     1       7.168   5.659  15.887  0.00  0.00    +0.000 A 
ATOM     18  C   UNL     1       6.431   4.651  16.500  0.00  0.00    +0.000 A 
ATOM     19  C   UNL     1       5.862   3.748  15.502  0.00  0.00    +0.000 A 
ATOM     20  C   UNL     1       4.939   2.593  15.754  0.00  0.00    +0.000 C 
BRANCH  17  21
ATOM     21  N   UNL     1       7.793   6.701  16.486  0.00  0.00    +0.000 N 
ATOM     22  H   UNL     1       8.626   7.079  16.047  0.00  0.00    +0.000 HD
ATOM     23  H   UNL     1       7.196   7.418  16.909  0.00  0.00    +0.000 HD
ENDBRANCH  17  21
ENDBRANCH   1  18
TORSDOF 3
ENDMDL
MODEL 6
REMARK VINA RESULT:      -6.4      2.827      3.987
REMARK  Name = 
REMARK  6 active torsions:
REMARK  status: ('A' for Active; 'I' for Inactive)
REMARK    1  A    between atoms: C_1  and  C_2
REMARK    2  A    between atoms: C_4  and  N_5
REMARK    3  A    between atoms: C_6  and  C_7
REMARK    4  A    between atoms: C_7  and  C_9
REMARK    5  A    between atoms: C_12  and  C_13
REMARK    6  A    between atoms: C_20  and  C_21
REMARK                            x       y       z     vdW  Elec       q    Type
REMARK                         _______ _______ _______ _____ _____    ______ ____
ROOT
ATOM      1  C   UNL     1      -0.410  12.162  18.620  0.00  0.00    +0.000 C 
ATOM      2  O   UNL     1      -1.432  12.081  17.938  0.00  0.00    +0.000 OA
ENDROOT
BRANCH   1   3
ATOM      3  C   UNL     1       0.230  10.901  19.124  0.00  0.00    +0.000 A 
ATOM      4  C   UNL     1       1.028  10.175  18.224  0.00  0.00    +0.000 A 
ATOM      5  C   UNL     1       1.593   8.964  18.598  0.00  0.00    +0.000 A 
ATOM      6  C   UNL     1       1.439   8.484  19.904  0.00  0.00    +0.000 A 
ATOM      7  C   UNL     1       2.087   7.164  20.248  0.00  0.00    +0.000 C 
ATOM      8  C   UNL     1       0.717   9.242  20.863  0.00  0.00    +0.000 A 
ATOM      9  C   UNL     1       0.607   8.817  22.209  0.00  0.00    +0.000 A 
ATOM     10  C   UNL     1      -0.097   9.543  23.161  0.00  0.00    +0.000 A 
ATOM     11  C   UNL     1      -0.740  10.711  22.792  0.00  0.00    +0.000 A 
ATOM     12  C   UNL     1      -0.661  11.148  21.470  0.00  0.00    +0.000 A 
ATOM     13  C   UNL     1       0.079  10.457  20.472  0.00  0.00    +0.000 A 
ENDBRANCH   1   3
BRANCH   1  18
ATOM     14  C   UNL     1       2.802  16.157  19.490  0.00  0.00    +0.000 C 
ATOM     15  C   UNL     1       1.584  15.292  19.401  0.00  0.00    +0.000 A 
ATOM     16  S   UNL     1       0.121  15.837  20.072  0.00  0.00    +0.000 S 
ATOM     17  C   UNL     1      -0.695  14.406  19.650  0.00  0.00    +0.000 A 
ATOM     18  C   UNL     1       0.129  13.487  19.011  0.00  0.00    +0.000 A 
ATOM     19  C   UNL     1       1.464  14.043  18.808  0.00  0.00    +0.000 A 
ATOM     20  C   UNL     1       2.608  13.400  18.080  0.00  0.00    +0.000 C 
BRANCH  17  21
ATOM     21  N   UNL     1      -2.007  14.263  19.956  0.00  0.00    +0.000 N 
ATOM     22  H   UNL     1      -2.287  13.463  20.513  0.00  0.00    +0.000 HD
ATOM     23  H   UNL     1      -2.525  15.117  20.183  0.00  0.00    +0.000 HD
ENDBRANCH  17  21
ENDBRANCH   1  18
TORSDOF 3
ENDMDL
MODEL 7
REMARK VINA RESULT:      -6.4      6.617      9.353
REMARK  Name = 
REMARK  6 active torsions:
REMARK  status: ('A' for Active; 'I' for Inactive)
REMARK    1  A    between atoms: C_1  and  C_2
REMARK    2  A    between atoms: C_4  and  N_5
REMARK    3  A    between atoms: C_6  and  C_7
REMARK    4  A    between atoms: C_7  and  C_9
REMARK    5  A    between atoms: C_12  and  C_13
REMARK    6  A    between atoms: C_20  and  C_21
REMARK                            x       y       z     vdW  Elec       q    Type
REMARK                         _______ _______ _______ _____ _____    ______ ____
ROOT
ATOM      1  C   UNL     1       3.719   3.104  17.953  0.00  0.00    +0.000 C 
ATOM      2  O   UNL     1       3.518   1.897  17.811  0.00  0.00    +0.000 OA
ENDROOT
BRANCH   1   3
ATOM      3  C   UNL     1       4.709   3.786  17.054  0.00  0.00    +0.000 A 
ATOM      4  C   UNL     1       4.549   3.618  15.669  0.00  0.00    +0.000 A 
ATOM      5  C   UNL     1       5.467   4.160  14.780  0.00  0.00    +0.000 A 
ATOM      6  C   UNL     1       6.525   4.948  15.248  0.00  0.00    +0.000 A 
ATOM      7  C   UNL     1       7.484   5.515  14.227  0.00  0.00    +0.000 C 
ATOM      8  C   UNL     1       6.659   5.215  16.636  0.00  0.00    +0.000 A 
ATOM      9  C   UNL     1       7.674   6.067  17.130  0.00  0.00    +0.000 A 
ATOM     10  C   UNL     1       7.823   6.337  18.485  0.00  0.00    +0.000 A 
ATOM     11  C   UNL     1       6.971   5.741  19.397  0.00  0.00    +0.000 A 
ATOM     12  C   UNL     1       5.969   4.886  18.942  0.00  0.00    +0.000 A 
ATOM     13  C   UNL     1       5.757   4.610  17.563  0.00  0.00    +0.000 A 
ENDBRANCH   1   3
BRANCH   1  18
ATOM     14  C   UNL     1       1.404   6.846  20.723  0.00  0.00    +0.000 C 
ATOM     15  C   UNL     1       2.012   5.546  20.300  0.00  0.00    +0.000 A 
ATOM     16  S   UNL     1       2.224   4.310  21.447  0.00  0.00    +0.000 S 
ATOM     17  C   UNL     1       2.951   3.274  20.311  0.00  0.00    +0.000 A 
ATOM     18  C   UNL     1       3.061   3.851  19.051  0.00  0.00    +0.000 A 
ATOM     19  C   UNL     1       2.444   5.176  19.034  0.00  0.00    +0.000 A 
ATOM     20  C   UNL     1       2.279   6.079  17.847  0.00  0.00    +0.000 C 
BRANCH  17  21
ATOM     21  N   UNL     1       3.358   2.038  20.689  0.00  0.00    +0.000 N 
ATOM     22  H   UNL     1       2.686   1.279  20.656  0.00  0.00    +0.000 HD
ATOM     23  H   UNL     1       4.302   1.757  20.408  0.00  0.00    +0.000 HD
ENDBRANCH  17  21
ENDBRANCH   1  18
TORSDOF 3
ENDMDL
MODEL 8
REMARK VINA RESULT:      -6.3      6.457      9.436
REMARK  Name = 
REMARK  6 active torsions:
REMARK  status: ('A' for Active; 'I' for Inactive)
REMARK    1  A    between atoms: C_1  and  C_2
REMARK    2  A    between atoms: C_4  and  N_5
REMARK    3  A    between atoms: C_6  and  C_7
REMARK    4  A    between atoms: C_7  and  C_9
REMARK    5  A    between atoms: C_12  and  C_13
REMARK    6  A    between atoms: C_20  and  C_21
REMARK                            x       y       z     vdW  Elec       q    Type
REMARK                         _______ _______ _______ _____ _____    ______ ____
ROOT
ATOM      1  C   UNL     1       5.649   5.040  18.626  0.00  0.00    +0.000 C 
ATOM      2  O   UNL     1       6.548   4.730  19.408  0.00  0.00    +0.000 OA
ENDROOT
BRANCH   1   3
ATOM      3  C   UNL     1       4.306   5.424  19.178  0.00  0.00    +0.000 A 
ATOM      4  C   UNL     1       3.861   6.735  18.943  0.00  0.00    +0.000 A 
ATOM      5  C   UNL     1       2.662   7.182  19.483  0.00  0.00    +0.000 A 
ATOM      6  C   UNL     1       1.842   6.308  20.206  0.00  0.00    +0.000 A 
ATOM      7  C   UNL     1       0.547   6.856  20.758  0.00  0.00    +0.000 C 
ATOM      8  C   UNL     1       2.221   4.951  20.379  0.00  0.00    +0.000 A 
ATOM      9  C   UNL     1       1.378   4.028  21.041  0.00  0.00    +0.000 A 
ATOM     10  C   UNL     1       1.732   2.696  21.223  0.00  0.00    +0.000 A 
ATOM     11  C   UNL     1       2.959   2.249  20.768  0.00  0.00    +0.000 A 
ATOM     12  C   UNL     1       3.817   3.137  20.122  0.00  0.00    +0.000 A 
ATOM     13  C   UNL     1       3.480   4.498  19.882  0.00  0.00    +0.000 A 
ENDBRANCH   1   3
BRANCH   1  18
ATOM     14  C   UNL     1       5.262   3.664  13.627  0.00  0.00    +0.000 C 
ATOM     15  C   UNL     1       5.682   4.326  14.901  0.00  0.00    +0.000 A 
ATOM     16  S   UNL     1       7.023   5.370  14.897  0.00  0.00    +0.000 S 
ATOM     17  C   UNL     1       6.905   5.653  16.570  0.00  0.00    +0.000 A 
ATOM     18  C   UNL     1       5.862   4.949  17.162  0.00  0.00    +0.000 A 
ATOM     19  C   UNL     1       5.099   4.213  16.156  0.00  0.00    +0.000 A 
ATOM     20  C   UNL     1       3.853   3.409  16.380  0.00  0.00    +0.000 C 
BRANCH  17  21
ATOM     21  N   UNL     1       7.787   6.483  17.178  0.00  0.00    +0.000 N 
ATOM     22  H   UNL     1       8.490   6.939  16.607  0.00  0.00    +0.000 HD
ATOM     23  H   UNL     1       7.420   7.080  17.924  0.00  0.00    +0.000 HD
ENDBRANCH  17  21
ENDBRANCH   1  18
TORSDOF 3
ENDMDL
MODEL 9
REMARK VINA RESULT:      -6.3      3.290      4.542
REMARK  Name = 
REMARK  6 active torsions:
REMARK  status: ('A' for Active; 'I' for Inactive)
REMARK    1  A    between atoms: C_1  and  C_2
REMARK    2  A    between atoms: C_4  and  N_5
REMARK    3  A    between atoms: C_6  and  C_7
REMARK    4  A    between atoms: C_7  and  C_9
REMARK    5  A    between atoms: C_12  and  C_13
REMARK    6  A    between atoms: C_20  and  C_21
REMARK                            x       y       z     vdW  Elec       q    Type
REMARK                         _______ _______ _______ _____ _____    ______ ____
ROOT
ATOM      1  C   UNL     1      -2.034  12.900  23.102  0.00  0.00    +0.000 C 
ATOM      2  O   UNL     1      -1.474  13.858  23.637  0.00  0.00    +0.000 OA
ENDROOT
BRANCH   1   3
ATOM      3  C   UNL     1      -1.196  11.784  22.550  0.00  0.00    +0.000 A 
ATOM      4  C   UNL     1      -1.220  10.558  23.234  0.00  0.00    +0.000 A 
ATOM      5  C   UNL     1      -0.416   9.503  22.823  0.00  0.00    +0.000 A 
ATOM      6  C   UNL     1       0.374   9.621  21.673  0.00  0.00    +0.000 A 
ATOM      7  C   UNL     1       1.219   8.434  21.277  0.00  0.00    +0.000 C 
ATOM      8  C   UNL     1       0.347  10.816  20.908  0.00  0.00    +0.000 A 
ATOM      9  C   UNL     1       1.079  10.938  19.703  0.00  0.00    +0.000 A 
ATOM     10  C   UNL     1       1.068  12.099  18.940  0.00  0.00    +0.000 A 
ATOM     11  C   UNL     1       0.341  13.193  19.375  0.00  0.00    +0.000 A 
ATOM     12  C   UNL     1      -0.380  13.109  20.565  0.00  0.00    +0.000 A 
ATOM     13  C   UNL     1      -0.427  11.928  21.357  0.00  0.00    +0.000 A 
ENDBRANCH   1   3
BRANCH   1  18
ATOM     14  C   UNL     1      -6.784  12.969  20.988  0.00  0.00    +0.000 C 
ATOM     15  C   UNL     1      -5.653  12.922  21.966  0.00  0.00    +0.000 A 
ATOM     16  S   UNL     1      -5.985  12.988  23.632  0.00  0.00    +0.000 S 
ATOM     17  C   UNL     1      -4.335  12.941  24.041  0.00  0.00    +0.000 A 
ATOM     18  C   UNL     1      -3.506  12.893  22.926  0.00  0.00    +0.000 A 
ATOM     19  C   UNL     1      -4.295  12.817  21.699  0.00  0.00    +0.000 A 
ATOM     20  C   UNL     1      -3.774  12.662  20.300  0.00  0.00    +0.000 C 
BRANCH  17  21
ATOM     21  N   UNL     1      -3.963  12.964  25.344  0.00  0.00    +0.000 N 
ATOM     22  H   UNL     1      -4.571  13.427  26.011  0.00  0.00    +0.000 HD
ATOM     23  H   UNL     1      -3.525  12.115  25.714  0.00  0.00    +0.000 HD
ENDBRANCH  17  21
ENDBRANCH   1  18
TORSDOF 3
ENDMDL
