MODEL 1
REMARK VINA RESULT:      -9.3      0.000      0.000
REMARK  Name = 
REMARK  4 active torsions:
REMARK  status: ('A' for Active; 'I' for Inactive)
REMARK    1  A    between atoms: C_1  and  C_2
REMARK    2  A    between atoms: C_6  and  C_7
REMARK    3  A    between atoms: C_12  and  C_13
REMARK    4  A    between atoms: C_15  and  O_16
REMARK                            x       y       z     vdW  Elec       q    Type
REMARK                         _______ _______ _______ _____ _____    ______ ____
ROOT
ATOM      1  C   UNL     1       1.533   3.338  21.043  0.00  0.00    +0.000 C 
ATOM      2  C   UNL     1       2.165   3.356  19.707  0.00  0.00    +0.000 C 
ATOM      3  C   UNL     1       3.258   3.906  19.154  0.00  0.00    +0.000 C 
ATOM      4  C   UNL     1       4.344   4.858  19.680  0.00  0.00    +0.000 C 
ATOM      5  C   UNL     1       5.376   5.080  18.528  0.00  0.00    +0.000 C 
ATOM      6  C   UNL     1       6.830   5.749  18.724  0.00  0.00    +0.000 C 
ATOM      7  C   UNL     1       7.942   6.827  18.412  0.00  0.00    +0.000 C 
ATOM      8  C   UNL     1       7.416   4.852  17.579  0.00  0.00    +0.000 C 
ATOM      9  O   UNL     1       8.327   4.045  17.796  0.00  0.00    +0.000 OA
ATOM     10  C   UNL     1       6.773   4.886  16.193  0.00  0.00    +0.000 C 
ATOM     11  C   UNL     1       5.722   5.724  16.136  0.00  0.00    +0.000 C 
ATOM     12  C   UNL     1       4.643   5.594  17.222  0.00  0.00    +0.000 C 
ATOM     13  C   UNL     1       3.969   6.976  17.457  0.00  0.00    +0.000 C 
ATOM     14  C   UNL     1       3.532   4.606  16.760  0.00  0.00    +0.000 C 
ATOM     15  C   UNL     1       3.330   3.438  17.728  0.00  0.00    +0.000 C 
ATOM     16  O   UNL     1       2.118   2.789  17.459  0.00  0.00    +0.000 OA
ATOM     17  C   UNL     1       1.469   2.623  18.630  0.00  0.00    +0.000 C 
ATOM     18  O   UNL     1       0.440   1.989  18.771  0.00  0.00    +0.000 OA
ENDROOT
BRANCH  15  19
ATOM     19  O   UNL     1       4.382   2.494  17.563  0.00  0.00    +0.000 OA
ATOM     20  H   UNL     1       4.526   2.052  18.415  0.00  0.00    +0.000 HD
ENDBRANCH  15  19
TORSDOF 1
ENDMDL
MODEL 2
REMARK VINA RESULT:      -8.2      1.120      1.250
REMARK  Name = 
REMARK  4 active torsions:
REMARK  status: ('A' for Active; 'I' for Inactive)
REMARK    1  A    between atoms: C_1  and  C_2
REMARK    2  A    between atoms: C_6  and  C_7
REMARK    3  A    between atoms: C_12  and  C_13
REMARK    4  A    between atoms: C_15  and  O_16
REMARK                            x       y       z     vdW  Elec       q    Type
REMARK                         _______ _______ _______ _____ _____    ______ ____
ROOT
ATOM      1  C   UNL     1       1.060   4.446  20.290  0.00  0.00    +0.000 C 
ATOM      2  C   UNL     1       2.185   3.877  19.518  0.00  0.00    +0.000 C 
ATOM      3  C   UNL     1       3.390   4.297  19.100  0.00  0.00    +0.000 C 
ATOM      4  C   UNL     1       4.130   5.642  19.189  0.00  0.00    +0.000 C 
ATOM      5  C   UNL     1       5.537   5.450  18.537  0.00  0.00    +0.000 C 
ATOM      6  C   UNL     1       6.758   6.493  18.681  0.00  0.00    +0.000 C 
ATOM      7  C   UNL     1       7.863   7.462  18.104  0.00  0.00    +0.000 C 
ATOM      8  C   UNL     1       7.794   5.316  18.616  0.00  0.00    +0.000 C 
ATOM      9  O   UNL     1       8.561   5.081  19.556  0.00  0.00    +0.000 OA
ATOM     10  C   UNL     1       7.778   4.367  17.418  0.00  0.00    +0.000 C 
ATOM     11  C   UNL     1       6.816   4.678  16.530  0.00  0.00    +0.000 C 
ATOM     12  C   UNL     1       5.391   4.889  17.063  0.00  0.00    +0.000 C 
ATOM     13  C   UNL     1       4.634   5.894  16.148  0.00  0.00    +0.000 C 
ATOM     14  C   UNL     1       4.602   3.547  17.035  0.00  0.00    +0.000 C 
ATOM     15  C   UNL     1       4.058   3.144  18.407  0.00  0.00    +0.000 C 
ATOM     16  O   UNL     1       3.087   2.143  18.270  0.00  0.00    +0.000 OA
ATOM     17  C   UNL     1       2.019   2.499  19.014  0.00  0.00    +0.000 C 
ATOM     18  O   UNL     1       1.045   1.797  19.212  0.00  0.00    +0.000 OA
ENDROOT
BRANCH  15  19
ATOM     19  O   UNL     1       5.116   2.625  19.205  0.00  0.00    +0.000 OA
ATOM     20  H   UNL     1       5.412   3.328  19.806  0.00  0.00    +0.000 HD
ENDBRANCH  15  19
TORSDOF 1
ENDMDL
MODEL 3
REMARK VINA RESULT:      -8.1      1.789      5.420
REMARK  Name = 
REMARK  4 active torsions:
REMARK  status: ('A' for Active; 'I' for Inactive)
REMARK    1  A    between atoms: C_1  and  C_2
REMARK    2  A    between atoms: C_6  and  C_7
REMARK    3  A    between atoms: C_12  and  C_13
REMARK    4  A    between atoms: C_15  and  O_16
REMARK                            x       y       z     vdW  Elec       q    Type
REMARK                         _______ _______ _______ _____ _____    ______ ____
ROOT
ATOM      1  C   UNL     1       7.974   5.155  18.235  0.00  0.00    +0.000 C 
ATOM      2  C   UNL     1       6.601   4.953  17.725  0.00  0.00    +0.000 C 
ATOM      3  C   UNL     1       5.432   4.521  18.225  0.00  0.00    +0.000 C 
ATOM      4  C   UNL     1       5.008   3.959  19.591  0.00  0.00    +0.000 C 
ATOM      5  C   UNL     1       3.471   3.686  19.533  0.00  0.00    +0.000 C 
ATOM      6  C   UNL     1       2.549   3.390  20.823  0.00  0.00    +0.000 C 
ATOM      7  C   UNL     1       1.537   2.517  21.664  0.00  0.00    +0.000 C 
ATOM      8  C   UNL     1       1.328   4.093  20.133  0.00  0.00    +0.000 C 
ATOM      9  O   UNL     1       0.799   5.095  20.626  0.00  0.00    +0.000 OA
ATOM     10  C   UNL     1       0.854   3.604  18.765  0.00  0.00    +0.000 C 
ATOM     11  C   UNL     1       1.595   2.581  18.300  0.00  0.00    +0.000 C 
ATOM     12  C   UNL     1       3.123   2.742  18.310  0.00  0.00    +0.000 C 
ATOM     13  C   UNL     1       3.794   1.347  18.463  0.00  0.00    +0.000 C 
ATOM     14  C   UNL     1       3.608   3.348  16.961  0.00  0.00    +0.000 C 
ATOM     15  C   UNL     1       4.402   4.645  17.138  0.00  0.00    +0.000 C 
ATOM     16  O   UNL     1       5.096   4.954  15.961  0.00  0.00    +0.000 OA
ATOM     17  C   UNL     1       6.367   5.256  16.300  0.00  0.00    +0.000 C 
ATOM     18  O   UNL     1       7.208   5.683  15.531  0.00  0.00    +0.000 OA
ENDROOT
BRANCH  15  19
ATOM     19  O   UNL     1       3.507   5.716  17.416  0.00  0.00    +0.000 OA
ATOM     20  H   UNL     1       2.628   5.338  17.582  0.00  0.00    +0.000 HD
ENDBRANCH  15  19
TORSDOF 1
ENDMDL
MODEL 4
REMARK VINA RESULT:      -8.0      2.063      5.419
REMARK  Name = 
REMARK  4 active torsions:
REMARK  status: ('A' for Active; 'I' for Inactive)
REMARK    1  A    between atoms: C_1  and  C_2
REMARK    2  A    between atoms: C_6  and  C_7
REMARK    3  A    between atoms: C_12  and  C_13
REMARK    4  A    between atoms: C_15  and  O_16
REMARK                            x       y       z     vdW  Elec       q    Type
REMARK                         _______ _______ _______ _____ _____    ______ ____
ROOT
ATOM      1  C   UNL     1       6.361   3.832  15.068  0.00  0.00    +0.000 C 
ATOM      2  C   UNL     1       5.915   4.539  16.288  0.00  0.00    +0.000 C 
ATOM      3  C   UNL     1       4.972   4.359  17.226  0.00  0.00    +0.000 C 
ATOM      4  C   UNL     1       3.848   3.328  17.413  0.00  0.00    +0.000 C 
ATOM      5  C   UNL     1       3.124   3.657  18.757  0.00  0.00    +0.000 C 
ATOM      6  C   UNL     1       2.094   2.665  19.504  0.00  0.00    +0.000 C 
ATOM      7  C   UNL     1       0.695   2.299  20.138  0.00  0.00    +0.000 C 
ATOM      8  C   UNL     1       2.554   3.212  20.901  0.00  0.00    +0.000 C 
ATOM      9  O   UNL     1       3.074   2.472  21.743  0.00  0.00    +0.000 OA
ATOM     10  C   UNL     1       2.466   4.711  21.187  0.00  0.00    +0.000 C 
ATOM     11  C   UNL     1       1.987   5.406  20.139  0.00  0.00    +0.000 C 
ATOM     12  C   UNL     1       2.628   5.161  18.764  0.00  0.00    +0.000 C 
ATOM     13  C   UNL     1       1.578   5.416  17.645  0.00  0.00    +0.000 C 
ATOM     14  C   UNL     1       3.805   6.154  18.535  0.00  0.00    +0.000 C 
ATOM     15  C   UNL     1       5.133   5.451  18.245  0.00  0.00    +0.000 C 
ATOM     16  O   UNL     1       6.058   6.361  17.714  0.00  0.00    +0.000 OA
ATOM     17  C   UNL     1       6.618   5.792  16.627  0.00  0.00    +0.000 C 
ATOM     18  O   UNL     1       7.546   6.263  15.997  0.00  0.00    +0.000 OA
ENDROOT
BRANCH  15  19
ATOM     19  O   UNL     1       5.671   4.931  19.456  0.00  0.00    +0.000 OA
ATOM     20  H   UNL     1       6.233   5.616  19.853  0.00  0.00    +0.000 HD
ENDBRANCH  15  19
TORSDOF 1
ENDMDL
MODEL 5
REMARK VINA RESULT:      -7.8      1.981      5.344
REMARK  Name = 
REMARK  4 active torsions:
REMARK  status: ('A' for Active; 'I' for Inactive)
REMARK    1  A    between atoms: C_1  and  C_2
REMARK    2  A    between atoms: C_6  and  C_7
REMARK    3  A    between atoms: C_12  and  C_13
REMARK    4  A    between atoms: C_15  and  O_16
REMARK                            x       y       z     vdW  Elec       q    Type
REMARK                         _______ _______ _______ _____ _____    ______ ____
ROOT
ATOM      1  C   UNL     1       5.919   3.788  12.927  0.00  0.00    +0.000 C 
ATOM      2  C   UNL     1       6.184   4.308  14.286  0.00  0.00    +0.000 C 
ATOM      3  C   UNL     1       5.623   4.187  15.500  0.00  0.00    +0.000 C 
ATOM      4  C   UNL     1       4.363   3.475  16.018  0.00  0.00    +0.000 C 
ATOM      5  C   UNL     1       4.303   3.687  17.564  0.00  0.00    +0.000 C 
ATOM      6  C   UNL     1       3.334   2.867  18.559  0.00  0.00    +0.000 C 
ATOM      7  C   UNL     1       2.206   2.756  19.658  0.00  0.00    +0.000 C 
ATOM      8  C   UNL     1       4.403   2.959  19.704  0.00  0.00    +0.000 C 
ATOM      9  O   UNL     1       4.912   1.945  20.193  0.00  0.00    +0.000 OA
ATOM     10  C   UNL     1       4.916   4.330  20.144  0.00  0.00    +0.000 C 
ATOM     11  C   UNL     1       4.357   5.335  19.446  0.00  0.00    +0.000 C 
ATOM     12  C   UNL     1       4.362   5.231  17.913  0.00  0.00    +0.000 C 
ATOM     13  C   UNL     1       3.133   5.989  17.334  0.00  0.00    +0.000 C 
ATOM     14  C   UNL     1       5.640   5.902  17.332  0.00  0.00    +0.000 C 
ATOM     15  C   UNL     1       6.476   4.953  16.471  0.00  0.00    +0.000 C 
ATOM     16  O   UNL     1       7.401   5.677  15.707  0.00  0.00    +0.000 OA
ATOM     17  C   UNL     1       7.329   5.228  14.437  0.00  0.00    +0.000 C 
ATOM     18  O   UNL     1       8.079   5.560  13.539  0.00  0.00    +0.000 OA
ENDROOT
BRANCH  15  19
ATOM     19  O   UNL     1       7.201   4.061  17.312  0.00  0.00    +0.000 OA
ATOM     20  H   UNL     1       6.627   3.304  17.512  0.00  0.00    +0.000 HD
ENDBRANCH  15  19
TORSDOF 1
ENDMDL
MODEL 6
REMARK VINA RESULT:      -7.6      1.702      5.432
REMARK  Name = 
REMARK  4 active torsions:
REMARK  status: ('A' for Active; 'I' for Inactive)
REMARK    1  A    between atoms: C_1  and  C_2
REMARK    2  A    between atoms: C_6  and  C_7
REMARK    3  A    between atoms: C_12  and  C_13
REMARK    4  A    between atoms: C_15  and  O_16
REMARK                            x       y       z     vdW  Elec       q    Type
REMARK                         _______ _______ _______ _____ _____    ______ ____
ROOT
ATOM      1  C   UNL     1       5.963   3.699  14.816  0.00  0.00    +0.000 C 
ATOM      2  C   UNL     1       5.818   4.054  16.244  0.00  0.00    +0.000 C 
ATOM      3  C   UNL     1       4.835   4.028  17.157  0.00  0.00    +0.000 C 
ATOM      4  C   UNL     1       3.342   3.664  17.096  0.00  0.00    +0.000 C 
ATOM      5  C   UNL     1       2.763   3.803  18.540  0.00  0.00    +0.000 C 
ATOM      6  C   UNL     1       1.329   3.229  19.005  0.00  0.00    +0.000 C 
ATOM      7  C   UNL     1      -0.119   3.376  19.618  0.00  0.00    +0.000 C 
ATOM      8  C   UNL     1       1.884   2.964  20.448  0.00  0.00    +0.000 C 
ATOM      9  O   UNL     1       1.918   1.824  20.926  0.00  0.00    +0.000 OA
ATOM     10  C   UNL     1       2.505   4.116  21.238  0.00  0.00    +0.000 C 
ATOM     11  C   UNL     1       2.501   5.272  20.548  0.00  0.00    +0.000 C 
ATOM     12  C   UNL     1       3.051   5.250  19.114  0.00  0.00    +0.000 C 
ATOM     13  C   UNL     1       2.343   6.347  18.267  0.00  0.00    +0.000 C 
ATOM     14  C   UNL     1       4.574   5.574  19.117  0.00  0.00    +0.000 C 
ATOM     15  C   UNL     1       5.420   4.478  18.466  0.00  0.00    +0.000 C 
ATOM     16  O   UNL     1       6.705   4.959  18.185  0.00  0.00    +0.000 OA
ATOM     17  C   UNL     1       7.007   4.614  16.916  0.00  0.00    +0.000 C 
ATOM     18  O   UNL     1       8.093   4.775  16.392  0.00  0.00    +0.000 OA
ENDROOT
BRANCH  15  19
ATOM     19  O   UNL     1       5.546   3.379  19.362  0.00  0.00    +0.000 OA
ATOM     20  H   UNL     1       4.705   2.893  19.362  0.00  0.00    +0.000 HD
ENDBRANCH  15  19
TORSDOF 1
ENDMDL
MODEL 7
REMARK VINA RESULT:      -6.8      1.135      1.251
REMARK  Name = 
REMARK  4 active torsions:
REMARK  status: ('A' for Active; 'I' for Inactive)
REMARK    1  A    between atoms: C_1  and  C_2
REMARK    2  A    between atoms: C_6  and  C_7
REMARK    3  A    between atoms: C_12  and  C_13
REMARK    4  A    between atoms: C_15  and  O_16
REMARK                            x       y       z     vdW  Elec       q    Type
REMARK                         _______ _______ _______ _____ _____    ______ ____
ROOT
ATOM      1  C   UNL     1       3.298   2.533  21.522  0.00  0.00    +0.000 C 
ATOM      2  C   UNL     1       3.215   2.998  20.121  0.00  0.00    +0.000 C 
ATOM      3  C   UNL     1       3.897   3.846  19.336  0.00  0.00    +0.000 C 
ATOM      4  C   UNL     1       5.077   4.800  19.582  0.00  0.00    +0.000 C 
ATOM      5  C   UNL     1       5.428   5.480  18.220  0.00  0.00    +0.000 C 
ATOM      6  C   UNL     1       6.781   6.310  17.938  0.00  0.00    +0.000 C 
ATOM      7  C   UNL     1       7.581   7.602  17.507  0.00  0.00    +0.000 C 
ATOM      8  C   UNL     1       6.773   5.848  16.439  0.00  0.00    +0.000 C 
ATOM      9  O   UNL     1       7.698   5.177  15.967  0.00  0.00    +0.000 OA
ATOM     10  C   UNL     1       5.546   6.129  15.572  0.00  0.00    +0.000 C 
ATOM     11  C   UNL     1       4.574   6.765  16.251  0.00  0.00    +0.000 C 
ATOM     12  C   UNL     1       4.148   6.181  17.607  0.00  0.00    +0.000 C 
ATOM     13  C   UNL     1       3.632   7.324  18.528  0.00  0.00    +0.000 C 
ATOM     14  C   UNL     1       2.977   5.173  17.414  0.00  0.00    +0.000 C 
ATOM     15  C   UNL     1       3.292   3.779  17.962  0.00  0.00    +0.000 C 
ATOM     16  O   UNL     1       2.116   3.027  18.080  0.00  0.00    +0.000 OA
ATOM     17  C   UNL     1       2.109   2.460  19.304  0.00  0.00    +0.000 C 
ATOM     18  O   UNL     1       1.289   1.648  19.690  0.00  0.00    +0.000 OA
ENDROOT
BRANCH  15  19
ATOM     19  O   UNL     1       4.162   3.100  17.064  0.00  0.00    +0.000 OA
ATOM     20  H   UNL     1       4.808   3.742  16.728  0.00  0.00    +0.000 HD
ENDBRANCH  15  19
TORSDOF 1
ENDMDL
MODEL 8
REMARK VINA RESULT:      -6.7      2.235      3.067
REMARK  Name = 
REMARK  4 active torsions:
REMARK  status: ('A' for Active; 'I' for Inactive)
REMARK    1  A    between atoms: C_1  and  C_2
REMARK    2  A    between atoms: C_6  and  C_7
REMARK    3  A    between atoms: C_12  and  C_13
REMARK    4  A    between atoms: C_15  and  O_16
REMARK                            x       y       z     vdW  Elec       q    Type
REMARK                         _______ _______ _______ _____ _____    ______ ____
ROOT
ATOM      1  C   UNL     1       0.848   2.266  18.730  0.00  0.00    +0.000 C 
ATOM      2  C   UNL     1       1.646   3.502  18.876  0.00  0.00    +0.000 C 
ATOM      3  C   UNL     1       2.701   4.058  18.258  0.00  0.00    +0.000 C 
ATOM      4  C   UNL     1       3.624   3.597  17.119  0.00  0.00    +0.000 C 
ATOM      5  C   UNL     1       4.642   4.749  16.841  0.00  0.00    +0.000 C 
ATOM      6  C   UNL     1       5.589   4.833  15.538  0.00  0.00    +0.000 C 
ATOM      7  C   UNL     1       6.989   4.935  14.814  0.00  0.00    +0.000 C 
ATOM      8  C   UNL     1       5.519   6.400  15.567  0.00  0.00    +0.000 C 
ATOM      9  O   UNL     1       5.039   7.040  14.625  0.00  0.00    +0.000 OA
ATOM     10  C   UNL     1       5.942   7.148  16.831  0.00  0.00    +0.000 C 
ATOM     11  C   UNL     1       6.334   6.315  17.813  0.00  0.00    +0.000 C 
ATOM     12  C   UNL     1       5.405   5.144  18.171  0.00  0.00    +0.000 C 
ATOM     13  C   UNL     1       6.250   3.956  18.714  0.00  0.00    +0.000 C 
ATOM     14  C   UNL     1       4.416   5.567  19.296  0.00  0.00    +0.000 C 
ATOM     15  C   UNL     1       2.949   5.394  18.899  0.00  0.00    +0.000 C 
ATOM     16  O   UNL     1       2.129   5.452  20.034  0.00  0.00    +0.000 OA
ATOM     17  C   UNL     1       1.272   4.411  19.977  0.00  0.00    +0.000 C 
ATOM     18  O   UNL     1       0.347   4.231  20.746  0.00  0.00    +0.000 OA
ENDROOT
BRANCH  15  19
ATOM     19  O   UNL     1       2.565   6.449  18.024  0.00  0.00    +0.000 OA
ATOM     20  H   UNL     1       1.606   6.575  18.108  0.00  0.00    +0.000 HD
ENDBRANCH  15  19
TORSDOF 1
ENDMDL
MODEL 9
REMARK VINA RESULT:      -6.4      3.007      4.507
REMARK  Name = 
REMARK  4 active torsions:
REMARK  status: ('A' for Active; 'I' for Inactive)
REMARK    1  A    between atoms: C_1  and  C_2
REMARK    2  A    between atoms: C_6  and  C_7
REMARK    3  A    between atoms: C_12  and  C_13
REMARK    4  A    between atoms: C_15  and  O_16
REMARK                            x       y       z     vdW  Elec       q    Type
REMARK                         _______ _______ _______ _____ _____    ______ ____
ROOT
ATOM      1  C   UNL     1       1.300   8.493  21.383  0.00  0.00    +0.000 C 
ATOM      2  C   UNL     1       1.790   7.932  20.105  0.00  0.00    +0.000 C 
ATOM      3  C   UNL     1       2.343   6.779  19.698  0.00  0.00    +0.000 C 
ATOM      4  C   UNL     1       2.791   5.504  20.429  0.00  0.00    +0.000 C 
ATOM      5  C   UNL     1       3.320   4.503  19.352  0.00  0.00    +0.000 C 
ATOM      6  C   UNL     1       3.600   2.938  19.623  0.00  0.00    +0.000 C 
ATOM      7  C   UNL     1       4.515   1.651  19.648  0.00  0.00    +0.000 C 
ATOM      8  C   UNL     1       3.202   2.593  18.145  0.00  0.00    +0.000 C 
ATOM      9  O   UNL     1       2.247   1.850  17.892  0.00  0.00    +0.000 OA
ATOM     10  C   UNL     1       3.931   3.280  16.991  0.00  0.00    +0.000 C 
ATOM     11  C   UNL     1       4.867   4.147  17.419  0.00  0.00    +0.000 C 
ATOM     12  C   UNL     1       4.455   5.179  18.480  0.00  0.00    +0.000 C 
ATOM     13  C   UNL     1       5.689   5.555  19.349  0.00  0.00    +0.000 C 
ATOM     14  C   UNL     1       3.952   6.483  17.794  0.00  0.00    +0.000 C 
ATOM     15  C   UNL     1       2.530   6.867  18.210  0.00  0.00    +0.000 C 
ATOM     16  O   UNL     1       2.261   8.195  17.850  0.00  0.00    +0.000 OA
ATOM     17  C   UNL     1       1.712   8.808  18.919  0.00  0.00    +0.000 C 
ATOM     18  O   UNL     1       1.252   9.934  18.913  0.00  0.00    +0.000 OA
ENDROOT
BRANCH  15  19
ATOM     19  O   UNL     1       1.595   6.030  17.537  0.00  0.00    +0.000 OA
ATOM     20  H   UNL     1       1.790   6.066  16.586  0.00  0.00    +0.000 HD
ENDBRANCH  15  19
TORSDOF 1
ENDMDL
