MODEL 1
REMARK VINA RESULT:      -6.9      0.000      0.000
REMARK  Name = 
REMARK  13 active torsions:
REMARK  status: ('A' for Active; 'I' for Inactive)
REMARK    1  A    between atoms: C_1  and  N_2
REMARK    2  A    between atoms: N_2  and  C_3
REMARK    3  A    between atoms: N_2  and  C_6
REMARK    4  A    between atoms: C_3  and  C_4
REMARK    5  A    between atoms: C_4  and  O_5
REMARK    6  A    between atoms: C_6  and  C_7
REMARK    7  A    between atoms: C_10  and  C_11
REMARK    8  A    between atoms: N_14  and  C_15
REMARK    9  A    between atoms: C_15  and  C_16
REMARK   10  A    between atoms: C_16  and  C_17
REMARK   11  A    between atoms: C_16  and  C_18
REMARK   12  A    between atoms: C_16  and  C_19
REMARK   13  A    between atoms: N_22  and  C_23
REMARK                            x       y       z     vdW  Elec       q    Type
REMARK                         _______ _______ _______ _____ _____    ______ ____
ROOT
ATOM      1  C   UNL     1       4.051   4.441  19.556  0.00  0.00    +0.000 A 
ATOM      2  N   UNL     1       5.126   3.688  19.457  0.00  0.00    +0.000 NA
ATOM      3  N   UNL     1       6.005   4.306  18.605  0.00  0.00    +0.000 NA
ATOM      4  C   UNL     1       5.460   5.431  18.178  0.00  0.00    +0.000 A 
ATOM      5  N   UNL     1       4.230   5.563  18.782  0.00  0.00    +0.000 N 
ATOM      6  C   UNL     1       3.290   6.641  18.627  0.00  0.00    +0.000 C 
ENDROOT
BRANCH   4   7
ATOM      7  C   UNL     1       6.054   6.392  17.180  0.00  0.00    +0.000 C 
ATOM      8  C   UNL     1       5.140   6.666  15.993  0.00  0.00    +0.000 C 
ATOM      9  C   UNL     1       5.066   5.506  14.999  0.00  0.00    +0.000 C 
ATOM     10  N   UNL     1       6.342   4.914  14.573  0.00  0.00    +0.000 NA
ATOM     11  C   UNL     1       7.290   4.741  15.694  0.00  0.00    +0.000 C 
ATOM     12  C   UNL     1       7.408   5.941  16.637  0.00  0.00    +0.000 C 
BRANCH  10  13
ATOM     13  C   UNL     1       6.123   3.575  13.943  0.00  0.00    +0.000 C 
BRANCH  13  14
ATOM     14  C   UNL     1       6.135   3.432  12.382  0.00  0.00    +0.000 C 
ATOM     15  C   UNL     1       4.725   3.677  11.827  0.00  0.00    +0.000 C 
ATOM     16  C   UNL     1       7.085   4.511  11.804  0.00  0.00    +0.000 C 
ATOM     17  C   UNL     1       6.670   2.082  11.874  0.00  0.00    +0.000 C 
ENDBRANCH  13  14
ENDBRANCH  10  13
ENDBRANCH   4   7
BRANCH   1  18
ATOM     18  C   UNL     1       2.839   4.137  20.388  0.00  0.00    +0.000 C 
BRANCH  18  20
ATOM     19  C   UNL     1       1.523   2.508  21.596  0.00  0.00    +0.000 C 
ATOM     20  N   UNL     1       2.570   2.688  20.571  0.00  0.00    +0.000 NA
BRANCH  20  21
ATOM     21  C   UNL     1       2.064   2.065  19.318  0.00  0.00    +0.000 C 
BRANCH  21  22
ATOM     22  C   UNL     1       0.799   2.713  18.718  0.00  0.00    +0.000 C 
BRANCH  22  23
ATOM     23  O   UNL     1       1.124   3.543  17.610  0.00  0.00    +0.000 OA
ATOM     24  H   UNL     1       1.539   2.956  16.951  0.00  0.00    +0.000 HD
ENDBRANCH  22  23
ENDBRANCH  21  22
ENDBRANCH  20  21
ENDBRANCH  18  20
ENDBRANCH   1  18
TORSDOF 8
ENDMDL
MODEL 2
REMARK VINA RESULT:      -6.7      0.830      1.263
REMARK  Name = 
REMARK  13 active torsions:
REMARK  status: ('A' for Active; 'I' for Inactive)
REMARK    1  A    between atoms: C_1  and  N_2
REMARK    2  A    between atoms: N_2  and  C_3
REMARK    3  A    between atoms: N_2  and  C_6
REMARK    4  A    between atoms: C_3  and  C_4
REMARK    5  A    between atoms: C_4  and  O_5
REMARK    6  A    between atoms: C_6  and  C_7
REMARK    7  A    between atoms: C_10  and  C_11
REMARK    8  A    between atoms: N_14  and  C_15
REMARK    9  A    between atoms: C_15  and  C_16
REMARK   10  A    between atoms: C_16  and  C_17
REMARK   11  A    between atoms: C_16  and  C_18
REMARK   12  A    between atoms: C_16  and  C_19
REMARK   13  A    between atoms: N_22  and  C_23
REMARK                            x       y       z     vdW  Elec       q    Type
REMARK                         _______ _______ _______ _____ _____    ______ ____
ROOT
ATOM      1  C   UNL     1       4.199   4.488  19.615  0.00  0.00    +0.000 A 
ATOM      2  N   UNL     1       5.312   3.793  19.499  0.00  0.00    +0.000 NA
ATOM      3  N   UNL     1       6.138   4.452  18.625  0.00  0.00    +0.000 NA
ATOM      4  C   UNL     1       5.524   5.542  18.202  0.00  0.00    +0.000 A 
ATOM      5  N   UNL     1       4.301   5.612  18.831  0.00  0.00    +0.000 N 
ATOM      6  C   UNL     1       3.301   6.637  18.689  0.00  0.00    +0.000 C 
ENDROOT
BRANCH   4   7
ATOM      7  C   UNL     1       6.045   6.527  17.186  0.00  0.00    +0.000 C 
ATOM      8  C   UNL     1       5.095   6.739  16.015  0.00  0.00    +0.000 C 
ATOM      9  C   UNL     1       5.068   5.568  15.031  0.00  0.00    +0.000 C 
ATOM     10  N   UNL     1       6.368   5.045  14.586  0.00  0.00    +0.000 NA
ATOM     11  C   UNL     1       7.345   4.935  15.690  0.00  0.00    +0.000 C 
ATOM     12  C   UNL     1       7.412   6.148  16.621  0.00  0.00    +0.000 C 
BRANCH  10  13
ATOM     13  C   UNL     1       6.214   3.691  13.970  0.00  0.00    +0.000 C 
BRANCH  13  14
ATOM     14  C   UNL     1       6.116   3.545  12.413  0.00  0.00    +0.000 C 
ATOM     15  C   UNL     1       7.101   4.510  11.736  0.00  0.00    +0.000 C 
ATOM     16  C   UNL     1       6.512   2.095  12.036  0.00  0.00    +0.000 C 
ATOM     17  C   UNL     1       4.702   3.758  11.844  0.00  0.00    +0.000 C 
ENDBRANCH  13  14
ENDBRANCH  10  13
ENDBRANCH   4   7
BRANCH   1  18
ATOM     18  C   UNL     1       3.023   4.125  20.474  0.00  0.00    +0.000 C 
BRANCH  18  20
ATOM     19  C   UNL     1       1.233   2.592  21.015  0.00  0.00    +0.000 C 
ATOM     20  N   UNL     1       2.367   2.845  20.104  0.00  0.00    +0.000 NA
BRANCH  20  21
ATOM     21  C   UNL     1       1.813   2.896  18.724  0.00  0.00    +0.000 C 
BRANCH  21  22
ATOM     22  C   UNL     1       2.426   1.894  17.723  0.00  0.00    +0.000 C 
BRANCH  22  23
ATOM     23  O   UNL     1       3.790   1.633  18.030  0.00  0.00    +0.000 OA
ATOM     24  H   UNL     1       3.856   0.666  18.142  0.00  0.00    +0.000 HD
ENDBRANCH  22  23
ENDBRANCH  21  22
ENDBRANCH  20  21
ENDBRANCH  18  20
ENDBRANCH   1  18
TORSDOF 8
ENDMDL
MODEL 3
REMARK VINA RESULT:      -6.4      1.070      1.297
REMARK  Name = 
REMARK  13 active torsions:
REMARK  status: ('A' for Active; 'I' for Inactive)
REMARK    1  A    between atoms: C_1  and  N_2
REMARK    2  A    between atoms: N_2  and  C_3
REMARK    3  A    between atoms: N_2  and  C_6
REMARK    4  A    between atoms: C_3  and  C_4
REMARK    5  A    between atoms: C_4  and  O_5
REMARK    6  A    between atoms: C_6  and  C_7
REMARK    7  A    between atoms: C_10  and  C_11
REMARK    8  A    between atoms: N_14  and  C_15
REMARK    9  A    between atoms: C_15  and  C_16
REMARK   10  A    between atoms: C_16  and  C_17
REMARK   11  A    between atoms: C_16  and  C_18
REMARK   12  A    between atoms: C_16  and  C_19
REMARK   13  A    between atoms: N_22  and  C_23
REMARK                            x       y       z     vdW  Elec       q    Type
REMARK                         _______ _______ _______ _____ _____    ______ ____
ROOT
ATOM      1  C   UNL     1       3.670   4.641  19.439  0.00  0.00    +0.000 A 
ATOM      2  N   UNL     1       4.711   3.838  19.518  0.00  0.00    +0.000 NA
ATOM      3  N   UNL     1       5.726   4.379  18.772  0.00  0.00    +0.000 NA
ATOM      4  C   UNL     1       5.300   5.506  18.231  0.00  0.00    +0.000 A 
ATOM      5  N   UNL     1       4.008   5.718  18.655  0.00  0.00    +0.000 N 
ATOM      6  C   UNL     1       3.151   6.829  18.332  0.00  0.00    +0.000 C 
ENDROOT
BRANCH   4   7
ATOM      7  C   UNL     1       6.070   6.395  17.289  0.00  0.00    +0.000 C 
ATOM      8  C   UNL     1       5.283   6.772  16.040  0.00  0.00    +0.000 C 
ATOM      9  C   UNL     1       5.153   5.629  15.033  0.00  0.00    +0.000 C 
ATOM     10  N   UNL     1       6.383   4.897  14.697  0.00  0.00    +0.000 NA
ATOM     11  C   UNL     1       7.220   4.617  15.882  0.00  0.00    +0.000 C 
ATOM     12  C   UNL     1       7.402   5.795  16.842  0.00  0.00    +0.000 C 
BRANCH  10  13
ATOM     13  C   UNL     1       6.063   3.592  14.039  0.00  0.00    +0.000 C 
BRANCH  13  14
ATOM     14  C   UNL     1       6.086   3.474  12.477  0.00  0.00    +0.000 C 
ATOM     15  C   UNL     1       4.681   3.740  11.915  0.00  0.00    +0.000 C 
ATOM     16  C   UNL     1       7.048   4.555  11.924  0.00  0.00    +0.000 C 
ATOM     17  C   UNL     1       6.613   2.129  11.950  0.00  0.00    +0.000 C 
ENDBRANCH  13  14
ENDBRANCH  10  13
ENDBRANCH   4   7
BRANCH   1  18
ATOM     18  C   UNL     1       2.343   4.428  20.108  0.00  0.00    +0.000 C 
BRANCH  18  20
ATOM     19  C   UNL     1       1.281   3.926  17.995  0.00  0.00    +0.000 C 
ATOM     20  N   UNL     1       1.444   3.485  19.395  0.00  0.00    +0.000 NA
BRANCH  20  21
ATOM     21  C   UNL     1       2.014   2.112  19.356  0.00  0.00    +0.000 C 
BRANCH  21  22
ATOM     22  C   UNL     1       2.651   1.694  18.014  0.00  0.00    +0.000 C 
BRANCH  22  23
ATOM     23  O   UNL     1       3.974   1.208  18.203  0.00  0.00    +0.000 OA
ATOM     24  H   UNL     1       3.903   0.496  18.864  0.00  0.00    +0.000 HD
ENDBRANCH  22  23
ENDBRANCH  21  22
ENDBRANCH  20  21
ENDBRANCH  18  20
ENDBRANCH   1  18
TORSDOF 8
ENDMDL
MODEL 4
REMARK VINA RESULT:      -6.0      1.282      1.835
REMARK  Name = 
REMARK  13 active torsions:
REMARK  status: ('A' for Active; 'I' for Inactive)
REMARK    1  A    between atoms: C_1  and  N_2
REMARK    2  A    between atoms: N_2  and  C_3
REMARK    3  A    between atoms: N_2  and  C_6
REMARK    4  A    between atoms: C_3  and  C_4
REMARK    5  A    between atoms: C_4  and  O_5
REMARK    6  A    between atoms: C_6  and  C_7
REMARK    7  A    between atoms: C_10  and  C_11
REMARK    8  A    between atoms: N_14  and  C_15
REMARK    9  A    between atoms: C_15  and  C_16
REMARK   10  A    between atoms: C_16  and  C_17
REMARK   11  A    between atoms: C_16  and  C_18
REMARK   12  A    between atoms: C_16  and  C_19
REMARK   13  A    between atoms: N_22  and  C_23
REMARK                            x       y       z     vdW  Elec       q    Type
REMARK                         _______ _______ _______ _____ _____    ______ ____
ROOT
ATOM      1  C   UNL     1       3.581   4.757  19.330  0.00  0.00    +0.000 A 
ATOM      2  N   UNL     1       4.526   3.855  19.499  0.00  0.00    +0.000 NA
ATOM      3  N   UNL     1       5.640   4.269  18.816  0.00  0.00    +0.000 NA
ATOM      4  C   UNL     1       5.371   5.419  18.224  0.00  0.00    +0.000 A 
ATOM      5  N   UNL     1       4.081   5.773  18.551  0.00  0.00    +0.000 N 
ATOM      6  C   UNL     1       3.369   6.955  18.145  0.00  0.00    +0.000 C 
ENDROOT
BRANCH   4   7
ATOM      7  C   UNL     1       6.292   6.199  17.322  0.00  0.00    +0.000 C 
ATOM      8  C   UNL     1       5.597   6.744  16.081  0.00  0.00    +0.000 C 
ATOM      9  C   UNL     1       5.293   5.675  15.032  0.00  0.00    +0.000 C 
ATOM     10  N   UNL     1       6.388   4.760  14.679  0.00  0.00    +0.000 NA
ATOM     11  C   UNL     1       7.150   4.303  15.861  0.00  0.00    +0.000 C 
ATOM     12  C   UNL     1       7.511   5.400  16.865  0.00  0.00    +0.000 C 
BRANCH  10  13
ATOM     13  C   UNL     1       5.865   3.550  13.972  0.00  0.00    +0.000 C 
BRANCH  13  14
ATOM     14  C   UNL     1       5.941   3.461  12.409  0.00  0.00    +0.000 C 
ATOM     15  C   UNL     1       6.987   4.456  11.883  0.00  0.00    +0.000 C 
ATOM     16  C   UNL     1       6.391   2.028  12.027  0.00  0.00    +0.000 C 
ATOM     17  C   UNL     1       4.598   3.688  11.695  0.00  0.00    +0.000 C 
ENDBRANCH  13  14
ENDBRANCH  10  13
ENDBRANCH   4   7
BRANCH   1  18
ATOM     18  C   UNL     1       2.196   4.698  19.906  0.00  0.00    +0.000 C 
BRANCH  18  20
ATOM     19  C   UNL     1       1.903   3.236  18.003  0.00  0.00    +0.000 C 
ATOM     20  N   UNL     1       1.321   3.669  19.289  0.00  0.00    +0.000 NA
BRANCH  20  21
ATOM     21  C   UNL     1       1.213   2.459  20.148  0.00  0.00    +0.000 C 
BRANCH  21  22
ATOM     22  C   UNL     1       1.973   2.527  21.490  0.00  0.00    +0.000 C 
BRANCH  22  23
ATOM     23  O   UNL     1       1.085   2.376  22.590  0.00  0.00    +0.000 OA
ATOM     24  H   UNL     1       0.394   1.758  22.291  0.00  0.00    +0.000 HD
ENDBRANCH  22  23
ENDBRANCH  21  22
ENDBRANCH  20  21
ENDBRANCH  18  20
ENDBRANCH   1  18
TORSDOF 8
ENDMDL
MODEL 5
REMARK VINA RESULT:      -6.0      1.025      1.551
REMARK  Name = 
REMARK  13 active torsions:
REMARK  status: ('A' for Active; 'I' for Inactive)
REMARK    1  A    between atoms: C_1  and  N_2
REMARK    2  A    between atoms: N_2  and  C_3
REMARK    3  A    between atoms: N_2  and  C_6
REMARK    4  A    between atoms: C_3  and  C_4
REMARK    5  A    between atoms: C_4  and  O_5
REMARK    6  A    between atoms: C_6  and  C_7
REMARK    7  A    between atoms: C_10  and  C_11
REMARK    8  A    between atoms: N_14  and  C_15
REMARK    9  A    between atoms: C_15  and  C_16
REMARK   10  A    between atoms: C_16  and  C_17
REMARK   11  A    between atoms: C_16  and  C_18
REMARK   12  A    between atoms: C_16  and  C_19
REMARK   13  A    between atoms: N_22  and  C_23
REMARK                            x       y       z     vdW  Elec       q    Type
REMARK                         _______ _______ _______ _____ _____    ______ ____
ROOT
ATOM      1  C   UNL     1       3.673   4.629  19.518  0.00  0.00    +0.000 A 
ATOM      2  N   UNL     1       4.550   3.647  19.506  0.00  0.00    +0.000 NA
ATOM      3  N   UNL     1       5.641   4.055  18.782  0.00  0.00    +0.000 NA
ATOM      4  C   UNL     1       5.423   5.283  18.345  0.00  0.00    +0.000 A 
ATOM      5  N   UNL     1       4.195   5.689  18.816  0.00  0.00    +0.000 N 
ATOM      6  C   UNL     1       3.553   6.960  18.604  0.00  0.00    +0.000 C 
ENDROOT
BRANCH   4   7
ATOM      7  C   UNL     1       6.335   6.094  17.460  0.00  0.00    +0.000 C 
ATOM      8  C   UNL     1       5.616   6.723  16.274  0.00  0.00    +0.000 C 
ATOM      9  C   UNL     1       5.258   5.721  15.176  0.00  0.00    +0.000 C 
ATOM     10  N   UNL     1       6.322   4.805  14.740  0.00  0.00    +0.000 NA
ATOM     11  C   UNL     1       7.107   4.267  15.871  0.00  0.00    +0.000 C 
ATOM     12  C   UNL     1       7.522   5.298  16.923  0.00  0.00    +0.000 C 
BRANCH  10  13
ATOM     13  C   UNL     1       5.751   3.648  13.982  0.00  0.00    +0.000 C 
BRANCH  13  14
ATOM     14  C   UNL     1       6.004   3.519  12.441  0.00  0.00    +0.000 C 
ATOM     15  C   UNL     1       6.444   2.087  12.104  0.00  0.00    +0.000 C 
ATOM     16  C   UNL     1       4.671   3.810  11.706  0.00  0.00    +0.000 C 
ATOM     17  C   UNL     1       7.024   4.525  11.880  0.00  0.00    +0.000 C 
ENDBRANCH  13  14
ENDBRANCH  10  13
ENDBRANCH   4   7
BRANCH   1  18
ATOM     18  C   UNL     1       2.335   4.604  20.197  0.00  0.00    +0.000 C 
BRANCH  18  20
ATOM     19  C   UNL     1       1.558   4.212  17.942  0.00  0.00    +0.000 C 
ATOM     20  N   UNL     1       1.240   4.033  19.373  0.00  0.00    +0.000 NA
BRANCH  20  21
ATOM     21  C   UNL     1       1.090   2.571  19.606  0.00  0.00    +0.000 C 
BRANCH  21  22
ATOM     22  C   UNL     1       1.635   1.660  18.486  0.00  0.00    +0.000 C 
BRANCH  22  23
ATOM     23  O   UNL     1       2.992   1.310  18.725  0.00  0.00    +0.000 OA
ATOM     24  H   UNL     1       3.036   1.037  19.659  0.00  0.00    +0.000 HD
ENDBRANCH  22  23
ENDBRANCH  21  22
ENDBRANCH  20  21
ENDBRANCH  18  20
ENDBRANCH   1  18
TORSDOF 8
ENDMDL
MODEL 6
REMARK VINA RESULT:      -5.8      1.303      1.557
REMARK  Name = 
REMARK  13 active torsions:
REMARK  status: ('A' for Active; 'I' for Inactive)
REMARK    1  A    between atoms: C_1  and  N_2
REMARK    2  A    between atoms: N_2  and  C_3
REMARK    3  A    between atoms: N_2  and  C_6
REMARK    4  A    between atoms: C_3  and  C_4
REMARK    5  A    between atoms: C_4  and  O_5
REMARK    6  A    between atoms: C_6  and  C_7
REMARK    7  A    between atoms: C_10  and  C_11
REMARK    8  A    between atoms: N_14  and  C_15
REMARK    9  A    between atoms: C_15  and  C_16
REMARK   10  A    between atoms: C_16  and  C_17
REMARK   11  A    between atoms: C_16  and  C_18
REMARK   12  A    between atoms: C_16  and  C_19
REMARK   13  A    between atoms: N_22  and  C_23
REMARK                            x       y       z     vdW  Elec       q    Type
REMARK                         _______ _______ _______ _____ _____    ______ ____
ROOT
ATOM      1  C   UNL     1       3.863   3.135  19.044  0.00  0.00    +0.000 A 
ATOM      2  N   UNL     1       5.017   3.013  19.667  0.00  0.00    +0.000 NA
ATOM      3  N   UNL     1       5.863   3.984  19.195  0.00  0.00    +0.000 NA
ATOM      4  C   UNL     1       5.227   4.690  18.278  0.00  0.00    +0.000 A 
ATOM      5  N   UNL     1       3.945   4.196  18.175  0.00  0.00    +0.000 N 
ATOM      6  C   UNL     1       2.892   4.667  17.315  0.00  0.00    +0.000 C 
ENDROOT
BRANCH   4   7
ATOM      7  C   UNL     1       5.800   5.817  17.457  0.00  0.00    +0.000 C 
ATOM      8  C   UNL     1       4.944   6.176  16.250  0.00  0.00    +0.000 C 
ATOM      9  C   UNL     1       5.032   5.156  15.114  0.00  0.00    +0.000 C 
ATOM     10  N   UNL     1       6.379   4.723  14.713  0.00  0.00    +0.000 NA
ATOM     11  C   UNL     1       7.264   4.475  15.870  0.00  0.00    +0.000 C 
ATOM     12  C   UNL     1       7.219   5.545  16.964  0.00  0.00    +0.000 C 
BRANCH  10  13
ATOM     13  C   UNL     1       6.315   3.467  13.903  0.00  0.00    +0.000 C 
BRANCH  13  14
ATOM     14  C   UNL     1       6.324   3.543  12.338  0.00  0.00    +0.000 C 
ATOM     15  C   UNL     1       4.896   3.774  11.820  0.00  0.00    +0.000 C 
ATOM     16  C   UNL     1       7.200   4.748  11.915  0.00  0.00    +0.000 C 
ATOM     17  C   UNL     1       6.937   2.312  11.648  0.00  0.00    +0.000 C 
ENDBRANCH  13  14
ENDBRANCH  10  13
ENDBRANCH   4   7
BRANCH   1  18
ATOM     18  C   UNL     1       2.654   2.272  19.259  0.00  0.00    +0.000 C 
BRANCH  18  20
ATOM     19  C   UNL     1       2.407   2.715  21.623  0.00  0.00    +0.000 C 
ATOM     20  N   UNL     1       1.730   2.766  20.312  0.00  0.00    +0.000 NA
BRANCH  20  21
ATOM     21  C   UNL     1       1.342   4.182  20.076  0.00  0.00    +0.000 C 
BRANCH  21  22
ATOM     22  C   UNL     1       1.945   5.209  21.058  0.00  0.00    +0.000 C 
BRANCH  22  23
ATOM     23  O   UNL     1       2.368   6.383  20.377  0.00  0.00    +0.000 OA
ATOM     24  H   UNL     1       3.328   6.282  20.245  0.00  0.00    +0.000 HD
ENDBRANCH  22  23
ENDBRANCH  21  22
ENDBRANCH  20  21
ENDBRANCH  18  20
ENDBRANCH   1  18
TORSDOF 8
ENDMDL
MODEL 7
REMARK VINA RESULT:      -5.8      1.349      1.884
REMARK  Name = 
REMARK  13 active torsions:
REMARK  status: ('A' for Active; 'I' for Inactive)
REMARK    1  A    between atoms: C_1  and  N_2
REMARK    2  A    between atoms: N_2  and  C_3
REMARK    3  A    between atoms: N_2  and  C_6
REMARK    4  A    between atoms: C_3  and  C_4
REMARK    5  A    between atoms: C_4  and  O_5
REMARK    6  A    between atoms: C_6  and  C_7
REMARK    7  A    between atoms: C_10  and  C_11
REMARK    8  A    between atoms: N_14  and  C_15
REMARK    9  A    between atoms: C_15  and  C_16
REMARK   10  A    between atoms: C_16  and  C_17
REMARK   11  A    between atoms: C_16  and  C_18
REMARK   12  A    between atoms: C_16  and  C_19
REMARK   13  A    between atoms: N_22  and  C_23
REMARK                            x       y       z     vdW  Elec       q    Type
REMARK                         _______ _______ _______ _____ _____    ______ ____
ROOT
ATOM      1  C   UNL     1       4.101   3.414  19.082  0.00  0.00    +0.000 A 
ATOM      2  N   UNL     1       5.295   3.317  19.630  0.00  0.00    +0.000 NA
ATOM      3  N   UNL     1       6.088   4.305  19.105  0.00  0.00    +0.000 NA
ATOM      4  C   UNL     1       5.379   4.997  18.231  0.00  0.00    +0.000 A 
ATOM      5  N   UNL     1       4.105   4.476  18.210  0.00  0.00    +0.000 N 
ATOM      6  C   UNL     1       2.989   4.923  17.418  0.00  0.00    +0.000 C 
ENDROOT
BRANCH   4   7
ATOM      7  C   UNL     1       5.875   6.135  17.376  0.00  0.00    +0.000 C 
ATOM      8  C   UNL     1       5.005   6.390  16.152  0.00  0.00    +0.000 C 
ATOM      9  C   UNL     1       5.177   5.341  15.052  0.00  0.00    +0.000 C 
ATOM     10  N   UNL     1       6.555   4.996  14.673  0.00  0.00    +0.000 NA
ATOM     11  C   UNL     1       7.447   4.853  15.844  0.00  0.00    +0.000 C 
ATOM     12  C   UNL     1       7.314   5.952  16.900  0.00  0.00    +0.000 C 
BRANCH  10  13
ATOM     13  C   UNL     1       6.591   3.713  13.906  0.00  0.00    +0.000 C 
BRANCH  13  14
ATOM     14  C   UNL     1       6.383   3.722  12.353  0.00  0.00    +0.000 C 
ATOM     15  C   UNL     1       7.155   4.896  11.732  0.00  0.00    +0.000 C 
ATOM     16  C   UNL     1       6.954   2.401  11.780  0.00  0.00    +0.000 C 
ATOM     17  C   UNL     1       4.911   3.772  11.911  0.00  0.00    +0.000 C 
ENDBRANCH  13  14
ENDBRANCH  10  13
ENDBRANCH   4   7
BRANCH   1  18
ATOM     18  C   UNL     1       2.926   2.526  19.373  0.00  0.00    +0.000 C 
BRANCH  18  20
ATOM     19  C   UNL     1       0.613   2.200  18.751  0.00  0.00    +0.000 C 
ATOM     20  N   UNL     1       1.606   3.187  19.220  0.00  0.00    +0.000 NA
BRANCH  20  21
ATOM     21  C   UNL     1       1.110   3.720  20.518  0.00  0.00    +0.000 C 
BRANCH  21  22
ATOM     22  C   UNL     1       1.227   2.759  21.719  0.00  0.00    +0.000 C 
BRANCH  22  23
ATOM     23  O   UNL     1       2.474   2.918  22.384  0.00  0.00    +0.000 OA
ATOM     24  H   UNL     1       2.831   2.018  22.499  0.00  0.00    +0.000 HD
ENDBRANCH  22  23
ENDBRANCH  21  22
ENDBRANCH  20  21
ENDBRANCH  18  20
ENDBRANCH   1  18
TORSDOF 8
ENDMDL
MODEL 8
REMARK VINA RESULT:      -5.7      0.513      1.046
REMARK  Name = 
REMARK  13 active torsions:
REMARK  status: ('A' for Active; 'I' for Inactive)
REMARK    1  A    between atoms: C_1  and  N_2
REMARK    2  A    between atoms: N_2  and  C_3
REMARK    3  A    between atoms: N_2  and  C_6
REMARK    4  A    between atoms: C_3  and  C_4
REMARK    5  A    between atoms: C_4  and  O_5
REMARK    6  A    between atoms: C_6  and  C_7
REMARK    7  A    between atoms: C_10  and  C_11
REMARK    8  A    between atoms: N_14  and  C_15
REMARK    9  A    between atoms: C_15  and  C_16
REMARK   10  A    between atoms: C_16  and  C_17
REMARK   11  A    between atoms: C_16  and  C_18
REMARK   12  A    between atoms: C_16  and  C_19
REMARK   13  A    between atoms: N_22  and  C_23
REMARK                            x       y       z     vdW  Elec       q    Type
REMARK                         _______ _______ _______ _____ _____    ______ ____
ROOT
ATOM      1  C   UNL     1       4.054   4.425  19.526  0.00  0.00    +0.000 A 
ATOM      2  N   UNL     1       5.156   3.705  19.464  0.00  0.00    +0.000 NA
ATOM      3  N   UNL     1       6.036   4.341  18.627  0.00  0.00    +0.000 NA
ATOM      4  C   UNL     1       5.468   5.443  18.172  0.00  0.00    +0.000 A 
ATOM      5  N   UNL     1       4.218   5.542  18.742  0.00  0.00    +0.000 N 
ATOM      6  C   UNL     1       3.249   6.588  18.550  0.00  0.00    +0.000 C 
ENDROOT
BRANCH   4   7
ATOM      7  C   UNL     1       6.057   6.410  17.178  0.00  0.00    +0.000 C 
ATOM      8  C   UNL     1       5.138   6.691  15.996  0.00  0.00    +0.000 C 
ATOM      9  C   UNL     1       5.061   5.537  14.996  0.00  0.00    +0.000 C 
ATOM     10  N   UNL     1       6.336   4.948  14.561  0.00  0.00    +0.000 NA
ATOM     11  C   UNL     1       7.288   4.769  15.677  0.00  0.00    +0.000 C 
ATOM     12  C   UNL     1       7.409   5.963  16.626  0.00  0.00    +0.000 C 
BRANCH  10  13
ATOM     13  C   UNL     1       6.116   3.613  13.923  0.00  0.00    +0.000 C 
BRANCH  13  14
ATOM     14  C   UNL     1       6.079   3.487  12.362  0.00  0.00    +0.000 C 
ATOM     15  C   UNL     1       7.078   4.472  11.737  0.00  0.00    +0.000 C 
ATOM     16  C   UNL     1       6.508   2.047  11.982  0.00  0.00    +0.000 C 
ATOM     17  C   UNL     1       4.686   3.690  11.742  0.00  0.00    +0.000 C 
ENDBRANCH  13  14
ENDBRANCH  10  13
ENDBRANCH   4   7
BRANCH   1  18
ATOM     18  C   UNL     1       2.831   4.092  20.330  0.00  0.00    +0.000 C 
BRANCH  18  20
ATOM     19  C   UNL     1       1.661   2.450  21.663  0.00  0.00    +0.000 C 
ATOM     20  N   UNL     1       2.631   2.640  20.565  0.00  0.00    +0.000 NA
BRANCH  20  21
ATOM     21  C   UNL     1       2.067   1.966  19.365  0.00  0.00    +0.000 C 
BRANCH  21  22
ATOM     22  C   UNL     1       0.675   2.459  18.918  0.00  0.00    +0.000 C 
BRANCH  22  23
ATOM     23  O   UNL     1       0.164   3.436  19.816  0.00  0.00    +0.000 OA
ATOM     24  H   UNL     1      -0.735   3.139  20.049  0.00  0.00    +0.000 HD
ENDBRANCH  22  23
ENDBRANCH  21  22
ENDBRANCH  20  21
ENDBRANCH  18  20
ENDBRANCH   1  18
TORSDOF 8
ENDMDL
MODEL 9
REMARK VINA RESULT:      -5.7      1.713      2.036
REMARK  Name = 
REMARK  13 active torsions:
REMARK  status: ('A' for Active; 'I' for Inactive)
REMARK    1  A    between atoms: C_1  and  N_2
REMARK    2  A    between atoms: N_2  and  C_3
REMARK    3  A    between atoms: N_2  and  C_6
REMARK    4  A    between atoms: C_3  and  C_4
REMARK    5  A    between atoms: C_4  and  O_5
REMARK    6  A    between atoms: C_6  and  C_7
REMARK    7  A    between atoms: C_10  and  C_11
REMARK    8  A    between atoms: N_14  and  C_15
REMARK    9  A    between atoms: C_15  and  C_16
REMARK   10  A    between atoms: C_16  and  C_17
REMARK   11  A    between atoms: C_16  and  C_18
REMARK   12  A    between atoms: C_16  and  C_19
REMARK   13  A    between atoms: N_22  and  C_23
REMARK                            x       y       z     vdW  Elec       q    Type
REMARK                         _______ _______ _______ _____ _____    ______ ____
ROOT
ATOM      1  C   UNL     1       3.042   4.400  18.837  0.00  0.00    +0.000 A 
ATOM      2  N   UNL     1       4.001   3.522  19.050  0.00  0.00    +0.000 NA
ATOM      3  N   UNL     1       5.164   4.022  18.525  0.00  0.00    +0.000 NA
ATOM      4  C   UNL     1       4.912   5.200  17.983  0.00  0.00    +0.000 A 
ATOM      5  N   UNL     1       3.580   5.484  18.186  0.00  0.00    +0.000 N 
ATOM      6  C   UNL     1       2.866   6.667  17.782  0.00  0.00    +0.000 C 
ENDROOT
BRANCH   4   7
ATOM      7  C   UNL     1       5.892   6.074  17.242  0.00  0.00    +0.000 C 
ATOM      8  C   UNL     1       5.356   6.579  15.909  0.00  0.00    +0.000 C 
ATOM      9  C   UNL     1       5.319   5.506  14.821  0.00  0.00    +0.000 C 
ATOM     10  N   UNL     1       6.533   4.696  14.643  0.00  0.00    +0.000 NA
ATOM     11  C   UNL     1       7.135   4.286  15.930  0.00  0.00    +0.000 C 
ATOM     12  C   UNL     1       7.234   5.393  16.983  0.00  0.00    +0.000 C 
BRANCH  10  13
ATOM     13  C   UNL     1       6.238   3.459  13.857  0.00  0.00    +0.000 C 
BRANCH  13  14
ATOM     14  C   UNL     1       6.288   3.494  12.291  0.00  0.00    +0.000 C 
ATOM     15  C   UNL     1       4.866   3.640  11.729  0.00  0.00    +0.000 C 
ATOM     16  C   UNL     1       7.115   4.731  11.861  0.00  0.00    +0.000 C 
ATOM     17  C   UNL     1       6.980   2.279  11.652  0.00  0.00    +0.000 C 
ENDBRANCH  13  14
ENDBRANCH  10  13
ENDBRANCH   4   7
BRANCH   1  18
ATOM     18  C   UNL     1       1.607   4.251  19.249  0.00  0.00    +0.000 C 
BRANCH  18  20
ATOM     19  C   UNL     1       1.881   3.421  21.503  0.00  0.00    +0.000 C 
ATOM     20  N   UNL     1       1.351   4.530  20.685  0.00  0.00    +0.000 NA
BRANCH  20  21
ATOM     21  C   UNL     1       2.043   5.769  21.131  0.00  0.00    +0.000 C 
BRANCH  21  22
ATOM     22  C   UNL     1       1.273   7.084  20.891  0.00  0.00    +0.000 C 
BRANCH  22  23
ATOM     23  O   UNL     1       1.789   8.136  21.697  0.00  0.00    +0.000 OA
ATOM     24  H   UNL     1       1.097   8.330  22.356  0.00  0.00    +0.000 HD
ENDBRANCH  22  23
ENDBRANCH  21  22
ENDBRANCH  20  21
ENDBRANCH  18  20
ENDBRANCH   1  18
TORSDOF 8
ENDMDL
