MODEL 1
REMARK VINA RESULT:      -8.4      0.000      0.000
REMARK  Name = 
REMARK  6 active torsions:
REMARK  status: ('A' for Active; 'I' for Inactive)
REMARK    1  A    between atoms: C_1  and  N_2
REMARK    2  A    between atoms: C_5  and  N_6
REMARK    3  A    between atoms: C_7  and  C_9
REMARK    4  A    between atoms: C_12  and  C_13
REMARK    5  A    between atoms: C_22  and  C_23
REMARK    6  A    between atoms: C_26  and  N_27
REMARK                            x       y       z     vdW  Elec       q    Type
REMARK                         _______ _______ _______ _____ _____    ______ ____
ROOT
ATOM      1  C   UNL     1       4.423   1.895  18.955  0.00  0.00    +0.000 C 
ATOM      2  N   UNL     1       3.483   2.818  19.550  0.00  0.00    +0.000 N 
ATOM      3  N   UNL     1       2.401   2.308  20.170  0.00  0.00    +0.000 NA
ATOM      4  C   UNL     1       1.778   3.382  20.656  0.00  0.00    +0.000 A 
ATOM      5  C   UNL     1       2.415   4.590  20.301  0.00  0.00    +0.000 A 
ATOM      6  C   UNL     1       3.525   4.196  19.563  0.00  0.00    +0.000 A 
ENDROOT
BRANCH   6   7
ATOM      7  C   UNL     1       4.632   5.015  18.984  0.00  0.00    +0.000 C 
ATOM      8  C   UNL     1       4.667   5.115  17.455  0.00  0.00    +0.000 C 
ATOM      9  C   UNL     1       5.331   6.443  17.066  0.00  0.00    +0.000 C 
ATOM     10  C   UNL     1       6.871   6.448  17.074  0.00  0.00    +0.000 C 
ATOM     11  C   UNL     1       7.564   5.507  18.082  0.00  0.00    +0.000 C 
ATOM     12  F   UNL     1       7.585   4.246  17.554  0.00  0.00    +0.000 F 
ATOM     13  C   UNL     1       6.926   5.451  19.467  0.00  0.00    +0.000 C 
ATOM     14  O   UNL     1       5.846   4.513  19.530  0.00  0.00    +0.000 OA
BRANCH  10  15
ATOM     15  N   UNL     1       7.333   7.842  17.226  0.00  0.00    +0.000 NA
ATOM     16  H   UNL     1       6.551   8.471  17.408  0.00  0.00    +0.000 HD
ATOM     17  H   UNL     1       7.754   8.161  16.352  0.00  0.00    +0.000 HD
ENDBRANCH  10  15
ENDBRANCH   6   7
BRANCH   5  18
ATOM     18  N   UNL     1       2.030   5.891  20.605  0.00  0.00    +0.000 N 
ATOM     19  C   UNL     1       1.847   6.873  19.643  0.00  0.00    +0.000 C 
ATOM     20  O   UNL     1       1.889   6.703  18.430  0.00  0.00    +0.000 OA
ATOM     21  H   UNL     1       1.880   6.161  21.570  0.00  0.00    +0.000 HD
BRANCH  19  22
ATOM     22  C   UNL     1       1.618   8.209  20.202  0.00  0.00    +0.000 A 
ATOM     23  C   UNL     1       1.359   8.438  21.540  0.00  0.00    +0.000 A 
ATOM     24  S   UNL     1       0.862  10.048  21.778  0.00  0.00    +0.000 S 
ATOM     25  C   UNL     1       1.003  10.337  20.083  0.00  0.00    +0.000 A 
ATOM     26  N   UNL     1       1.527   9.339  19.393  0.00  0.00    +0.000 NA
BRANCH  25  27
ATOM     27  C   UNL     1       0.559  11.605  19.503  0.00  0.00    +0.000 A 
ATOM     28  C   UNL     1       1.278  12.786  19.771  0.00  0.00    +0.000 A 
ATOM     29  F   UNL     1       2.344  12.807  20.580  0.00  0.00    +0.000 F 
ATOM     30  C   UNL     1       0.862  13.978  19.213  0.00  0.00    +0.000 A 
ATOM     31  N   UNL     1      -0.224  14.101  18.428  0.00  0.00    +0.000 NA
ATOM     32  C   UNL     1      -0.933  12.963  18.208  0.00  0.00    +0.000 A 
ATOM     33  C   UNL     1      -0.592  11.721  18.723  0.00  0.00    +0.000 A 
ATOM     34 CL   UNL     1      -1.642  10.389  18.339  0.00  0.00    +0.000 Cl
ENDBRANCH  25  27
ENDBRANCH  19  22
ENDBRANCH   5  18
TORSDOF 5
ENDMDL
MODEL 2
REMARK VINA RESULT:      -8.4      3.517      8.629
REMARK  Name = 
REMARK  6 active torsions:
REMARK  status: ('A' for Active; 'I' for Inactive)
REMARK    1  A    between atoms: C_1  and  N_2
REMARK    2  A    between atoms: C_5  and  N_6
REMARK    3  A    between atoms: C_7  and  C_9
REMARK    4  A    between atoms: C_12  and  C_13
REMARK    5  A    between atoms: C_22  and  C_23
REMARK    6  A    between atoms: C_26  and  N_27
REMARK                            x       y       z     vdW  Elec       q    Type
REMARK                         _______ _______ _______ _____ _____    ______ ____
ROOT
ATOM      1  C   UNL     1      -1.513  13.898  23.109  0.00  0.00    +0.000 C 
ATOM      2  N   UNL     1      -0.991  12.594  22.766  0.00  0.00    +0.000 N 
ATOM      3  N   UNL     1      -1.519  11.518  23.382  0.00  0.00    +0.000 NA
ATOM      4  C   UNL     1      -0.889  10.487  22.819  0.00  0.00    +0.000 A 
ATOM      5  C   UNL     1       0.091  10.891  21.886  0.00  0.00    +0.000 A 
ATOM      6  C   UNL     1       0.015  12.279  21.878  0.00  0.00    +0.000 A 
ENDROOT
BRANCH   6   7
ATOM      7  C   UNL     1       0.742  13.274  21.033  0.00  0.00    +0.000 C 
ATOM      8  C   UNL     1       0.182  13.497  19.623  0.00  0.00    +0.000 C 
ATOM      9  C   UNL     1       0.529  14.924  19.179  0.00  0.00    +0.000 C 
ATOM     10  C   UNL     1       1.949  15.122  18.617  0.00  0.00    +0.000 C 
ATOM     11  C   UNL     1       3.053  14.200  19.176  0.00  0.00    +0.000 C 
ATOM     12  F   UNL     1       2.981  12.997  18.531  0.00  0.00    +0.000 F 
ATOM     13  C   UNL     1       2.999  13.956  20.682  0.00  0.00    +0.000 C 
ATOM     14  O   UNL     1       2.110  12.888  21.027  0.00  0.00    +0.000 OA
BRANCH  10  15
ATOM     15  N   UNL     1       2.311  16.547  18.753  0.00  0.00    +0.000 NA
ATOM     16  H   UNL     1       2.108  17.061  17.896  0.00  0.00    +0.000 HD
ATOM     17  H   UNL     1       3.317  16.633  18.902  0.00  0.00    +0.000 HD
ENDBRANCH  10  15
ENDBRANCH   6   7
BRANCH   5  18
ATOM     18  N   UNL     1       0.952  10.095  21.140  0.00  0.00    +0.000 N 
ATOM     19  C   UNL     1       0.658   9.650  19.860  0.00  0.00    +0.000 C 
ATOM     20  O   UNL     1      -0.317   9.980  19.195  0.00  0.00    +0.000 OA
ATOM     21  H   UNL     1       1.840   9.804  21.533  0.00  0.00    +0.000 HD
BRANCH  19  22
ATOM     22  C   UNL     1       1.625   8.681  19.336  0.00  0.00    +0.000 A 
ATOM     23  C   UNL     1       2.149   8.747  18.059  0.00  0.00    +0.000 A 
ATOM     24  S   UNL     1       3.002   7.319  17.695  0.00  0.00    +0.000 S 
ATOM     25  C   UNL     1       2.604   6.692  19.253  0.00  0.00    +0.000 A 
ATOM     26  N   UNL     1       1.995   7.547  20.055  0.00  0.00    +0.000 NA
BRANCH  25  27
ATOM     27  C   UNL     1       2.934   5.312  19.607  0.00  0.00    +0.000 A 
ATOM     28  C   UNL     1       1.960   4.494  20.213  0.00  0.00    +0.000 A 
ATOM     29  F   UNL     1       0.739   4.944  20.523  0.00  0.00    +0.000 F 
ATOM     30  C   UNL     1       2.272   3.188  20.535  0.00  0.00    +0.000 A 
ATOM     31  N   UNL     1       3.479   2.631  20.327  0.00  0.00    +0.000 NA
ATOM     32  C   UNL     1       4.422   3.440  19.778  0.00  0.00    +0.000 A 
ATOM     33  C   UNL     1       4.202   4.761  19.420  0.00  0.00    +0.000 A 
ATOM     34 CL   UNL     1       5.548   5.634  18.748  0.00  0.00    +0.000 Cl
ENDBRANCH  25  27
ENDBRANCH  19  22
ENDBRANCH   5  18
TORSDOF 5
ENDMDL
MODEL 3
REMARK VINA RESULT:      -8.3      3.483      8.528
REMARK  Name = 
REMARK  6 active torsions:
REMARK  status: ('A' for Active; 'I' for Inactive)
REMARK    1  A    between atoms: C_1  and  N_2
REMARK    2  A    between atoms: C_5  and  N_6
REMARK    3  A    between atoms: C_7  and  C_9
REMARK    4  A    between atoms: C_12  and  C_13
REMARK    5  A    between atoms: C_22  and  C_23
REMARK    6  A    between atoms: C_26  and  N_27
REMARK                            x       y       z     vdW  Elec       q    Type
REMARK                         _______ _______ _______ _____ _____    ______ ____
ROOT
ATOM      1  C   UNL     1      -1.489  13.116  23.134  0.00  0.00    +0.000 C 
ATOM      2  N   UNL     1      -0.868  11.889  22.687  0.00  0.00    +0.000 N 
ATOM      3  N   UNL     1      -1.273  10.733  23.248  0.00  0.00    +0.000 NA
ATOM      4  C   UNL     1      -0.577   9.802  22.596  0.00  0.00    +0.000 A 
ATOM      5  C   UNL     1       0.325  10.352  21.659  0.00  0.00    +0.000 A 
ATOM      6  C   UNL     1       0.126  11.725  21.746  0.00  0.00    +0.000 A 
ENDROOT
BRANCH   6   7
ATOM      7  C   UNL     1       0.727  12.833  20.945  0.00  0.00    +0.000 C 
ATOM      8  C   UNL     1       0.147  13.041  19.541  0.00  0.00    +0.000 C 
ATOM      9  C   UNL     1       0.318  14.516  19.154  0.00  0.00    +0.000 C 
ATOM     10  C   UNL     1       1.704  14.908  18.610  0.00  0.00    +0.000 C 
ATOM     11  C   UNL     1       2.911  14.107  19.140  0.00  0.00    +0.000 C 
ATOM     12  F   UNL     1       2.988  12.930  18.449  0.00  0.00    +0.000 F 
ATOM     13  C   UNL     1       2.885  13.799  20.635  0.00  0.00    +0.000 C 
ATOM     14  O   UNL     1       2.133  12.618  20.933  0.00  0.00    +0.000 OA
BRANCH  10  15
ATOM     15  N   UNL     1       1.888  16.360  18.803  0.00  0.00    +0.000 NA
ATOM     16  H   UNL     1       1.213  16.731  19.471  0.00  0.00    +0.000 HD
ATOM     17  H   UNL     1       1.713  16.849  17.924  0.00  0.00    +0.000 HD
ENDBRANCH  10  15
ENDBRANCH   6   7
BRANCH   5  18
ATOM     18  N   UNL     1       1.223   9.686  20.832  0.00  0.00    +0.000 N 
ATOM     19  C   UNL     1       0.936   9.343  19.520  0.00  0.00    +0.000 C 
ATOM     20  O   UNL     1      -0.070   9.668  18.899  0.00  0.00    +0.000 OA
ATOM     21  H   UNL     1       2.134   9.420  21.186  0.00  0.00    +0.000 HD
BRANCH  19  22
ATOM     22  C   UNL     1       1.954   8.492  18.897  0.00  0.00    +0.000 A 
ATOM     23  C   UNL     1       2.725   8.894  17.822  0.00  0.00    +0.000 A 
ATOM     24  S   UNL     1       3.583   7.571  17.183  0.00  0.00    +0.000 S 
ATOM     25  C   UNL     1       2.861   6.539  18.363  0.00  0.00    +0.000 A 
ATOM     26  N   UNL     1       2.134   7.163  19.272  0.00  0.00    +0.000 NA
BRANCH  25  27
ATOM     27  C   UNL     1       3.066   5.092  18.312  0.00  0.00    +0.000 A 
ATOM     28  C   UNL     1       2.047   4.259  17.810  0.00  0.00    +0.000 A 
ATOM     29  F   UNL     1       0.864   4.737  17.409  0.00  0.00    +0.000 F 
ATOM     30  C   UNL     1       2.248   2.894  17.754  0.00  0.00    +0.000 A 
ATOM     31  N   UNL     1       3.370   2.283  18.176  0.00  0.00    +0.000 NA
ATOM     32  C   UNL     1       4.331   3.091  18.695  0.00  0.00    +0.000 A 
ATOM     33  C   UNL     1       4.220   4.470  18.791  0.00  0.00    +0.000 A 
ATOM     34 CL   UNL     1       5.556   5.325  19.504  0.00  0.00    +0.000 Cl
ENDBRANCH  25  27
ENDBRANCH  19  22
ENDBRANCH   5  18
TORSDOF 5
ENDMDL
MODEL 4
REMARK VINA RESULT:      -8.2      1.357      1.595
REMARK  Name = 
REMARK  6 active torsions:
REMARK  status: ('A' for Active; 'I' for Inactive)
REMARK    1  A    between atoms: C_1  and  N_2
REMARK    2  A    between atoms: C_5  and  N_6
REMARK    3  A    between atoms: C_7  and  C_9
REMARK    4  A    between atoms: C_12  and  C_13
REMARK    5  A    between atoms: C_22  and  C_23
REMARK    6  A    between atoms: C_26  and  N_27
REMARK                            x       y       z     vdW  Elec       q    Type
REMARK                         _______ _______ _______ _____ _____    ______ ____
ROOT
ATOM      1  C   UNL     1       4.603   1.867  19.457  0.00  0.00    +0.000 C 
ATOM      2  N   UNL     1       3.656   2.799  20.027  0.00  0.00    +0.000 N 
ATOM      3  N   UNL     1       2.628   2.300  20.740  0.00  0.00    +0.000 NA
ATOM      4  C   UNL     1       1.986   3.384  21.175  0.00  0.00    +0.000 A 
ATOM      5  C   UNL     1       2.556   4.584  20.696  0.00  0.00    +0.000 A 
ATOM      6  C   UNL     1       3.643   4.174  19.933  0.00  0.00    +0.000 A 
ENDROOT
BRANCH   6   7
ATOM      7  C   UNL     1       4.686   4.986  19.236  0.00  0.00    +0.000 C 
ATOM      8  C   UNL     1       4.630   4.982  17.704  0.00  0.00    +0.000 C 
ATOM      9  C   UNL     1       5.224   6.300  17.190  0.00  0.00    +0.000 C 
ATOM     10  C   UNL     1       6.761   6.353  17.106  0.00  0.00    +0.000 C 
ATOM     11  C   UNL     1       7.543   5.504  18.131  0.00  0.00    +0.000 C 
ATOM     12  F   UNL     1       7.577   4.212  17.688  0.00  0.00    +0.000 F 
ATOM     13  C   UNL     1       6.988   5.523  19.553  0.00  0.00    +0.000 C 
ATOM     14  O   UNL     1       5.946   4.559  19.741  0.00  0.00    +0.000 OA
BRANCH  10  15
ATOM     15  N   UNL     1       7.182   7.767  17.138  0.00  0.00    +0.000 NA
ATOM     16  H   UNL     1       8.175   7.851  17.355  0.00  0.00    +0.000 HD
ATOM     17  H   UNL     1       6.688   8.257  17.886  0.00  0.00    +0.000 HD
ENDBRANCH  10  15
ENDBRANCH   6   7
BRANCH   5  18
ATOM     18  N   UNL     1       2.134   5.889  20.919  0.00  0.00    +0.000 N 
ATOM     19  C   UNL     1       1.878   6.790  19.897  0.00  0.00    +0.000 C 
ATOM     20  O   UNL     1       1.881   6.532  18.698  0.00  0.00    +0.000 OA
ATOM     21  H   UNL     1       2.009   6.225  21.867  0.00  0.00    +0.000 HD
BRANCH  19  22
ATOM     22  C   UNL     1       1.620   8.155  20.365  0.00  0.00    +0.000 A 
ATOM     23  C   UNL     1       1.396   8.473  21.692  0.00  0.00    +0.000 A 
ATOM     24  S   UNL     1       0.850  10.079  21.831  0.00  0.00    +0.000 S 
ATOM     25  C   UNL     1       0.926  10.247  20.115  0.00  0.00    +0.000 A 
ATOM     26  N   UNL     1       1.462   9.220  19.481  0.00  0.00    +0.000 NA
BRANCH  25  27
ATOM     27  C   UNL     1       0.418  11.454  19.461  0.00  0.00    +0.000 A 
ATOM     28  C   UNL     1      -0.703  11.369  18.612  0.00  0.00    +0.000 A 
ATOM     29  F   UNL     1      -1.308  10.207  18.338  0.00  0.00    +0.000 F 
ATOM     30  C   UNL     1      -1.186  12.512  18.006  0.00  0.00    +0.000 A 
ATOM     31  N   UNL     1      -0.635  13.730  18.154  0.00  0.00    +0.000 NA
ATOM     32  C   UNL     1       0.468  13.794  18.944  0.00  0.00    +0.000 A 
ATOM     33  C   UNL     1       1.024  12.703  19.595  0.00  0.00    +0.000 A 
ATOM     34 CL   UNL     1       2.451  12.992  20.547  0.00  0.00    +0.000 Cl
ENDBRANCH  25  27
ENDBRANCH  19  22
ENDBRANCH   5  18
TORSDOF 5
ENDMDL
MODEL 5
REMARK VINA RESULT:      -8.1      3.717      9.374
REMARK  Name = 
REMARK  6 active torsions:
REMARK  status: ('A' for Active; 'I' for Inactive)
REMARK    1  A    between atoms: C_1  and  N_2
REMARK    2  A    between atoms: C_5  and  N_6
REMARK    3  A    between atoms: C_7  and  C_9
REMARK    4  A    between atoms: C_12  and  C_13
REMARK    5  A    between atoms: C_22  and  C_23
REMARK    6  A    between atoms: C_26  and  N_27
REMARK                            x       y       z     vdW  Elec       q    Type
REMARK                         _______ _______ _______ _____ _____    ______ ____
ROOT
ATOM      1  C   UNL     1      -1.586  15.050  20.425  0.00  0.00    +0.000 C 
ATOM      2  N   UNL     1      -0.538  14.060  20.320  0.00  0.00    +0.000 N 
ATOM      3  N   UNL     1       0.623  14.296  20.962  0.00  0.00    +0.000 NA
ATOM      4  C   UNL     1       1.343  13.199  20.730  0.00  0.00    +0.000 A 
ATOM      5  C   UNL     1       0.681  12.279  19.889  0.00  0.00    +0.000 A 
ATOM      6  C   UNL     1      -0.548  12.872  19.621  0.00  0.00    +0.000 A 
ENDROOT
BRANCH   6   7
ATOM      7  C   UNL     1      -1.719  12.349  18.856  0.00  0.00    +0.000 C 
ATOM      8  C   UNL     1      -2.891  11.825  19.694  0.00  0.00    +0.000 C 
ATOM      9  C   UNL     1      -4.184  11.990  18.884  0.00  0.00    +0.000 C 
ATOM     10  C   UNL     1      -4.468  10.887  17.848  0.00  0.00    +0.000 C 
ATOM     11  C   UNL     1      -3.243  10.200  17.210  0.00  0.00    +0.000 C 
ATOM     12  F   UNL     1      -2.781   9.247  18.075  0.00  0.00    +0.000 F 
ATOM     13  C   UNL     1      -2.091  11.131  16.840  0.00  0.00    +0.000 C 
ATOM     14  O   UNL     1      -1.216  11.377  17.947  0.00  0.00    +0.000 OA
BRANCH  10  15
ATOM     15  N   UNL     1      -5.380  11.433  16.822  0.00  0.00    +0.000 NA
ATOM     16  H   UNL     1      -6.040  10.725  16.503  0.00  0.00    +0.000 HD
ATOM     17  H   UNL     1      -4.844  11.712  15.999  0.00  0.00    +0.000 HD
ENDBRANCH  10  15
ENDBRANCH   6   7
BRANCH   5  18
ATOM     18  N   UNL     1       1.140  11.054  19.417  0.00  0.00    +0.000 N 
ATOM     19  C   UNL     1       0.948   9.859  20.094  0.00  0.00    +0.000 C 
ATOM     20  O   UNL     1       0.274   9.711  21.107  0.00  0.00    +0.000 OA
ATOM     21  H   UNL     1       1.651  11.009  18.543  0.00  0.00    +0.000 HD
BRANCH  19  22
ATOM     22  C   UNL     1       1.669   8.727  19.505  0.00  0.00    +0.000 A 
ATOM     23  C   UNL     1       1.981   8.641  18.161  0.00  0.00    +0.000 A 
ATOM     24  S   UNL     1       2.551   7.082  17.785  0.00  0.00    +0.000 S 
ATOM     25  C   UNL     1       2.329   6.610  19.430  0.00  0.00    +0.000 A 
ATOM     26  N   UNL     1       1.987   7.591  20.246  0.00  0.00    +0.000 NA
BRANCH  25  27
ATOM     27  C   UNL     1       2.513   5.217  19.837  0.00  0.00    +0.000 A 
ATOM     28  C   UNL     1       1.429   4.497  20.377  0.00  0.00    +0.000 A 
ATOM     29  F   UNL     1       0.229   5.054  20.576  0.00  0.00    +0.000 F 
ATOM     30  C   UNL     1       1.604   3.179  20.750  0.00  0.00    +0.000 A 
ATOM     31  N   UNL     1       2.774   2.521  20.652  0.00  0.00    +0.000 NA
ATOM     32  C   UNL     1       3.822   3.236  20.167  0.00  0.00    +0.000 A 
ATOM     33  C   UNL     1       3.743   4.561  19.766  0.00  0.00    +0.000 A 
ATOM     34 CL   UNL     1       5.206   5.303  19.190  0.00  0.00    +0.000 Cl
ENDBRANCH  25  27
ENDBRANCH  19  22
ENDBRANCH   5  18
TORSDOF 5
ENDMDL
MODEL 6
REMARK VINA RESULT:      -8.0      1.415      1.465
REMARK  Name = 
REMARK  6 active torsions:
REMARK  status: ('A' for Active; 'I' for Inactive)
REMARK    1  A    between atoms: C_1  and  N_2
REMARK    2  A    between atoms: C_5  and  N_6
REMARK    3  A    between atoms: C_7  and  C_9
REMARK    4  A    between atoms: C_12  and  C_13
REMARK    5  A    between atoms: C_22  and  C_23
REMARK    6  A    between atoms: C_26  and  N_27
REMARK                            x       y       z     vdW  Elec       q    Type
REMARK                         _______ _______ _______ _____ _____    ______ ____
ROOT
ATOM      1  C   UNL     1       4.345   2.835  16.752  0.00  0.00    +0.000 C 
ATOM      2  N   UNL     1       3.352   3.740  17.286  0.00  0.00    +0.000 N 
ATOM      3  N   UNL     1       2.058   3.368  17.226  0.00  0.00    +0.000 NA
ATOM      4  C   UNL     1       1.413   4.360  17.839  0.00  0.00    +0.000 A 
ATOM      5  C   UNL     1       2.275   5.404  18.242  0.00  0.00    +0.000 A 
ATOM      6  C   UNL     1       3.541   4.980  17.856  0.00  0.00    +0.000 A 
ENDROOT
BRANCH   6   7
ATOM      7  C   UNL     1       4.875   5.615  18.082  0.00  0.00    +0.000 C 
ATOM      8  C   UNL     1       5.637   6.047  16.824  0.00  0.00    +0.000 C 
ATOM      9  C   UNL     1       6.551   7.225  17.187  0.00  0.00    +0.000 C 
ATOM     10  C   UNL     1       7.894   6.853  17.840  0.00  0.00    +0.000 C 
ATOM     11  C   UNL     1       7.920   5.568  18.695  0.00  0.00    +0.000 C 
ATOM     12  F   UNL     1       8.045   4.494  17.859  0.00  0.00    +0.000 F 
ATOM     13  C   UNL     1       6.703   5.357  19.591  0.00  0.00    +0.000 C 
ATOM     14  O   UNL     1       5.623   4.722  18.898  0.00  0.00    +0.000 OA
BRANCH  10  15
ATOM     15  N   UNL     1       8.384   8.020  18.599  0.00  0.00    +0.000 NA
ATOM     16  H   UNL     1       8.930   7.729  19.410  0.00  0.00    +0.000 HD
ATOM     17  H   UNL     1       7.592   8.549  18.968  0.00  0.00    +0.000 HD
ENDBRANCH  10  15
ENDBRANCH   6   7
BRANCH   5  18
ATOM     18  N   UNL     1       1.948   6.597  18.876  0.00  0.00    +0.000 N 
ATOM     19  C   UNL     1       1.841   6.720  20.253  0.00  0.00    +0.000 C 
ATOM     20  O   UNL     1       2.120   5.853  21.073  0.00  0.00    +0.000 OA
ATOM     21  H   UNL     1       1.764   7.428  18.327  0.00  0.00    +0.000 HD
BRANCH  19  22
ATOM     22  C   UNL     1       1.312   8.016  20.689  0.00  0.00    +0.000 A 
ATOM     23  C   UNL     1       0.565   8.183  21.841  0.00  0.00    +0.000 A 
ATOM     24  S   UNL     1      -0.119   9.741  21.881  0.00  0.00    +0.000 S 
ATOM     25  C   UNL     1       0.604  10.092  20.354  0.00  0.00    +0.000 A 
ATOM     26  N   UNL     1       1.425   9.160  19.903  0.00  0.00    +0.000 NA
BRANCH  25  27
ATOM     27  C   UNL     1       0.295  11.337  19.652  0.00  0.00    +0.000 A 
ATOM     28  C   UNL     1       1.031  12.503  19.941  0.00  0.00    +0.000 A 
ATOM     29  F   UNL     1       1.987  12.533  20.876  0.00  0.00    +0.000 F 
ATOM     30  C   UNL     1       0.743  13.675  19.268  0.00  0.00    +0.000 A 
ATOM     31  N   UNL     1      -0.230  13.791  18.346  0.00  0.00    +0.000 NA
ATOM     32  C   UNL     1      -0.959  12.671  18.103  0.00  0.00    +0.000 A 
ATOM     33  C   UNL     1      -0.743  11.451  18.726  0.00  0.00    +0.000 A 
ATOM     34 CL   UNL     1      -1.799  10.140  18.289  0.00  0.00    +0.000 Cl
ENDBRANCH  25  27
ENDBRANCH  19  22
ENDBRANCH   5  18
TORSDOF 5
ENDMDL
MODEL 7
REMARK VINA RESULT:      -7.9      1.869      2.198
REMARK  Name = 
REMARK  6 active torsions:
REMARK  status: ('A' for Active; 'I' for Inactive)
REMARK    1  A    between atoms: C_1  and  N_2
REMARK    2  A    between atoms: C_5  and  N_6
REMARK    3  A    between atoms: C_7  and  C_9
REMARK    4  A    between atoms: C_12  and  C_13
REMARK    5  A    between atoms: C_22  and  C_23
REMARK    6  A    between atoms: C_26  and  N_27
REMARK                            x       y       z     vdW  Elec       q    Type
REMARK                         _______ _______ _______ _____ _____    ______ ____
ROOT
ATOM      1  C   UNL     1       3.920   2.172  20.338  0.00  0.00    +0.000 C 
ATOM      2  N   UNL     1       3.223   3.438  20.383  0.00  0.00    +0.000 N 
ATOM      3  N   UNL     1       2.249   3.593  21.300  0.00  0.00    +0.000 NA
ATOM      4  C   UNL     1       1.853   4.855  21.134  0.00  0.00    +0.000 A 
ATOM      5  C   UNL     1       2.523   5.501  20.073  0.00  0.00    +0.000 A 
ATOM      6  C   UNL     1       3.408   4.547  19.585  0.00  0.00    +0.000 A 
ENDROOT
BRANCH   6   7
ATOM      7  C   UNL     1       4.447   4.660  18.518  0.00  0.00    +0.000 C 
ATOM      8  C   UNL     1       5.649   5.555  18.840  0.00  0.00    +0.000 C 
ATOM      9  C   UNL     1       6.863   5.048  18.049  0.00  0.00    +0.000 C 
ATOM     10  C   UNL     1       6.946   5.511  16.583  0.00  0.00    +0.000 C 
ATOM     11  C   UNL     1       5.608   5.769  15.859  0.00  0.00    +0.000 C 
ATOM     12  F   UNL     1       5.157   7.011  16.211  0.00  0.00    +0.000 F 
ATOM     13  C   UNL     1       4.508   4.748  16.135  0.00  0.00    +0.000 C 
ATOM     14  O   UNL     1       3.774   5.051  17.327  0.00  0.00    +0.000 OA
BRANCH  10  15
ATOM     15  N   UNL     1       7.792   4.557  15.839  0.00  0.00    +0.000 NA
ATOM     16  H   UNL     1       8.519   4.166  16.437  0.00  0.00    +0.000 HD
ATOM     17  H   UNL     1       8.279   5.045  15.085  0.00  0.00    +0.000 HD
ENDBRANCH  10  15
ENDBRANCH   6   7
BRANCH   5  18
ATOM     18  N   UNL     1       2.344   6.797  19.601  0.00  0.00    +0.000 N 
ATOM     19  C   UNL     1       1.662   7.775  20.309  0.00  0.00    +0.000 C 
ATOM     20  O   UNL     1       1.236   7.665  21.453  0.00  0.00    +0.000 OA
ATOM     21  H   UNL     1       2.713   7.061  18.695  0.00  0.00    +0.000 HD
BRANCH  19  22
ATOM     22  C   UNL     1       1.441   9.007  19.547  0.00  0.00    +0.000 A 
ATOM     23  C   UNL     1       2.025   9.255  18.318  0.00  0.00    +0.000 A 
ATOM     24  S   UNL     1       1.785  10.879  17.867  0.00  0.00    +0.000 S 
ATOM     25  C   UNL     1       0.936  11.158  19.343  0.00  0.00    +0.000 A 
ATOM     26  N   UNL     1       0.716  10.076  20.068  0.00  0.00    +0.000 NA
BRANCH  25  27
ATOM     27  C   UNL     1       0.518  12.509  19.718  0.00  0.00    +0.000 A 
ATOM     28  C   UNL     1       1.472  13.427  20.199  0.00  0.00    +0.000 A 
ATOM     29  F   UNL     1       2.758  13.099  20.372  0.00  0.00    +0.000 F 
ATOM     30  C   UNL     1       1.076  14.704  20.542  0.00  0.00    +0.000 A 
ATOM     31  N   UNL     1      -0.194  15.142  20.467  0.00  0.00    +0.000 NA
ATOM     32  C   UNL     1      -1.112  14.237  20.038  0.00  0.00    +0.000 A 
ATOM     33  C   UNL     1      -0.810  12.934  19.671  0.00  0.00    +0.000 A 
ATOM     34 CL   UNL     1      -2.133  11.926  19.166  0.00  0.00    +0.000 Cl
ENDBRANCH  25  27
ENDBRANCH  19  22
ENDBRANCH   5  18
TORSDOF 5
ENDMDL
MODEL 8
REMARK VINA RESULT:      -7.8      1.242      1.359
REMARK  Name = 
REMARK  6 active torsions:
REMARK  status: ('A' for Active; 'I' for Inactive)
REMARK    1  A    between atoms: C_1  and  N_2
REMARK    2  A    between atoms: C_5  and  N_6
REMARK    3  A    between atoms: C_7  and  C_9
REMARK    4  A    between atoms: C_12  and  C_13
REMARK    5  A    between atoms: C_22  and  C_23
REMARK    6  A    between atoms: C_26  and  N_27
REMARK                            x       y       z     vdW  Elec       q    Type
REMARK                         _______ _______ _______ _____ _____    ______ ____
ROOT
ATOM      1  C   UNL     1       4.190   1.860  18.479  0.00  0.00    +0.000 C 
ATOM      2  N   UNL     1       3.277   2.776  19.125  0.00  0.00    +0.000 N 
ATOM      3  N   UNL     1       2.163   2.269  19.688  0.00  0.00    +0.000 NA
ATOM      4  C   UNL     1       1.575   3.329  20.242  0.00  0.00    +0.000 A 
ATOM      5  C   UNL     1       2.269   4.532  19.988  0.00  0.00    +0.000 A 
ATOM      6  C   UNL     1       3.376   4.146  19.241  0.00  0.00    +0.000 A 
ENDROOT
BRANCH   6   7
ATOM      7  C   UNL     1       4.527   4.958  18.742  0.00  0.00    +0.000 C 
ATOM      8  C   UNL     1       4.689   5.032  17.219  0.00  0.00    +0.000 C 
ATOM      9  C   UNL     1       5.382   6.355  16.865  0.00  0.00    +0.000 C 
ATOM     10  C   UNL     1       6.915   6.363  17.001  0.00  0.00    +0.000 C 
ATOM     11  C   UNL     1       7.523   5.440  18.079  0.00  0.00    +0.000 C 
ATOM     12  F   UNL     1       7.588   4.171  17.576  0.00  0.00    +0.000 F 
ATOM     13  C   UNL     1       6.772   5.406  19.407  0.00  0.00    +0.000 C 
ATOM     14  O   UNL     1       5.691   4.467  19.395  0.00  0.00    +0.000 OA
BRANCH  10  15
ATOM     15  N   UNL     1       7.363   7.760  17.167  0.00  0.00    +0.000 NA
ATOM     16  H   UNL     1       8.018   8.026  16.433  0.00  0.00    +0.000 HD
ATOM     17  H   UNL     1       7.871   7.856  18.048  0.00  0.00    +0.000 HD
ENDBRANCH  10  15
ENDBRANCH   6   7
BRANCH   5  18
ATOM     18  N   UNL     1       1.932   5.822  20.381  0.00  0.00    +0.000 N 
ATOM     19  C   UNL     1       1.801   6.877  19.491  0.00  0.00    +0.000 C 
ATOM     20  O   UNL     1       1.852   6.793  18.269  0.00  0.00    +0.000 OA
ATOM     21  H   UNL     1       1.779   6.029  21.361  0.00  0.00    +0.000 HD
BRANCH  19  22
ATOM     22  C   UNL     1       1.618   8.178  20.141  0.00  0.00    +0.000 A 
ATOM     23  C   UNL     1       1.505   8.332  21.510  0.00  0.00    +0.000 A 
ATOM     24  S   UNL     1       1.017   9.919  21.888  0.00  0.00    +0.000 S 
ATOM     25  C   UNL     1       0.967  10.298  20.205  0.00  0.00    +0.000 A 
ATOM     26  N   UNL     1       1.424   9.347  19.410  0.00  0.00    +0.000 NA
BRANCH  25  27
ATOM     27  C   UNL     1       0.445  11.585  19.747  0.00  0.00    +0.000 A 
ATOM     28  C   UNL     1      -0.803  12.040  20.215  0.00  0.00    +0.000 A 
ATOM     29  F   UNL     1      -1.566  11.315  21.041  0.00  0.00    +0.000 F 
ATOM     30  C   UNL     1      -1.288  13.261  19.788  0.00  0.00    +0.000 A 
ATOM     31  N   UNL     1      -0.645  14.060  18.917  0.00  0.00    +0.000 NA
ATOM     32  C   UNL     1       0.539  13.594  18.441  0.00  0.00    +0.000 A 
ATOM     33  C   UNL     1       1.106  12.384  18.813  0.00  0.00    +0.000 A 
ATOM     34 CL   UNL     1       2.622  11.960  18.075  0.00  0.00    +0.000 Cl
ENDBRANCH  25  27
ENDBRANCH  19  22
ENDBRANCH   5  18
TORSDOF 5
ENDMDL
MODEL 9
REMARK VINA RESULT:      -7.8      1.910      2.113
REMARK  Name = 
REMARK  6 active torsions:
REMARK  status: ('A' for Active; 'I' for Inactive)
REMARK    1  A    between atoms: C_1  and  N_2
REMARK    2  A    between atoms: C_5  and  N_6
REMARK    3  A    between atoms: C_7  and  C_9
REMARK    4  A    between atoms: C_12  and  C_13
REMARK    5  A    between atoms: C_22  and  C_23
REMARK    6  A    between atoms: C_26  and  N_27
REMARK                            x       y       z     vdW  Elec       q    Type
REMARK                         _______ _______ _______ _____ _____    ______ ____
ROOT
ATOM      1  C   UNL     1       4.291   2.740  16.864  0.00  0.00    +0.000 C 
ATOM      2  N   UNL     1       3.307   3.650  17.404  0.00  0.00    +0.000 N 
ATOM      3  N   UNL     1       2.016   3.263  17.401  0.00  0.00    +0.000 NA
ATOM      4  C   UNL     1       1.381   4.267  18.006  0.00  0.00    +0.000 A 
ATOM      5  C   UNL     1       2.244   5.332  18.345  0.00  0.00    +0.000 A 
ATOM      6  C   UNL     1       3.501   4.911  17.927  0.00  0.00    +0.000 A 
ENDROOT
BRANCH   6   7
ATOM      7  C   UNL     1       4.834   5.566  18.086  0.00  0.00    +0.000 C 
ATOM      8  C   UNL     1       5.541   5.976  16.789  0.00  0.00    +0.000 C 
ATOM      9  C   UNL     1       6.452   7.174  17.087  0.00  0.00    +0.000 C 
ATOM     10  C   UNL     1       7.825   6.835  17.696  0.00  0.00    +0.000 C 
ATOM     11  C   UNL     1       7.900   5.572  18.581  0.00  0.00    +0.000 C 
ATOM     12  F   UNL     1       8.007   4.479  17.767  0.00  0.00    +0.000 F 
ATOM     13  C   UNL     1       6.722   5.368  19.529  0.00  0.00    +0.000 C 
ATOM     14  O   UNL     1       5.624   4.703  18.894  0.00  0.00    +0.000 OA
BRANCH  10  15
ATOM     15  N   UNL     1       8.329   8.026  18.407  0.00  0.00    +0.000 NA
ATOM     16  H   UNL     1       9.295   8.226  18.151  0.00  0.00    +0.000 HD
ATOM     17  H   UNL     1       8.334   7.850  19.413  0.00  0.00    +0.000 HD
ENDBRANCH  10  15
ENDBRANCH   6   7
BRANCH   5  18
ATOM     18  N   UNL     1       1.924   6.541  18.953  0.00  0.00    +0.000 N 
ATOM     19  C   UNL     1       1.796   6.690  20.326  0.00  0.00    +0.000 C 
ATOM     20  O   UNL     1       2.047   5.833  21.165  0.00  0.00    +0.000 OA
ATOM     21  H   UNL     1       1.763   7.365  18.386  0.00  0.00    +0.000 HD
BRANCH  19  22
ATOM     22  C   UNL     1       1.280   8.001  20.730  0.00  0.00    +0.000 A 
ATOM     23  C   UNL     1       0.653   8.230  21.940  0.00  0.00    +0.000 A 
ATOM     24  S   UNL     1      -0.066   9.773  21.951  0.00  0.00    +0.000 S 
ATOM     25  C   UNL     1       0.485  10.035  20.337  0.00  0.00    +0.000 A 
ATOM     26  N   UNL     1       1.280   9.092  19.863  0.00  0.00    +0.000 NA
BRANCH  25  27
ATOM     27  C   UNL     1       0.070  11.224  19.592  0.00  0.00    +0.000 A 
ATOM     28  C   UNL     1      -1.007  11.141  18.688  0.00  0.00    +0.000 A 
ATOM     29  F   UNL     1      -1.651   9.994  18.445  0.00  0.00    +0.000 F 
ATOM     30  C   UNL     1      -1.402  12.268  17.995  0.00  0.00    +0.000 A 
ATOM     31  N   UNL     1      -0.802  13.467  18.107  0.00  0.00    +0.000 NA
ATOM     32  C   UNL     1       0.260  13.526  18.952  0.00  0.00    +0.000 A 
ATOM     33  C   UNL     1       0.728  12.450  19.691  0.00  0.00    +0.000 A 
ATOM     34 CL   UNL     1       2.114  12.728  20.703  0.00  0.00    +0.000 Cl
ENDBRANCH  25  27
ENDBRANCH  19  22
ENDBRANCH   5  18
TORSDOF 5
ENDMDL
