MODEL 1
REMARK VINA RESULT:      -8.4      0.000      0.000
REMARK  Name = 
REMARK  8 active torsions:
REMARK  status: ('A' for Active; 'I' for Inactive)
REMARK    1  A    between atoms: C_2  and  C_25
REMARK    2  A    between atoms: N_3  and  C_4
REMARK    3  A    between atoms: C_4  and  C_5
REMARK    4  A    between atoms: C_5  and  C_6
REMARK    5  A    between atoms: C_6  and  N_7
REMARK    6  A    between atoms: N_7  and  C_8
REMARK    7  A    between atoms: N_11  and  C_12
REMARK    8  A    between atoms: C_21  and  C_22
REMARK                            x       y       z     vdW  Elec       q    Type
REMARK                         _______ _______ _______ _____ _____    ______ ____
ROOT
ATOM      1  C   UNL     1       3.304   5.216  18.497  0.00  0.00    +0.000 A 
ATOM      2  N   UNL     1       4.379   5.125  17.694  0.00  0.00    +0.000 NA
ATOM      3  C   UNL     1       5.397   4.331  18.046  0.00  0.00    +0.000 A 
ATOM      4  N   UNL     1       6.493   4.206  17.191  0.00  0.00    +0.000 N 
ATOM      5  N   UNL     1       5.430   3.642  19.188  0.00  0.00    +0.000 NA
ATOM      6  C   UNL     1       4.341   3.755  19.980  0.00  0.00    +0.000 A 
ATOM      7  C   UNL     1       3.219   4.528  19.709  0.00  0.00    +0.000 A 
ATOM      8  H   UNL     1       7.156   3.559  17.594  0.00  0.00    +0.000 HD
ENDROOT
BRANCH   4   9
ATOM      9  C   UNL     1       6.501   4.259  15.785  0.00  0.00    +0.000 A 
ATOM     10  C   UNL     1       5.521   3.633  14.997  0.00  0.00    +0.000 A 
ATOM     11  C   UNL     1       5.550   3.707  13.602  0.00  0.00    +0.000 A 
ATOM     12  C   UNL     1       6.562   4.423  12.971  0.00  0.00    +0.000 A 
ATOM     13  C   UNL     1       7.532   5.049  13.743  0.00  0.00    +0.000 A 
ATOM     14  F   UNL     1       8.500   5.751  13.137  0.00  0.00    +0.000 F 
ATOM     15  C   UNL     1       7.518   4.967  15.134  0.00  0.00    +0.000 A 
ENDBRANCH   4   9
BRANCH   7  16
ATOM     16  C   UNL     1       2.017   4.519  20.630  0.00  0.00    +0.000 C 
ATOM     17  C   UNL     1       0.852   3.585  20.378  0.00  0.00    +0.000 C 
ATOM     18  C   UNL     1       1.747   3.357  21.557  0.00  0.00    +0.000 C 
ENDBRANCH   7  16
BRANCH   1  19
ATOM     19  N   UNL     1       2.243   6.056  18.084  0.00  0.00    +0.000 N 
ATOM     20  H   UNL     1       2.233   6.088  17.068  0.00  0.00    +0.000 HD
BRANCH  19  21
ATOM     21  C   UNL     1       2.263   7.396  18.686  0.00  0.00    +0.000 C 
BRANCH  21  22
ATOM     22  C   UNL     1       2.502   8.445  17.600  0.00  0.00    +0.000 C 
BRANCH  22  23
ATOM     23  C   UNL     1       2.077   9.840  18.056  0.00  0.00    +0.000 C 
BRANCH  23  26
ATOM     24  O   UNL     1      -0.045   9.929  19.876  0.00  0.00    +0.000 OA
ATOM     25  C   UNL     1      -0.301  10.156  18.692  0.00  0.00    +0.000 C 
ATOM     26  N   UNL     1       0.688  10.110  17.730  0.00  0.00    +0.000 N 
ATOM     27  H   UNL     1       0.440  10.368  16.782  0.00  0.00    +0.000 HD
BRANCH  25  28
ATOM     28  C   UNL     1      -1.643  10.498  18.236  0.00  0.00    +0.000 A 
ATOM     29  C   UNL     1      -2.352   9.863  17.229  0.00  0.00    +0.000 A 
ATOM     30  C   UNL     1      -3.642  10.430  17.017  0.00  0.00    +0.000 A 
ATOM     31  C   UNL     1      -3.879  11.488  17.864  0.00  0.00    +0.000 A 
ATOM     32  S   UNL     1      -2.558  11.783  18.909  0.00  0.00    +0.000 S 
ENDBRANCH  25  28
ENDBRANCH  23  26
ENDBRANCH  22  23
ENDBRANCH  21  22
ENDBRANCH  19  21
ENDBRANCH   1  19
TORSDOF 8
ENDMDL
MODEL 2
REMARK VINA RESULT:      -8.4      1.011      1.360
REMARK  Name = 
REMARK  8 active torsions:
REMARK  status: ('A' for Active; 'I' for Inactive)
REMARK    1  A    between atoms: C_2  and  C_25
REMARK    2  A    between atoms: N_3  and  C_4
REMARK    3  A    between atoms: C_4  and  C_5
REMARK    4  A    between atoms: C_5  and  C_6
REMARK    5  A    between atoms: C_6  and  N_7
REMARK    6  A    between atoms: N_7  and  C_8
REMARK    7  A    between atoms: N_11  and  C_12
REMARK    8  A    between atoms: C_21  and  C_22
REMARK                            x       y       z     vdW  Elec       q    Type
REMARK                         _______ _______ _______ _____ _____    ______ ____
ROOT
ATOM      1  C   UNL     1       3.343   5.332  18.431  0.00  0.00    +0.000 A 
ATOM      2  N   UNL     1       4.471   5.221  17.707  0.00  0.00    +0.000 NA
ATOM      3  C   UNL     1       5.384   4.304  18.047  0.00  0.00    +0.000 A 
ATOM      4  N   UNL     1       6.535   4.164  17.269  0.00  0.00    +0.000 N 
ATOM      5  N   UNL     1       5.261   3.504  19.107  0.00  0.00    +0.000 NA
ATOM      6  C   UNL     1       4.123   3.638  19.822  0.00  0.00    +0.000 A 
ATOM      7  C   UNL     1       3.098   4.536  19.553  0.00  0.00    +0.000 A 
ATOM      8  H   UNL     1       7.104   3.420  17.649  0.00  0.00    +0.000 HD
ENDROOT
BRANCH   4   9
ATOM      9  C   UNL     1       6.666   4.357  15.882  0.00  0.00    +0.000 A 
ATOM     10  C   UNL     1       7.580   5.266  15.326  0.00  0.00    +0.000 A 
ATOM     11  C   UNL     1       7.694   5.432  13.943  0.00  0.00    +0.000 A 
ATOM     12  C   UNL     1       6.896   4.676  13.090  0.00  0.00    +0.000 A 
ATOM     13  C   UNL     1       5.994   3.770  13.632  0.00  0.00    +0.000 A 
ATOM     14  F   UNL     1       5.234   3.031  12.811  0.00  0.00    +0.000 F 
ATOM     15  C   UNL     1       5.864   3.611  15.010  0.00  0.00    +0.000 A 
ENDBRANCH   4   9
BRANCH   7  16
ATOM     16  C   UNL     1       1.825   4.547  20.374  0.00  0.00    +0.000 C 
ATOM     17  C   UNL     1       0.730   3.532  20.123  0.00  0.00    +0.000 C 
ATOM     18  C   UNL     1       1.534   3.463  21.384  0.00  0.00    +0.000 C 
ENDBRANCH   7  16
BRANCH   1  19
ATOM     19  N   UNL     1       2.397   6.304  18.033  0.00  0.00    +0.000 N 
ATOM     20  H   UNL     1       2.425   6.386  17.020  0.00  0.00    +0.000 HD
BRANCH  19  21
ATOM     21  C   UNL     1       2.545   7.603  18.703  0.00  0.00    +0.000 C 
BRANCH  21  22
ATOM     22  C   UNL     1       2.235   8.730  17.718  0.00  0.00    +0.000 C 
BRANCH  22  23
ATOM     23  C   UNL     1       1.386   9.827  18.361  0.00  0.00    +0.000 C 
BRANCH  23  26
ATOM     24  O   UNL     1      -1.066  10.457  19.548  0.00  0.00    +0.000 OA
ATOM     25  C   UNL     1      -1.042  10.337  18.322  0.00  0.00    +0.000 C 
ATOM     26  N   UNL     1       0.126  10.006  17.663  0.00  0.00    +0.000 N 
ATOM     27  H   UNL     1       0.108   9.983  16.651  0.00  0.00    +0.000 HD
BRANCH  25  28
ATOM     28  C   UNL     1      -2.224  10.547  17.495  0.00  0.00    +0.000 A 
ATOM     29  C   UNL     1      -2.400  10.110  16.192  0.00  0.00    +0.000 A 
ATOM     30  C   UNL     1      -3.668  10.472  15.652  0.00  0.00    +0.000 A 
ATOM     31  C   UNL     1      -4.423  11.182  16.556  0.00  0.00    +0.000 A 
ATOM     32  S   UNL     1      -3.607  11.400  18.044  0.00  0.00    +0.000 S 
ENDBRANCH  25  28
ENDBRANCH  23  26
ENDBRANCH  22  23
ENDBRANCH  21  22
ENDBRANCH  19  21
ENDBRANCH   1  19
TORSDOF 8
ENDMDL
MODEL 3
REMARK VINA RESULT:      -8.3      1.588      2.159
REMARK  Name = 
REMARK  8 active torsions:
REMARK  status: ('A' for Active; 'I' for Inactive)
REMARK    1  A    between atoms: C_2  and  C_25
REMARK    2  A    between atoms: N_3  and  C_4
REMARK    3  A    between atoms: C_4  and  C_5
REMARK    4  A    between atoms: C_5  and  C_6
REMARK    5  A    between atoms: C_6  and  N_7
REMARK    6  A    between atoms: N_7  and  C_8
REMARK    7  A    between atoms: N_11  and  C_12
REMARK    8  A    between atoms: C_21  and  C_22
REMARK                            x       y       z     vdW  Elec       q    Type
REMARK                         _______ _______ _______ _____ _____    ______ ____
ROOT
ATOM      1  C   UNL     1       3.275   5.080  18.655  0.00  0.00    +0.000 A 
ATOM      2  N   UNL     1       4.342   5.012  17.840  0.00  0.00    +0.000 NA
ATOM      3  C   UNL     1       5.352   4.190  18.145  0.00  0.00    +0.000 A 
ATOM      4  N   UNL     1       6.440   4.091  17.276  0.00  0.00    +0.000 N 
ATOM      5  N   UNL     1       5.385   3.448  19.254  0.00  0.00    +0.000 NA
ATOM      6  C   UNL     1       4.304   3.538  20.059  0.00  0.00    +0.000 A 
ATOM      7  C   UNL     1       3.191   4.337  19.835  0.00  0.00    +0.000 A 
ATOM      8  H   UNL     1       7.097   3.417  17.643  0.00  0.00    +0.000 HD
ENDROOT
BRANCH   4   9
ATOM      9  C   UNL     1       6.437   4.209  15.874  0.00  0.00    +0.000 A 
ATOM     10  C   UNL     1       5.418   3.673  15.070  0.00  0.00    +0.000 A 
ATOM     11  C   UNL     1       5.438   3.810  13.679  0.00  0.00    +0.000 A 
ATOM     12  C   UNL     1       6.480   4.502  13.071  0.00  0.00    +0.000 A 
ATOM     13  C   UNL     1       7.488   5.041  13.859  0.00  0.00    +0.000 A 
ATOM     14  F   UNL     1       8.486   5.719  13.275  0.00  0.00    +0.000 F 
ATOM     15  C   UNL     1       7.483   4.893  15.244  0.00  0.00    +0.000 A 
ENDBRANCH   4   9
BRANCH   7  16
ATOM     16  C   UNL     1       1.996   4.300  20.765  0.00  0.00    +0.000 C 
ATOM     17  C   UNL     1       0.799   3.424  20.459  0.00  0.00    +0.000 C 
ATOM     18  C   UNL     1       1.696   3.084  21.609  0.00  0.00    +0.000 C 
ENDBRANCH   7  16
BRANCH   1  19
ATOM     19  N   UNL     1       2.222   5.952  18.292  0.00  0.00    +0.000 N 
ATOM     20  H   UNL     1       2.097   5.905  17.284  0.00  0.00    +0.000 HD
BRANCH  19  21
ATOM     21  C   UNL     1       2.385   7.330  18.772  0.00  0.00    +0.000 C 
BRANCH  21  22
ATOM     22  C   UNL     1       2.557   8.274  17.581  0.00  0.00    +0.000 C 
BRANCH  22  23
ATOM     23  C   UNL     1       1.872   9.619  17.821  0.00  0.00    +0.000 C 
BRANCH  23  26
ATOM     24  O   UNL     1      -0.650  10.561  18.581  0.00  0.00    +0.000 OA
ATOM     25  C   UNL     1       0.114  10.194  19.475  0.00  0.00    +0.000 C 
ATOM     26  N   UNL     1       1.384   9.737  19.183  0.00  0.00    +0.000 N 
ATOM     27  H   UNL     1       1.949   9.387  19.947  0.00  0.00    +0.000 HD
BRANCH  25  28
ATOM     28  C   UNL     1      -0.270  10.205  20.882  0.00  0.00    +0.000 A 
ATOM     29  C   UNL     1      -0.117   9.162  21.781  0.00  0.00    +0.000 A 
ATOM     30  C   UNL     1      -0.590   9.481  23.086  0.00  0.00    +0.000 A 
ATOM     31  C   UNL     1      -1.097  10.759  23.146  0.00  0.00    +0.000 A 
ATOM     32  S   UNL     1      -0.994  11.563  21.640  0.00  0.00    +0.000 S 
ENDBRANCH  25  28
ENDBRANCH  23  26
ENDBRANCH  22  23
ENDBRANCH  21  22
ENDBRANCH  19  21
ENDBRANCH   1  19
TORSDOF 8
ENDMDL
MODEL 4
REMARK VINA RESULT:      -8.1      1.983      2.531
REMARK  Name = 
REMARK  8 active torsions:
REMARK  status: ('A' for Active; 'I' for Inactive)
REMARK    1  A    between atoms: C_2  and  C_25
REMARK    2  A    between atoms: N_3  and  C_4
REMARK    3  A    between atoms: C_4  and  C_5
REMARK    4  A    between atoms: C_5  and  C_6
REMARK    5  A    between atoms: C_6  and  N_7
REMARK    6  A    between atoms: N_7  and  C_8
REMARK    7  A    between atoms: N_11  and  C_12
REMARK    8  A    between atoms: C_21  and  C_22
REMARK                            x       y       z     vdW  Elec       q    Type
REMARK                         _______ _______ _______ _____ _____    ______ ____
ROOT
ATOM      1  C   UNL     1       3.221   5.024  18.707  0.00  0.00    +0.000 A 
ATOM      2  N   UNL     1       4.341   4.996  17.964  0.00  0.00    +0.000 NA
ATOM      3  C   UNL     1       5.304   4.116  18.259  0.00  0.00    +0.000 A 
ATOM      4  N   UNL     1       6.449   4.062  17.461  0.00  0.00    +0.000 N 
ATOM      5  N   UNL     1       5.237   3.273  19.291  0.00  0.00    +0.000 NA
ATOM      6  C   UNL     1       4.104   3.323  20.025  0.00  0.00    +0.000 A 
ATOM      7  C   UNL     1       3.032   4.177  19.802  0.00  0.00    +0.000 A 
ATOM      8  H   UNL     1       7.060   3.334  17.807  0.00  0.00    +0.000 HD
ENDROOT
BRANCH   4   9
ATOM      9  C   UNL     1       6.550   4.310  16.080  0.00  0.00    +0.000 A 
ATOM     10  C   UNL     1       7.575   5.091  15.523  0.00  0.00    +0.000 A 
ATOM     11  C   UNL     1       7.654   5.316  14.146  0.00  0.00    +0.000 A 
ATOM     12  C   UNL     1       6.708   4.748  13.300  0.00  0.00    +0.000 A 
ATOM     13  C   UNL     1       5.694   3.969  13.841  0.00  0.00    +0.000 A 
ATOM     14  F   UNL     1       4.789   3.410  13.026  0.00  0.00    +0.000 F 
ATOM     15  C   UNL     1       5.600   3.754  15.215  0.00  0.00    +0.000 A 
ENDBRANCH   4   9
BRANCH   7  16
ATOM     16  C   UNL     1       1.773   4.094  20.639  0.00  0.00    +0.000 C 
ATOM     17  C   UNL     1       0.608   3.228  20.208  0.00  0.00    +0.000 C 
ATOM     18  C   UNL     1       1.421   2.842  21.405  0.00  0.00    +0.000 C 
ENDBRANCH   7  16
BRANCH   1  19
ATOM     19  N   UNL     1       2.221   5.961  18.357  0.00  0.00    +0.000 N 
ATOM     20  H   UNL     1       2.094   5.935  17.348  0.00  0.00    +0.000 HD
BRANCH  19  21
ATOM     21  C   UNL     1       2.465   7.321  18.855  0.00  0.00    +0.000 C 
BRANCH  21  22
ATOM     22  C   UNL     1       2.616   8.283  17.676  0.00  0.00    +0.000 C 
BRANCH  22  23
ATOM     23  C   UNL     1       1.835   9.578  17.897  0.00  0.00    +0.000 C 
BRANCH  23  26
ATOM     24  O   UNL     1       0.533  11.780  19.029  0.00  0.00    +0.000 OA
ATOM     25  C   UNL     1       0.598  10.750  19.701  0.00  0.00    +0.000 C 
ATOM     26  N   UNL     1       1.243   9.626  19.222  0.00  0.00    +0.000 N 
ATOM     27  H   UNL     1       1.214   8.786  19.786  0.00  0.00    +0.000 HD
BRANCH  25  28
ATOM     28  C   UNL     1      -0.004  10.643  21.026  0.00  0.00    +0.000 A 
ATOM     29  C   UNL     1       0.135   9.584  21.906  0.00  0.00    +0.000 A 
ATOM     30  C   UNL     1      -0.577   9.777  23.124  0.00  0.00    +0.000 A 
ATOM     31  C   UNL     1      -1.247  10.979  23.138  0.00  0.00    +0.000 A 
ATOM     32  S   UNL     1      -1.008  11.863  21.693  0.00  0.00    +0.000 S 
ENDBRANCH  25  28
ENDBRANCH  23  26
ENDBRANCH  22  23
ENDBRANCH  21  22
ENDBRANCH  19  21
ENDBRANCH   1  19
TORSDOF 8
ENDMDL
MODEL 5
REMARK VINA RESULT:      -8.1      3.448      5.509
REMARK  Name = 
REMARK  8 active torsions:
REMARK  status: ('A' for Active; 'I' for Inactive)
REMARK    1  A    between atoms: C_2  and  C_25
REMARK    2  A    between atoms: N_3  and  C_4
REMARK    3  A    between atoms: C_4  and  C_5
REMARK    4  A    between atoms: C_5  and  C_6
REMARK    5  A    between atoms: C_6  and  N_7
REMARK    6  A    between atoms: N_7  and  C_8
REMARK    7  A    between atoms: N_11  and  C_12
REMARK    8  A    between atoms: C_21  and  C_22
REMARK                            x       y       z     vdW  Elec       q    Type
REMARK                         _______ _______ _______ _____ _____    ______ ____
ROOT
ATOM      1  C   UNL     1       6.209   6.200  17.356  0.00  0.00    +0.000 A 
ATOM      2  N   UNL     1       5.532   5.138  17.826  0.00  0.00    +0.000 NA
ATOM      3  C   UNL     1       5.923   4.561  18.967  0.00  0.00    +0.000 A 
ATOM      4  N   UNL     1       5.193   3.484  19.473  0.00  0.00    +0.000 N 
ATOM      5  N   UNL     1       6.991   4.957  19.662  0.00  0.00    +0.000 NA
ATOM      6  C   UNL     1       7.658   6.022  19.167  0.00  0.00    +0.000 A 
ATOM      7  C   UNL     1       7.334   6.713  18.007  0.00  0.00    +0.000 A 
ATOM      8  H   UNL     1       5.608   3.182  20.345  0.00  0.00    +0.000 HD
ENDROOT
BRANCH   4   9
ATOM      9  C   UNL     1       3.809   3.255  19.369  0.00  0.00    +0.000 A 
ATOM     10  C   UNL     1       3.267   2.233  18.573  0.00  0.00    +0.000 A 
ATOM     11  C   UNL     1       1.887   2.025  18.493  0.00  0.00    +0.000 A 
ATOM     12  C   UNL     1       1.025   2.835  19.224  0.00  0.00    +0.000 A 
ATOM     13  C   UNL     1       1.553   3.844  20.019  0.00  0.00    +0.000 A 
ATOM     14  F   UNL     1       0.724   4.617  20.735  0.00  0.00    +0.000 F 
ATOM     15  C   UNL     1       2.926   4.068  20.090  0.00  0.00    +0.000 A 
ENDBRANCH   4   9
BRANCH   7  16
ATOM     16  C   UNL     1       8.104   7.948  17.586  0.00  0.00    +0.000 C 
ATOM     17  C   UNL     1       7.518   9.331  17.775  0.00  0.00    +0.000 C 
ATOM     18  C   UNL     1       8.685   8.896  18.607  0.00  0.00    +0.000 C 
ENDBRANCH   7  16
BRANCH   1  19
ATOM     19  N   UNL     1       5.758   6.791  16.153  0.00  0.00    +0.000 N 
ATOM     20  H   UNL     1       6.325   7.614  15.965  0.00  0.00    +0.000 HD
BRANCH  19  21
ATOM     21  C   UNL     1       4.320   7.085  16.125  0.00  0.00    +0.000 C 
BRANCH  21  22
ATOM     22  C   UNL     1       3.844   7.466  17.527  0.00  0.00    +0.000 C 
BRANCH  22  23
ATOM     23  C   UNL     1       2.574   8.316  17.483  0.00  0.00    +0.000 C 
BRANCH  23  26
ATOM     24  O   UNL     1       0.338   9.883  18.088  0.00  0.00    +0.000 OA
ATOM     25  C   UNL     1       0.970   9.404  19.031  0.00  0.00    +0.000 C 
ATOM     26  N   UNL     1       2.098   8.638  18.816  0.00  0.00    +0.000 N 
ATOM     27  H   UNL     1       2.545   8.215  19.620  0.00  0.00    +0.000 HD
BRANCH  25  28
ATOM     28  C   UNL     1       0.567   9.601  20.420  0.00  0.00    +0.000 A 
ATOM     29  C   UNL     1      -0.345  10.534  20.883  0.00  0.00    +0.000 A 
ATOM     30  C   UNL     1      -0.526  10.479  22.295  0.00  0.00    +0.000 A 
ATOM     31  C   UNL     1       0.259   9.508  22.872  0.00  0.00    +0.000 A 
ATOM     32  S   UNL     1       1.198   8.669  21.714  0.00  0.00    +0.000 S 
ENDBRANCH  25  28
ENDBRANCH  23  26
ENDBRANCH  22  23
ENDBRANCH  21  22
ENDBRANCH  19  21
ENDBRANCH   1  19
TORSDOF 8
ENDMDL
MODEL 6
REMARK VINA RESULT:      -8.1      2.171      2.376
REMARK  Name = 
REMARK  8 active torsions:
REMARK  status: ('A' for Active; 'I' for Inactive)
REMARK    1  A    between atoms: C_2  and  C_25
REMARK    2  A    between atoms: N_3  and  C_4
REMARK    3  A    between atoms: C_4  and  C_5
REMARK    4  A    between atoms: C_5  and  C_6
REMARK    5  A    between atoms: C_6  and  N_7
REMARK    6  A    between atoms: N_7  and  C_8
REMARK    7  A    between atoms: N_11  and  C_12
REMARK    8  A    between atoms: C_21  and  C_22
REMARK                            x       y       z     vdW  Elec       q    Type
REMARK                         _______ _______ _______ _____ _____    ______ ____
ROOT
ATOM      1  C   UNL     1       3.481   5.332  18.529  0.00  0.00    +0.000 A 
ATOM      2  N   UNL     1       4.542   5.188  17.715  0.00  0.00    +0.000 NA
ATOM      3  C   UNL     1       5.499   4.309  18.031  0.00  0.00    +0.000 A 
ATOM      4  N   UNL     1       6.578   4.132  17.163  0.00  0.00    +0.000 N 
ATOM      5  N   UNL     1       5.487   3.580  19.149  0.00  0.00    +0.000 NA
ATOM      6  C   UNL     1       4.415   3.747  19.953  0.00  0.00    +0.000 A 
ATOM      7  C   UNL     1       3.353   4.610  19.719  0.00  0.00    +0.000 A 
ATOM      8  H   UNL     1       7.194   3.423  17.539  0.00  0.00    +0.000 HD
ENDROOT
BRANCH   4   9
ATOM      9  C   UNL     1       6.582   4.231  15.760  0.00  0.00    +0.000 A 
ATOM     10  C   UNL     1       5.606   3.622  14.954  0.00  0.00    +0.000 A 
ATOM     11  C   UNL     1       5.631   3.743  13.562  0.00  0.00    +0.000 A 
ATOM     12  C   UNL     1       6.633   4.492  12.953  0.00  0.00    +0.000 A 
ATOM     13  C   UNL     1       7.598   5.103  13.743  0.00  0.00    +0.000 A 
ATOM     14  F   UNL     1       8.556   5.836  13.159  0.00  0.00    +0.000 F 
ATOM     15  C   UNL     1       7.589   4.973  15.130  0.00  0.00    +0.000 A 
ENDBRANCH   4   9
BRANCH   7  16
ATOM     16  C   UNL     1       2.159   4.659  20.649  0.00  0.00    +0.000 C 
ATOM     17  C   UNL     1       0.928   3.820  20.379  0.00  0.00    +0.000 C 
ATOM     18  C   UNL     1       1.812   3.492  21.542  0.00  0.00    +0.000 C 
ENDBRANCH   7  16
BRANCH   1  19
ATOM     19  N   UNL     1       2.484   6.262  18.155  0.00  0.00    +0.000 N 
ATOM     20  H   UNL     1       1.892   5.833  17.448  0.00  0.00    +0.000 HD
BRANCH  19  21
ATOM     21  C   UNL     1       3.004   7.569  17.732  0.00  0.00    +0.000 C 
BRANCH  21  22
ATOM     22  C   UNL     1       2.233   8.684  18.438  0.00  0.00    +0.000 C 
BRANCH  22  23
ATOM     23  C   UNL     1       1.778   8.262  19.835  0.00  0.00    +0.000 C 
BRANCH  23  26
ATOM     24  O   UNL     1       1.778   9.435  22.373  0.00  0.00    +0.000 OA
ATOM     25  C   UNL     1       0.843   9.709  21.620  0.00  0.00    +0.000 C 
ATOM     26  N   UNL     1       0.759   9.154  20.358  0.00  0.00    +0.000 N 
ATOM     27  H   UNL     1       0.006   9.460  19.754  0.00  0.00    +0.000 HD
BRANCH  25  28
ATOM     28  C   UNL     1      -0.218  10.636  21.999  0.00  0.00    +0.000 A 
ATOM     29  C   UNL     1      -1.040  10.531  23.108  0.00  0.00    +0.000 A 
ATOM     30  C   UNL     1      -1.981  11.596  23.205  0.00  0.00    +0.000 A 
ATOM     31  C   UNL     1      -1.854  12.484  22.161  0.00  0.00    +0.000 A 
ATOM     32  S   UNL     1      -0.605  12.034  21.083  0.00  0.00    +0.000 S 
ENDBRANCH  25  28
ENDBRANCH  23  26
ENDBRANCH  22  23
ENDBRANCH  21  22
ENDBRANCH  19  21
ENDBRANCH   1  19
TORSDOF 8
ENDMDL
MODEL 7
REMARK VINA RESULT:      -7.8      2.085      2.883
REMARK  Name = 
REMARK  8 active torsions:
REMARK  status: ('A' for Active; 'I' for Inactive)
REMARK    1  A    between atoms: C_2  and  C_25
REMARK    2  A    between atoms: N_3  and  C_4
REMARK    3  A    between atoms: C_4  and  C_5
REMARK    4  A    between atoms: C_5  and  C_6
REMARK    5  A    between atoms: C_6  and  N_7
REMARK    6  A    between atoms: N_7  and  C_8
REMARK    7  A    between atoms: N_11  and  C_12
REMARK    8  A    between atoms: C_21  and  C_22
REMARK                            x       y       z     vdW  Elec       q    Type
REMARK                         _______ _______ _______ _____ _____    ______ ____
ROOT
ATOM      1  C   UNL     1       3.449   5.340  18.403  0.00  0.00    +0.000 A 
ATOM      2  N   UNL     1       4.515   5.204  17.596  0.00  0.00    +0.000 NA
ATOM      3  C   UNL     1       5.507   4.379  17.948  0.00  0.00    +0.000 A 
ATOM      4  N   UNL     1       6.594   4.209  17.088  0.00  0.00    +0.000 N 
ATOM      5  N   UNL     1       5.524   3.699  19.096  0.00  0.00    +0.000 NA
ATOM      6  C   UNL     1       4.445   3.856  19.893  0.00  0.00    +0.000 A 
ATOM      7  C   UNL     1       3.349   4.665  19.623  0.00  0.00    +0.000 A 
ATOM      8  H   UNL     1       7.237   3.543  17.493  0.00  0.00    +0.000 HD
ENDROOT
BRANCH   4   9
ATOM      9  C   UNL     1       6.595   4.249  15.682  0.00  0.00    +0.000 A 
ATOM     10  C   UNL     1       5.651   3.560  14.903  0.00  0.00    +0.000 A 
ATOM     11  C   UNL     1       5.672   3.623  13.507  0.00  0.00    +0.000 A 
ATOM     12  C   UNL     1       6.639   4.392  12.866  0.00  0.00    +0.000 A 
ATOM     13  C   UNL     1       7.572   5.081  13.629  0.00  0.00    +0.000 A 
ATOM     14  F   UNL     1       8.495   5.834  13.014  0.00  0.00    +0.000 F 
ATOM     15  C   UNL     1       7.566   5.010  15.021  0.00  0.00    +0.000 A 
ENDBRANCH   4   9
BRANCH   7  16
ATOM     16  C   UNL     1       2.152   4.705  20.551  0.00  0.00    +0.000 C 
ATOM     17  C   UNL     1       0.985   3.760  20.355  0.00  0.00    +0.000 C 
ATOM     18  C   UNL     1       1.888   3.594  21.539  0.00  0.00    +0.000 C 
ENDBRANCH   7  16
BRANCH   1  19
ATOM     19  N   UNL     1       2.415   6.212  17.990  0.00  0.00    +0.000 N 
ATOM     20  H   UNL     1       2.013   5.850  17.129  0.00  0.00    +0.000 HD
BRANCH  19  21
ATOM     21  C   UNL     1       2.822   7.618  17.870  0.00  0.00    +0.000 C 
BRANCH  21  22
ATOM     22  C   UNL     1       1.986   8.479  18.818  0.00  0.00    +0.000 C 
BRANCH  22  23
ATOM     23  C   UNL     1       1.149   9.509  18.059  0.00  0.00    +0.000 C 
BRANCH  23  26
ATOM     24  O   UNL     1       0.620  11.320  20.123  0.00  0.00    +0.000 OA
ATOM     25  C   UNL     1       1.408  11.673  19.243  0.00  0.00    +0.000 C 
ATOM     26  N   UNL     1       1.704  10.844  18.179  0.00  0.00    +0.000 N 
ATOM     27  H   UNL     1       2.406  11.154  17.518  0.00  0.00    +0.000 HD
BRANCH  25  28
ATOM     28  C   UNL     1       2.082  12.967  19.273  0.00  0.00    +0.000 A 
ATOM     29  C   UNL     1       2.892  13.491  18.280  0.00  0.00    +0.000 A 
ATOM     30  C   UNL     1       3.404  14.780  18.605  0.00  0.00    +0.000 A 
ATOM     31  C   UNL     1       2.975  15.202  19.842  0.00  0.00    +0.000 A 
ATOM     32  S   UNL     1       1.958  14.052  20.596  0.00  0.00    +0.000 S 
ENDBRANCH  25  28
ENDBRANCH  23  26
ENDBRANCH  22  23
ENDBRANCH  21  22
ENDBRANCH  19  21
ENDBRANCH   1  19
TORSDOF 8
ENDMDL
MODEL 8
REMARK VINA RESULT:      -7.7      3.295      5.507
REMARK  Name = 
REMARK  8 active torsions:
REMARK  status: ('A' for Active; 'I' for Inactive)
REMARK    1  A    between atoms: C_2  and  C_25
REMARK    2  A    between atoms: N_3  and  C_4
REMARK    3  A    between atoms: C_4  and  C_5
REMARK    4  A    between atoms: C_5  and  C_6
REMARK    5  A    between atoms: C_6  and  N_7
REMARK    6  A    between atoms: N_7  and  C_8
REMARK    7  A    between atoms: N_11  and  C_12
REMARK    8  A    between atoms: C_21  and  C_22
REMARK                            x       y       z     vdW  Elec       q    Type
REMARK                         _______ _______ _______ _____ _____    ______ ____
ROOT
ATOM      1  C   UNL     1       5.440   6.277  17.515  0.00  0.00    +0.000 A 
ATOM      2  N   UNL     1       4.838   5.162  17.962  0.00  0.00    +0.000 NA
ATOM      3  C   UNL     1       5.572   4.203  18.537  0.00  0.00    +0.000 A 
ATOM      4  N   UNL     1       4.938   3.064  19.038  0.00  0.00    +0.000 N 
ATOM      5  N   UNL     1       6.899   4.269  18.661  0.00  0.00    +0.000 NA
ATOM      6  C   UNL     1       7.481   5.396  18.199  0.00  0.00    +0.000 A 
ATOM      7  C   UNL     1       6.822   6.464  17.605  0.00  0.00    +0.000 A 
ATOM      8  H   UNL     1       5.630   2.455  19.454  0.00  0.00    +0.000 HD
ENDROOT
BRANCH   4   9
ATOM      9  C   UNL     1       3.653   2.970  19.603  0.00  0.00    +0.000 A 
ATOM     10  C   UNL     1       3.396   3.260  20.953  0.00  0.00    +0.000 A 
ATOM     11  C   UNL     1       2.108   3.164  21.486  0.00  0.00    +0.000 A 
ATOM     12  C   UNL     1       1.049   2.785  20.667  0.00  0.00    +0.000 A 
ATOM     13  C   UNL     1       1.294   2.502  19.330  0.00  0.00    +0.000 A 
ATOM     14  F   UNL     1       0.273   2.150  18.536  0.00  0.00    +0.000 F 
ATOM     15  C   UNL     1       2.579   2.580  18.795  0.00  0.00    +0.000 A 
ENDBRANCH   4   9
BRANCH   7  16
ATOM     16  C   UNL     1       7.565   7.719  17.195  0.00  0.00    +0.000 C 
ATOM     17  C   UNL     1       7.154   9.075  17.729  0.00  0.00    +0.000 C 
ATOM     18  C   UNL     1       8.448   8.461  18.169  0.00  0.00    +0.000 C 
ENDBRANCH   7  16
BRANCH   1  19
ATOM     19  N   UNL     1       4.628   7.273  16.923  0.00  0.00    +0.000 N 
ATOM     20  H   UNL     1       5.139   8.153  16.932  0.00  0.00    +0.000 HD
BRANCH  19  21
ATOM     21  C   UNL     1       3.292   7.397  17.519  0.00  0.00    +0.000 C 
BRANCH  21  22
ATOM     22  C   UNL     1       2.959   8.873  17.737  0.00  0.00    +0.000 C 
BRANCH  22  23
ATOM     23  C   UNL     1       1.450   9.110  17.801  0.00  0.00    +0.000 C 
BRANCH  23  26
ATOM     24  O   UNL     1      -0.459  11.012  18.548  0.00  0.00    +0.000 OA
ATOM     25  C   UNL     1       0.041  10.327  19.441  0.00  0.00    +0.000 C 
ATOM     26  N   UNL     1       1.007   9.381  19.156  0.00  0.00    +0.000 N 
ATOM     27  H   UNL     1       1.341   8.800  19.915  0.00  0.00    +0.000 HD
BRANCH  25  28
ATOM     28  C   UNL     1      -0.355  10.457  20.839  0.00  0.00    +0.000 A 
ATOM     29  C   UNL     1      -0.988  11.547  21.413  0.00  0.00    +0.000 A 
ATOM     30  C   UNL     1      -1.245  11.371  22.803  0.00  0.00    +0.000 A 
ATOM     31  C   UNL     1      -0.794  10.152  23.254  0.00  0.00    +0.000 A 
ATOM     32  S   UNL     1      -0.075   9.230  22.005  0.00  0.00    +0.000 S 
ENDBRANCH  25  28
ENDBRANCH  23  26
ENDBRANCH  22  23
ENDBRANCH  21  22
ENDBRANCH  19  21
ENDBRANCH   1  19
TORSDOF 8
ENDMDL
MODEL 9
REMARK VINA RESULT:      -7.7      3.397      5.480
REMARK  Name = 
REMARK  8 active torsions:
REMARK  status: ('A' for Active; 'I' for Inactive)
REMARK    1  A    between atoms: C_2  and  C_25
REMARK    2  A    between atoms: N_3  and  C_4
REMARK    3  A    between atoms: C_4  and  C_5
REMARK    4  A    between atoms: C_5  and  C_6
REMARK    5  A    between atoms: C_6  and  N_7
REMARK    6  A    between atoms: N_7  and  C_8
REMARK    7  A    between atoms: N_11  and  C_12
REMARK    8  A    between atoms: C_21  and  C_22
REMARK                            x       y       z     vdW  Elec       q    Type
REMARK                         _______ _______ _______ _____ _____    ______ ____
ROOT
ATOM      1  C   UNL     1       6.025   6.265  17.333  0.00  0.00    +0.000 A 
ATOM      2  N   UNL     1       5.363   5.191  17.799  0.00  0.00    +0.000 NA
ATOM      3  C   UNL     1       5.847   4.527  18.855  0.00  0.00    +0.000 A 
ATOM      4  N   UNL     1       5.136   3.438  19.362  0.00  0.00    +0.000 N 
ATOM      5  N   UNL     1       6.992   4.847  19.462  0.00  0.00    +0.000 NA
ATOM      6  C   UNL     1       7.641   5.925  18.972  0.00  0.00    +0.000 A 
ATOM      7  C   UNL     1       7.225   6.703  17.898  0.00  0.00    +0.000 A 
ATOM      8  H   UNL     1       5.626   3.067  20.165  0.00  0.00    +0.000 HD
ENDROOT
BRANCH   4   9
ATOM      9  C   UNL     1       3.742   3.254  19.385  0.00  0.00    +0.000 A 
ATOM     10  C   UNL     1       3.112   2.155  18.778  0.00  0.00    +0.000 A 
ATOM     11  C   UNL     1       1.724   1.994  18.821  0.00  0.00    +0.000 A 
ATOM     12  C   UNL     1       0.943   2.931  19.489  0.00  0.00    +0.000 A 
ATOM     13  C   UNL     1       1.558   4.018  20.098  0.00  0.00    +0.000 A 
ATOM     14  F   UNL     1       0.808   4.914  20.754  0.00  0.00    +0.000 F 
ATOM     15  C   UNL     1       2.939   4.193  20.044  0.00  0.00    +0.000 A 
ENDBRANCH   4   9
BRANCH   7  16
ATOM     16  C   UNL     1       7.990   7.942  17.481  0.00  0.00    +0.000 C 
ATOM     17  C   UNL     1       7.466   9.325  17.807  0.00  0.00    +0.000 C 
ATOM     18  C   UNL     1       8.691   8.810  18.499  0.00  0.00    +0.000 C 
ENDBRANCH   7  16
BRANCH   1  19
ATOM     19  N   UNL     1       5.475   6.947  16.223  0.00  0.00    +0.000 N 
ATOM     20  H   UNL     1       5.988   7.816  16.092  0.00  0.00    +0.000 HD
BRANCH  19  21
ATOM     21  C   UNL     1       4.025   7.160  16.301  0.00  0.00    +0.000 C 
BRANCH  21  22
ATOM     22  C   UNL     1       3.671   7.821  17.633  0.00  0.00    +0.000 C 
BRANCH  22  23
ATOM     23  C   UNL     1       2.237   8.350  17.641  0.00  0.00    +0.000 C 
BRANCH  23  26
ATOM     24  O   UNL     1       0.623   9.759  19.439  0.00  0.00    +0.000 OA
ATOM     25  C   UNL     1       1.386  10.413  18.726  0.00  0.00    +0.000 C 
ATOM     26  N   UNL     1       2.200   9.793  17.798  0.00  0.00    +0.000 N 
ATOM     27  H   UNL     1       2.854  10.368  17.282  0.00  0.00    +0.000 HD
BRANCH  25  28
ATOM     28  C   UNL     1       1.491  11.865  18.823  0.00  0.00    +0.000 A 
ATOM     29  C   UNL     1       2.362  12.672  18.110  0.00  0.00    +0.000 A 
ATOM     30  C   UNL     1       2.222  14.054  18.426  0.00  0.00    +0.000 A 
ATOM     31  C   UNL     1       1.251  14.263  19.378  0.00  0.00    +0.000 A 
ATOM     32  S   UNL     1       0.513  12.802  19.875  0.00  0.00    +0.000 S 
ENDBRANCH  25  28
ENDBRANCH  23  26
ENDBRANCH  22  23
ENDBRANCH  21  22
ENDBRANCH  19  21
ENDBRANCH   1  19
TORSDOF 8
ENDMDL
