MODEL 1
REMARK VINA RESULT:      -8.3      0.000      0.000
REMARK  Name = 
REMARK  8 active torsions:
REMARK  status: ('A' for Active; 'I' for Inactive)
REMARK    1  A    between atoms: C_1  and  O_2
REMARK    2  A    between atoms: O_2  and  C_3
REMARK    3  A    between atoms: C_6  and  C_7
REMARK    4  A    between atoms: C_9  and  N_10
REMARK    5  A    between atoms: N_11  and  S_12
REMARK    6  A    between atoms: S_12  and  C_15
REMARK    7  A    between atoms: C_24  and  O_25
REMARK    8  A    between atoms: O_25  and  C_26
REMARK                            x       y       z     vdW  Elec       q    Type
REMARK                         _______ _______ _______ _____ _____    ______ ____
ROOT
ATOM      1  C   UNL     1       7.913   8.073  18.009  0.00  0.00    +0.000 A 
ATOM      2  C   UNL     1       8.222   6.861  18.688  0.00  0.00    +0.000 A 
ATOM      3  C   UNL     1       7.500   5.869  18.072  0.00  0.00    +0.000 A 
ATOM      4  N   UNL     1       6.756   6.512  17.092  0.00  0.00    +0.000 N 
ATOM      5  N   UNL     1       7.036   7.847  17.020  0.00  0.00    +0.000 NA
ENDROOT
BRANCH   1   9
ATOM      6  C   UNL     1       9.528  11.992  18.679  0.00  0.00    +0.000 A 
ATOM      7  C   UNL     1       9.929  10.906  19.469  0.00  0.00    +0.000 A 
ATOM      8  C   UNL     1       9.393   9.632  19.260  0.00  0.00    +0.000 A 
ATOM      9  C   UNL     1       8.409   9.424  18.290  0.00  0.00    +0.000 A 
ATOM     10  C   UNL     1       7.935  10.538  17.584  0.00  0.00    +0.000 A 
ATOM     11  C   UNL     1       8.475  11.822  17.771  0.00  0.00    +0.000 A 
BRANCH   6  13
ATOM     12  C   UNL     1      11.211  13.446  17.890  0.00  0.00    +0.000 C 
ATOM     13  O   UNL     1      10.140  13.209  18.807  0.00  0.00    +0.000 OA
ENDBRANCH   6  13
BRANCH  11  14
ATOM     14  O   UNL     1       7.870  12.750  16.965  0.00  0.00    +0.000 OA
ATOM     15  C   UNL     1       7.086  13.772  17.555  0.00  0.00    +0.000 C 
ENDBRANCH  11  14
ENDBRANCH   1   9
BRANCH   3  16
ATOM     16  N   UNL     1       7.483   4.547  18.353  0.00  0.00    +0.000 N 
ATOM     17  H   UNL     1       8.155   3.904  17.940  0.00  0.00    +0.000 HD
ATOM     18  H   UNL     1       7.059   4.189  19.219  0.00  0.00    +0.000 HD
ENDBRANCH   3  16
BRANCH   4  19
ATOM     19  S   UNL     1       5.688   5.701  15.990  0.00  0.00    +0.000 S 
ATOM     20  O   UNL     1       5.256   6.681  15.005  0.00  0.00    +0.000 OA
ATOM     21  O   UNL     1       6.364   4.476  15.599  0.00  0.00    +0.000 OA
BRANCH  19  22
ATOM     22  C   UNL     1       4.296   5.252  16.999  0.00  0.00    +0.000 A 
ATOM     23  C   UNL     1       3.641   6.231  17.754  0.00  0.00    +0.000 A 
ATOM     24  C   UNL     1       2.547   5.871  18.542  0.00  0.00    +0.000 A 
ATOM     25  C   UNL     1       2.118   4.547  18.564  0.00  0.00    +0.000 A 
ATOM     26  F   UNL     1       1.074   4.205  19.329  0.00  0.00    +0.000 F 
ATOM     27  C   UNL     1       2.752   3.574  17.798  0.00  0.00    +0.000 A 
ATOM     28  C   UNL     1       3.843   3.925  17.002  0.00  0.00    +0.000 A 
ENDBRANCH  19  22
ENDBRANCH   4  19
TORSDOF 6
ENDMDL
MODEL 2
REMARK VINA RESULT:      -8.1      0.810      2.043
REMARK  Name = 
REMARK  8 active torsions:
REMARK  status: ('A' for Active; 'I' for Inactive)
REMARK    1  A    between atoms: C_1  and  O_2
REMARK    2  A    between atoms: O_2  and  C_3
REMARK    3  A    between atoms: C_6  and  C_7
REMARK    4  A    between atoms: C_9  and  N_10
REMARK    5  A    between atoms: N_11  and  S_12
REMARK    6  A    between atoms: S_12  and  C_15
REMARK    7  A    between atoms: C_24  and  O_25
REMARK    8  A    between atoms: O_25  and  C_26
REMARK                            x       y       z     vdW  Elec       q    Type
REMARK                         _______ _______ _______ _____ _____    ______ ____
ROOT
ATOM      1  C   UNL     1       7.987   8.355  17.984  0.00  0.00    +0.000 A 
ATOM      2  C   UNL     1       8.311   7.203  18.755  0.00  0.00    +0.000 A 
ATOM      3  C   UNL     1       7.600   6.158  18.220  0.00  0.00    +0.000 A 
ATOM      4  N   UNL     1       6.847   6.714  17.194  0.00  0.00    +0.000 N 
ATOM      5  N   UNL     1       7.111   8.043  17.018  0.00  0.00    +0.000 NA
ENDROOT
BRANCH   1   9
ATOM      6  C   UNL     1       9.233  12.407  18.651  0.00  0.00    +0.000 A 
ATOM      7  C   UNL     1       8.314  12.096  17.640  0.00  0.00    +0.000 A 
ATOM      8  C   UNL     1       7.919  10.776  17.413  0.00  0.00    +0.000 A 
ATOM      9  C   UNL     1       8.468   9.730  18.159  0.00  0.00    +0.000 A 
ATOM     10  C   UNL     1       9.468  10.040  19.091  0.00  0.00    +0.000 A 
ATOM     11  C   UNL     1       9.865  11.364  19.342  0.00  0.00    +0.000 A 
BRANCH   6  13
ATOM     12  C   UNL     1      10.339  14.382  17.983  0.00  0.00    +0.000 C 
ATOM     13  O   UNL     1       9.527  13.710  18.949  0.00  0.00    +0.000 OA
ENDBRANCH   6  13
BRANCH  11  14
ATOM     14  O   UNL     1      10.842  11.429  20.300  0.00  0.00    +0.000 OA
ATOM     15  C   UNL     1      12.153  11.813  19.926  0.00  0.00    +0.000 C 
ENDBRANCH  11  14
ENDBRANCH   1   9
BRANCH   3  16
ATOM     16  N   UNL     1       7.598   4.862  18.601  0.00  0.00    +0.000 N 
ATOM     17  H   UNL     1       8.203   4.173  18.159  0.00  0.00    +0.000 HD
ATOM     18  H   UNL     1       7.283   4.580  19.539  0.00  0.00    +0.000 HD
ENDBRANCH   3  16
BRANCH   4  19
ATOM     19  S   UNL     1       5.787   5.808  16.161  0.00  0.00    +0.000 S 
ATOM     20  O   UNL     1       5.343   6.704  15.103  0.00  0.00    +0.000 OA
ATOM     21  O   UNL     1       6.477   4.564  15.865  0.00  0.00    +0.000 OA
BRANCH  19  22
ATOM     22  C   UNL     1       4.401   5.424  17.204  0.00  0.00    +0.000 A 
ATOM     23  C   UNL     1       4.004   4.092  17.367  0.00  0.00    +0.000 A 
ATOM     24  C   UNL     1       2.916   3.797  18.190  0.00  0.00    +0.000 A 
ATOM     25  C   UNL     1       2.245   4.828  18.843  0.00  0.00    +0.000 A 
ATOM     26  F   UNL     1       1.196   4.541  19.623  0.00  0.00    +0.000 F 
ATOM     27  C   UNL     1       2.650   6.151  18.701  0.00  0.00    +0.000 A 
ATOM     28  C   UNL     1       3.741   6.455  17.885  0.00  0.00    +0.000 A 
ENDBRANCH  19  22
ENDBRANCH   4  19
TORSDOF 6
ENDMDL
MODEL 3
REMARK VINA RESULT:      -8.1      0.904      1.878
REMARK  Name = 
REMARK  8 active torsions:
REMARK  status: ('A' for Active; 'I' for Inactive)
REMARK    1  A    between atoms: C_1  and  O_2
REMARK    2  A    between atoms: O_2  and  C_3
REMARK    3  A    between atoms: C_6  and  C_7
REMARK    4  A    between atoms: C_9  and  N_10
REMARK    5  A    between atoms: N_11  and  S_12
REMARK    6  A    between atoms: S_12  and  C_15
REMARK    7  A    between atoms: C_24  and  O_25
REMARK    8  A    between atoms: O_25  and  C_26
REMARK                            x       y       z     vdW  Elec       q    Type
REMARK                         _______ _______ _______ _____ _____    ______ ____
ROOT
ATOM      1  C   UNL     1       8.033   8.380  18.021  0.00  0.00    +0.000 A 
ATOM      2  C   UNL     1       8.333   7.240  18.819  0.00  0.00    +0.000 A 
ATOM      3  C   UNL     1       7.637   6.187  18.279  0.00  0.00    +0.000 A 
ATOM      4  N   UNL     1       6.915   6.728  17.222  0.00  0.00    +0.000 N 
ATOM      5  N   UNL     1       7.186   8.053  17.034  0.00  0.00    +0.000 NA
ENDROOT
BRANCH   1   9
ATOM      6  C   UNL     1       9.267  12.439  18.666  0.00  0.00    +0.000 A 
ATOM      7  C   UNL     1       8.349  12.120  17.656  0.00  0.00    +0.000 A 
ATOM      8  C   UNL     1       7.958  10.797  17.436  0.00  0.00    +0.000 A 
ATOM      9  C   UNL     1       8.510   9.757  18.188  0.00  0.00    +0.000 A 
ATOM     10  C   UNL     1       9.508  10.075  19.119  0.00  0.00    +0.000 A 
ATOM     11  C   UNL     1       9.902  11.403  19.363  0.00  0.00    +0.000 A 
BRANCH   6  13
ATOM     12  C   UNL     1       8.806  14.710  18.215  0.00  0.00    +0.000 C 
ATOM     13  O   UNL     1       9.556  13.744  18.956  0.00  0.00    +0.000 OA
ENDBRANCH   6  13
BRANCH  11  14
ATOM     14  O   UNL     1      10.877  11.475  20.321  0.00  0.00    +0.000 OA
ATOM     15  C   UNL     1      12.188  11.862  19.946  0.00  0.00    +0.000 C 
ENDBRANCH  11  14
ENDBRANCH   1   9
BRANCH   3  16
ATOM     16  N   UNL     1       7.622   4.897  18.681  0.00  0.00    +0.000 N 
ATOM     17  H   UNL     1       8.467   4.330  18.688  0.00  0.00    +0.000 HD
ATOM     18  H   UNL     1       6.890   4.540  19.309  0.00  0.00    +0.000 HD
ENDBRANCH   3  16
BRANCH   4  19
ATOM     19  S   UNL     1       5.887   5.805  16.173  0.00  0.00    +0.000 S 
ATOM     20  O   UNL     1       5.466   6.688  15.093  0.00  0.00    +0.000 OA
ATOM     21  O   UNL     1       6.589   4.561  15.908  0.00  0.00    +0.000 OA
BRANCH  19  22
ATOM     22  C   UNL     1       4.476   5.426  17.184  0.00  0.00    +0.000 A 
ATOM     23  C   UNL     1       3.789   6.459  17.832  0.00  0.00    +0.000 A 
ATOM     24  C   UNL     1       2.680   6.154  18.623  0.00  0.00    +0.000 A 
ATOM     25  C   UNL     1       2.268   4.831  18.752  0.00  0.00    +0.000 A 
ATOM     26  F   UNL     1       1.210   4.542  19.520  0.00  0.00    +0.000 F 
ATOM     27  C   UNL     1       2.934   3.803  18.092  0.00  0.00    +0.000 A 
ATOM     28  C   UNL     1       4.040   4.099  17.294  0.00  0.00    +0.000 A 
ENDBRANCH  19  22
ENDBRANCH   4  19
TORSDOF 6
ENDMDL
MODEL 4
REMARK VINA RESULT:      -8.0      5.381      6.718
REMARK  Name = 
REMARK  8 active torsions:
REMARK  status: ('A' for Active; 'I' for Inactive)
REMARK    1  A    between atoms: C_1  and  O_2
REMARK    2  A    between atoms: O_2  and  C_3
REMARK    3  A    between atoms: C_6  and  C_7
REMARK    4  A    between atoms: C_9  and  N_10
REMARK    5  A    between atoms: N_11  and  S_12
REMARK    6  A    between atoms: S_12  and  C_15
REMARK    7  A    between atoms: C_24  and  O_25
REMARK    8  A    between atoms: O_25  and  C_26
REMARK                            x       y       z     vdW  Elec       q    Type
REMARK                         _______ _______ _______ _____ _____    ______ ____
ROOT
ATOM      1  C   UNL     1       2.279   6.241  19.853  0.00  0.00    +0.000 A 
ATOM      2  C   UNL     1       1.731   5.410  20.871  0.00  0.00    +0.000 A 
ATOM      3  C   UNL     1       2.322   4.178  20.733  0.00  0.00    +0.000 A 
ATOM      4  N   UNL     1       3.154   4.292  19.627  0.00  0.00    +0.000 N 
ATOM      5  N   UNL     1       3.165   5.557  19.114  0.00  0.00    +0.000 NA
ENDROOT
BRANCH   1   9
ATOM      6  C   UNL     1       1.158  10.277  18.920  0.00  0.00    +0.000 A 
ATOM      7  C   UNL     1       1.851   9.491  17.990  0.00  0.00    +0.000 A 
ATOM      8  C   UNL     1       2.229   8.182  18.298  0.00  0.00    +0.000 A 
ATOM      9  C   UNL     1       1.965   7.643  19.560  0.00  0.00    +0.000 A 
ATOM     10  C   UNL     1       1.371   8.475  20.520  0.00  0.00    +0.000 A 
ATOM     11  C   UNL     1       0.971   9.789  20.220  0.00  0.00    +0.000 A 
BRANCH   6  13
ATOM     12  C   UNL     1       1.630  12.580  18.707  0.00  0.00    +0.000 C 
ATOM     13  O   UNL     1       0.687  11.513  18.573  0.00  0.00    +0.000 OA
ENDBRANCH   6  13
BRANCH  11  14
ATOM     14  O   UNL     1       0.402  10.405  21.302  0.00  0.00    +0.000 OA
ATOM     15  C   UNL     1      -0.150   9.612  22.339  0.00  0.00    +0.000 C 
ENDBRANCH  11  14
ENDBRANCH   1   9
BRANCH   3  16
ATOM     16  N   UNL     1       2.137   3.071  21.485  0.00  0.00    +0.000 N 
ATOM     17  H   UNL     1       2.507   2.998  22.430  0.00  0.00    +0.000 HD
ATOM     18  H   UNL     1       1.356   2.426  21.306  0.00  0.00    +0.000 HD
ENDBRANCH   3  16
BRANCH   4  19
ATOM     19  S   UNL     1       4.170   3.015  19.037  0.00  0.00    +0.000 S 
ATOM     20  O   UNL     1       5.062   2.634  20.123  0.00  0.00    +0.000 OA
ATOM     21  O   UNL     1       3.284   2.051  18.406  0.00  0.00    +0.000 OA
BRANCH  19  22
ATOM     22  C   UNL     1       5.127   3.789  17.756  0.00  0.00    +0.000 A 
ATOM     23  C   UNL     1       4.652   3.790  16.439  0.00  0.00    +0.000 A 
ATOM     24  C   UNL     1       5.408   4.402  15.439  0.00  0.00    +0.000 A 
ATOM     25  C   UNL     1       6.619   5.009  15.761  0.00  0.00    +0.000 A 
ATOM     26  F   UNL     1       7.345   5.586  14.796  0.00  0.00    +0.000 F 
ATOM     27  C   UNL     1       7.084   5.031  17.072  0.00  0.00    +0.000 A 
ATOM     28  C   UNL     1       6.332   4.426  18.081  0.00  0.00    +0.000 A 
ENDBRANCH  19  22
ENDBRANCH   4  19
TORSDOF 6
ENDMDL
MODEL 5
REMARK VINA RESULT:      -8.0      4.883      7.231
REMARK  Name = 
REMARK  8 active torsions:
REMARK  status: ('A' for Active; 'I' for Inactive)
REMARK    1  A    between atoms: C_1  and  O_2
REMARK    2  A    between atoms: O_2  and  C_3
REMARK    3  A    between atoms: C_6  and  C_7
REMARK    4  A    between atoms: C_9  and  N_10
REMARK    5  A    between atoms: N_11  and  S_12
REMARK    6  A    between atoms: S_12  and  C_15
REMARK    7  A    between atoms: C_24  and  O_25
REMARK    8  A    between atoms: O_25  and  C_26
REMARK                            x       y       z     vdW  Elec       q    Type
REMARK                         _______ _______ _______ _____ _____    ______ ____
ROOT
ATOM      1  C   UNL     1       2.075   6.650  20.211  0.00  0.00    +0.000 A 
ATOM      2  C   UNL     1       1.532   5.495  20.843  0.00  0.00    +0.000 A 
ATOM      3  C   UNL     1       2.299   4.429  20.442  0.00  0.00    +0.000 A 
ATOM      4  N   UNL     1       3.232   4.960  19.560  0.00  0.00    +0.000 N 
ATOM      5  N   UNL     1       3.127   6.317  19.450  0.00  0.00    +0.000 NA
ENDROOT
BRANCH   1   9
ATOM      6  C   UNL     1       0.496  10.634  20.429  0.00  0.00    +0.000 A 
ATOM      7  C   UNL     1       0.984  10.120  19.219  0.00  0.00    +0.000 A 
ATOM      8  C   UNL     1       1.511   8.828  19.151  0.00  0.00    +0.000 A 
ATOM      9  C   UNL     1       1.607   8.037  20.299  0.00  0.00    +0.000 A 
ATOM     10  C   UNL     1       1.220   8.601  21.522  0.00  0.00    +0.000 A 
ATOM     11  C   UNL     1       0.674   9.893  21.605  0.00  0.00    +0.000 A 
BRANCH   6  13
ATOM     12  C   UNL     1      -1.319  11.946  19.684  0.00  0.00    +0.000 C 
ATOM     13  O   UNL     1      -0.126  11.851  20.467  0.00  0.00    +0.000 OA
ENDBRANCH   6  13
BRANCH  11  14
ATOM     14  O   UNL     1       0.355  10.228  22.894  0.00  0.00    +0.000 OA
ATOM     15  C   UNL     1      -1.009  10.371  23.254  0.00  0.00    +0.000 C 
ENDBRANCH  11  14
ENDBRANCH   1   9
BRANCH   3  16
ATOM     16  N   UNL     1       2.182   3.131  20.798  0.00  0.00    +0.000 N 
ATOM     17  H   UNL     1       2.997   2.554  20.993  0.00  0.00    +0.000 HD
ATOM     18  H   UNL     1       1.318   2.768  21.223  0.00  0.00    +0.000 HD
ENDBRANCH   3  16
BRANCH   4  19
ATOM     19  S   UNL     1       4.476   4.033  18.784  0.00  0.00    +0.000 S 
ATOM     20  O   UNL     1       5.071   3.172  19.797  0.00  0.00    +0.000 OA
ATOM     21  O   UNL     1       3.881   3.487  17.576  0.00  0.00    +0.000 OA
BRANCH  19  22
ATOM     22  C   UNL     1       5.673   5.251  18.295  0.00  0.00    +0.000 A 
ATOM     23  C   UNL     1       6.827   5.439  19.064  0.00  0.00    +0.000 A 
ATOM     24  C   UNL     1       7.763   6.397  18.672  0.00  0.00    +0.000 A 
ATOM     25  C   UNL     1       7.543   7.147  17.520  0.00  0.00    +0.000 A 
ATOM     26  F   UNL     1       8.439   8.071  17.154  0.00  0.00    +0.000 F 
ATOM     27  C   UNL     1       6.408   6.949  16.740  0.00  0.00    +0.000 A 
ATOM     28  C   UNL     1       5.469   5.989  17.121  0.00  0.00    +0.000 A 
ENDBRANCH  19  22
ENDBRANCH   4  19
TORSDOF 6
ENDMDL
MODEL 6
REMARK VINA RESULT:      -7.8      5.425      6.915
REMARK  Name = 
REMARK  8 active torsions:
REMARK  status: ('A' for Active; 'I' for Inactive)
REMARK    1  A    between atoms: C_1  and  O_2
REMARK    2  A    between atoms: O_2  and  C_3
REMARK    3  A    between atoms: C_6  and  C_7
REMARK    4  A    between atoms: C_9  and  N_10
REMARK    5  A    between atoms: N_11  and  S_12
REMARK    6  A    between atoms: S_12  and  C_15
REMARK    7  A    between atoms: C_24  and  O_25
REMARK    8  A    between atoms: O_25  and  C_26
REMARK                            x       y       z     vdW  Elec       q    Type
REMARK                         _______ _______ _______ _____ _____    ______ ____
ROOT
ATOM      1  C   UNL     1       2.519   6.651  19.566  0.00  0.00    +0.000 A 
ATOM      2  C   UNL     1       1.919   5.454  20.050  0.00  0.00    +0.000 A 
ATOM      3  C   UNL     1       2.891   4.484  20.015  0.00  0.00    +0.000 A 
ATOM      4  N   UNL     1       4.009   5.106  19.474  0.00  0.00    +0.000 N 
ATOM      5  N   UNL     1       3.802   6.435  19.240  0.00  0.00    +0.000 NA
ENDROOT
BRANCH   1   9
ATOM      6  C   UNL     1       0.521  10.403  18.984  0.00  0.00    +0.000 A 
ATOM      7  C   UNL     1       1.284   9.830  17.957  0.00  0.00    +0.000 A 
ATOM      8  C   UNL     1       1.947   8.616  18.151  0.00  0.00    +0.000 A 
ATOM      9  C   UNL     1       1.901   7.969  19.389  0.00  0.00    +0.000 A 
ATOM     10  C   UNL     1       1.228   8.607  20.441  0.00  0.00    +0.000 A 
ATOM     11  C   UNL     1       0.543   9.821  20.258  0.00  0.00    +0.000 A 
BRANCH   6  13
ATOM     12  C   UNL     1      -1.494  11.300  18.141  0.00  0.00    +0.000 C 
ATOM     13  O   UNL     1      -0.222  11.529  18.753  0.00  0.00    +0.000 OA
ENDBRANCH   6  13
BRANCH  11  14
ATOM     14  O   UNL     1      -0.053  10.247  21.415  0.00  0.00    +0.000 OA
ATOM     15  C   UNL     1      -0.241   9.327  22.475  0.00  0.00    +0.000 C 
ENDBRANCH  11  14
ENDBRANCH   1   9
BRANCH   3  16
ATOM     16  N   UNL     1       2.800   3.192  20.398  0.00  0.00    +0.000 N 
ATOM     17  H   UNL     1       2.857   2.919  21.376  0.00  0.00    +0.000 HD
ATOM     18  H   UNL     1       2.331   2.491  19.808  0.00  0.00    +0.000 HD
ENDBRANCH   3  16
BRANCH   4  19
ATOM     19  S   UNL     1       5.541   4.324  19.243  0.00  0.00    +0.000 S 
ATOM     20  O   UNL     1       6.551   5.151  19.887  0.00  0.00    +0.000 OA
ATOM     21  O   UNL     1       5.346   2.933  19.614  0.00  0.00    +0.000 OA
BRANCH  19  22
ATOM     22  C   UNL     1       5.789   4.385  17.485  0.00  0.00    +0.000 A 
ATOM     23  C   UNL     1       4.707   4.168  16.624  0.00  0.00    +0.000 A 
ATOM     24  C   UNL     1       4.909   4.219  15.244  0.00  0.00    +0.000 A 
ATOM     25  C   UNL     1       6.178   4.491  14.741  0.00  0.00    +0.000 A 
ATOM     26  F   UNL     1       6.369   4.530  13.417  0.00  0.00    +0.000 F 
ATOM     27  C   UNL     1       7.252   4.730  15.593  0.00  0.00    +0.000 A 
ATOM     28  C   UNL     1       7.059   4.686  16.975  0.00  0.00    +0.000 A 
ENDBRANCH  19  22
ENDBRANCH   4  19
TORSDOF 6
ENDMDL
MODEL 7
REMARK VINA RESULT:      -7.7      5.107      6.657
REMARK  Name = 
REMARK  8 active torsions:
REMARK  status: ('A' for Active; 'I' for Inactive)
REMARK    1  A    between atoms: C_1  and  O_2
REMARK    2  A    between atoms: O_2  and  C_3
REMARK    3  A    between atoms: C_6  and  C_7
REMARK    4  A    between atoms: C_9  and  N_10
REMARK    5  A    between atoms: N_11  and  S_12
REMARK    6  A    between atoms: S_12  and  C_15
REMARK    7  A    between atoms: C_24  and  O_25
REMARK    8  A    between atoms: O_25  and  C_26
REMARK                            x       y       z     vdW  Elec       q    Type
REMARK                         _______ _______ _______ _____ _____    ______ ____
ROOT
ATOM      1  C   UNL     1       3.816   6.580  18.468  0.00  0.00    +0.000 A 
ATOM      2  C   UNL     1       3.890   5.239  18.941  0.00  0.00    +0.000 A 
ATOM      3  C   UNL     1       5.040   4.700  18.419  0.00  0.00    +0.000 A 
ATOM      4  N   UNL     1       5.585   5.700  17.623  0.00  0.00    +0.000 N 
ATOM      5  N   UNL     1       4.867   6.860  17.684  0.00  0.00    +0.000 NA
ENDROOT
BRANCH   1   9
ATOM      6  C   UNL     1       0.607   9.349  19.137  0.00  0.00    +0.000 A 
ATOM      7  C   UNL     1       1.337   9.372  17.941  0.00  0.00    +0.000 A 
ATOM      8  C   UNL     1       2.391   8.480  17.728  0.00  0.00    +0.000 A 
ATOM      9  C   UNL     1       2.771   7.577  18.724  0.00  0.00    +0.000 A 
ATOM     10  C   UNL     1       2.107   7.638  19.957  0.00  0.00    +0.000 A 
ATOM     11  C   UNL     1       1.035   8.519  20.181  0.00  0.00    +0.000 A 
BRANCH   6  13
ATOM     12  C   UNL     1      -0.970  10.764  18.096  0.00  0.00    +0.000 C 
ATOM     13  O   UNL     1      -0.497  10.141  19.294  0.00  0.00    +0.000 OA
ENDBRANCH   6  13
BRANCH  11  14
ATOM     14  O   UNL     1       0.531   8.394  21.449  0.00  0.00    +0.000 OA
ATOM     15  C   UNL     1       0.913   9.332  22.440  0.00  0.00    +0.000 C 
ENDBRANCH  11  14
ENDBRANCH   1   9
BRANCH   3  16
ATOM     16  N   UNL     1       5.545   3.461  18.606  0.00  0.00    +0.000 N 
ATOM     17  H   UNL     1       5.198   2.658  18.086  0.00  0.00    +0.000 HD
ATOM     18  H   UNL     1       6.491   3.320  18.984  0.00  0.00    +0.000 HD
ENDBRANCH   3  16
BRANCH   4  19
ATOM     19  S   UNL     1       7.078   5.546  16.752  0.00  0.00    +0.000 S 
ATOM     20  O   UNL     1       7.591   6.890  16.532  0.00  0.00    +0.000 OA
ATOM     21  O   UNL     1       7.855   4.540  17.456  0.00  0.00    +0.000 OA
BRANCH  19  22
ATOM     22  C   UNL     1       6.590   4.856  15.189  0.00  0.00    +0.000 A 
ATOM     23  C   UNL     1       7.451   4.951  14.090  0.00  0.00    +0.000 A 
ATOM     24  C   UNL     1       7.062   4.405  12.866  0.00  0.00    +0.000 A 
ATOM     25  C   UNL     1       5.829   3.768  12.755  0.00  0.00    +0.000 A 
ATOM     26  F   UNL     1       5.456   3.255  11.576  0.00  0.00    +0.000 F 
ATOM     27  C   UNL     1       4.979   3.652  13.850  0.00  0.00    +0.000 A 
ATOM     28  C   UNL     1       5.362   4.190  15.080  0.00  0.00    +0.000 A 
ENDBRANCH  19  22
ENDBRANCH   4  19
TORSDOF 6
ENDMDL
MODEL 8
REMARK VINA RESULT:      -7.7      6.160      9.042
REMARK  Name = 
REMARK  8 active torsions:
REMARK  status: ('A' for Active; 'I' for Inactive)
REMARK    1  A    between atoms: C_1  and  O_2
REMARK    2  A    between atoms: O_2  and  C_3
REMARK    3  A    between atoms: C_6  and  C_7
REMARK    4  A    between atoms: C_9  and  N_10
REMARK    5  A    between atoms: N_11  and  S_12
REMARK    6  A    between atoms: S_12  and  C_15
REMARK    7  A    between atoms: C_24  and  O_25
REMARK    8  A    between atoms: O_25  and  C_26
REMARK                            x       y       z     vdW  Elec       q    Type
REMARK                         _______ _______ _______ _____ _____    ______ ____
ROOT
ATOM      1  C   UNL     1       2.247   7.698  18.850  0.00  0.00    +0.000 A 
ATOM      2  C   UNL     1       2.645   8.692  17.911  0.00  0.00    +0.000 A 
ATOM      3  C   UNL     1       1.978   9.844  18.250  0.00  0.00    +0.000 A 
ATOM      4  N   UNL     1       1.177   9.499  19.332  0.00  0.00    +0.000 N 
ATOM      5  N   UNL     1       1.370   8.206  19.728  0.00  0.00    +0.000 NA
ENDROOT
BRANCH   1   9
ATOM      6  C   UNL     1       3.652   3.653  19.124  0.00  0.00    +0.000 A 
ATOM      7  C   UNL     1       3.825   4.395  17.947  0.00  0.00    +0.000 A 
ATOM      8  C   UNL     1       3.355   5.707  17.852  0.00  0.00    +0.000 A 
ATOM      9  C   UNL     1       2.660   6.292  18.913  0.00  0.00    +0.000 A 
ATOM     10  C   UNL     1       2.395   5.504  20.042  0.00  0.00    +0.000 A 
ATOM     11  C   UNL     1       2.874   4.188  20.159  0.00  0.00    +0.000 A 
BRANCH   6  13
ATOM     12  C   UNL     1       3.594   1.381  18.486  0.00  0.00    +0.000 C 
ATOM     13  O   UNL     1       4.217   2.414  19.254  0.00  0.00    +0.000 OA
ENDBRANCH   6  13
BRANCH  11  14
ATOM     14  O   UNL     1       2.509   3.618  21.349  0.00  0.00    +0.000 OA
ATOM     15  C   UNL     1       1.334   2.828  21.406  0.00  0.00    +0.000 C 
ENDBRANCH  11  14
ENDBRANCH   1   9
BRANCH   3  16
ATOM     16  N   UNL     1       2.050  11.058  17.664  0.00  0.00    +0.000 N 
ATOM     17  H   UNL     1       1.926  11.176  16.661  0.00  0.00    +0.000 HD
ATOM     18  H   UNL     1       1.879  11.922  18.197  0.00  0.00    +0.000 HD
ENDBRANCH   3  16
BRANCH   4  19
ATOM     19  S   UNL     1       0.146  10.611  20.174  0.00  0.00    +0.000 S 
ATOM     20  O   UNL     1      -0.251   9.974  21.422  0.00  0.00    +0.000 OA
ATOM     21  O   UNL     1       0.832  11.891  20.159  0.00  0.00    +0.000 OA
BRANCH  19  22
ATOM     22  C   UNL     1      -1.280  10.749  19.124  0.00  0.00    +0.000 A 
ATOM     23  C   UNL     1      -2.231  11.745  19.372  0.00  0.00    +0.000 A 
ATOM     24  C   UNL     1      -3.348  11.848  18.541  0.00  0.00    +0.000 A 
ATOM     25  C   UNL     1      -3.499  10.967  17.474  0.00  0.00    +0.000 A 
ATOM     26  F   UNL     1      -4.577  11.064  16.687  0.00  0.00    +0.000 F 
ATOM     27  C   UNL     1      -2.545   9.990  17.210  0.00  0.00    +0.000 A 
ATOM     28  C   UNL     1      -1.422   9.881  18.032  0.00  0.00    +0.000 A 
ENDBRANCH  19  22
ENDBRANCH   4  19
TORSDOF 6
ENDMDL
MODEL 9
REMARK VINA RESULT:      -7.7      4.489      6.811
REMARK  Name = 
REMARK  8 active torsions:
REMARK  status: ('A' for Active; 'I' for Inactive)
REMARK    1  A    between atoms: C_1  and  O_2
REMARK    2  A    between atoms: O_2  and  C_3
REMARK    3  A    between atoms: C_6  and  C_7
REMARK    4  A    between atoms: C_9  and  N_10
REMARK    5  A    between atoms: N_11  and  S_12
REMARK    6  A    between atoms: S_12  and  C_15
REMARK    7  A    between atoms: C_24  and  O_25
REMARK    8  A    between atoms: O_25  and  C_26
REMARK                            x       y       z     vdW  Elec       q    Type
REMARK                         _______ _______ _______ _____ _____    ______ ____
ROOT
ATOM      1  C   UNL     1       2.074   6.391  20.243  0.00  0.00    +0.000 A 
ATOM      2  C   UNL     1       1.555   5.180  20.782  0.00  0.00    +0.000 A 
ATOM      3  C   UNL     1       2.372   4.169  20.339  0.00  0.00    +0.000 A 
ATOM      4  N   UNL     1       3.310   4.788  19.523  0.00  0.00    +0.000 N 
ATOM      5  N   UNL     1       3.160   6.145  19.495  0.00  0.00    +0.000 NA
ENDROOT
BRANCH   1   9
ATOM      6  C   UNL     1       0.759  10.441  20.770  0.00  0.00    +0.000 A 
ATOM      7  C   UNL     1       0.661   9.513  21.816  0.00  0.00    +0.000 A 
ATOM      8  C   UNL     1       1.076   8.191  21.641  0.00  0.00    +0.000 A 
ATOM      9  C   UNL     1       1.553   7.753  20.403  0.00  0.00    +0.000 A 
ATOM     10  C   UNL     1       1.541   8.660  19.334  0.00  0.00    +0.000 A 
ATOM     11  C   UNL     1       1.142   9.997  19.498  0.00  0.00    +0.000 A 
BRANCH   6  13
ATOM     12  C   UNL     1      -0.915  12.105  20.823  0.00  0.00    +0.000 C 
ATOM     13  O   UNL     1       0.464  11.761  20.981  0.00  0.00    +0.000 OA
ENDBRANCH   6  13
BRANCH  11  14
ATOM     14  O   UNL     1       1.227  10.700  18.326  0.00  0.00    +0.000 OA
ATOM     15  C   UNL     1       2.275  11.639  18.157  0.00  0.00    +0.000 C 
ENDBRANCH  11  14
ENDBRANCH   1   9
BRANCH   3  16
ATOM     16  N   UNL     1       2.292   2.848  20.608  0.00  0.00    +0.000 N 
ATOM     17  H   UNL     1       1.421   2.332  20.500  0.00  0.00    +0.000 HD
ATOM     18  H   UNL     1       3.125   2.245  20.584  0.00  0.00    +0.000 HD
ENDBRANCH   3  16
BRANCH   4  19
ATOM     19  S   UNL     1       4.610   3.956  18.729  0.00  0.00    +0.000 S 
ATOM     20  O   UNL     1       5.238   3.091  19.718  0.00  0.00    +0.000 OA
ATOM     21  O   UNL     1       4.057   3.425  17.495  0.00  0.00    +0.000 OA
BRANCH  19  22
ATOM     22  C   UNL     1       5.746   5.252  18.300  0.00  0.00    +0.000 A 
ATOM     23  C   UNL     1       6.906   5.439  19.061  0.00  0.00    +0.000 A 
ATOM     24  C   UNL     1       7.795   6.458  18.716  0.00  0.00    +0.000 A 
ATOM     25  C   UNL     1       7.522   7.270  17.618  0.00  0.00    +0.000 A 
ATOM     26  F   UNL     1       8.373   8.253  17.298  0.00  0.00    +0.000 F 
ATOM     27  C   UNL     1       6.382   7.074  16.846  0.00  0.00    +0.000 A 
ATOM     28  C   UNL     1       5.489   6.054  17.180  0.00  0.00    +0.000 A 
ENDBRANCH  19  22
ENDBRANCH   4  19
TORSDOF 6
ENDMDL
