MODEL 1
REMARK VINA RESULT:      -7.8      0.000      0.000
REMARK  Name = 
REMARK  9 active torsions:
REMARK  status: ('A' for Active; 'I' for Inactive)
REMARK    1  A    between atoms: C_1  and  O_2
REMARK    2  A    between atoms: O_2  and  C_3
REMARK    3  A    between atoms: C_6  and  O_7
REMARK    4  A    between atoms: O_7  and  C_8
REMARK    5  A    between atoms: C_9  and  C_10
REMARK    6  A    between atoms: C_10  and  C_12
REMARK    7  A    between atoms: C_12  and  N_13
REMARK    8  A    between atoms: C_17  and  C_18
REMARK    9  A    between atoms: C_17  and  C_19
REMARK                            x       y       z     vdW  Elec       q    Type
REMARK                         _______ _______ _______ _____ _____    ______ ____
ROOT
ATOM      1  N   UNL     1       3.529   4.107  18.041  0.00  0.00    +0.000 N 
ATOM      2  C   UNL     1       2.228   3.723  17.991  0.00  0.00    +0.000 C 
ATOM      3  O   UNL     1       1.694   3.003  17.164  0.00  0.00    +0.000 OA
ATOM      4  N   UNL     1       1.554   4.296  19.044  0.00  0.00    +0.000 N 
ATOM      5  C   UNL     1       2.399   5.132  19.871  0.00  0.00    +0.000 C 
ATOM      6  C   UNL     1       2.427   4.569  21.295  0.00  0.00    +0.000 C 
ATOM      7  C   UNL     1       3.751   4.890  19.142  0.00  0.00    +0.000 C 
ATOM      8  O   UNL     1       4.836   5.348  19.482  0.00  0.00    +0.000 OA
ATOM      9  H   UNL     1       0.569   4.129  19.192  0.00  0.00    +0.000 HD
ENDROOT
BRANCH   5  10
ATOM     10  C   UNL     1       1.994   6.609  19.837  0.00  0.00    +0.000 A 
ATOM     11  C   UNL     1       1.385   7.251  20.932  0.00  0.00    +0.000 A 
ATOM     12  C   UNL     1       1.029   8.603  20.876  0.00  0.00    +0.000 A 
ATOM     13  C   UNL     1       1.273   9.345  19.724  0.00  0.00    +0.000 A 
ATOM     14  C   UNL     1       1.867   8.733  18.626  0.00  0.00    +0.000 A 
ATOM     15  C   UNL     1       2.223   7.382  18.680  0.00  0.00    +0.000 A 
ENDBRANCH   5  10
BRANCH   1  16
ATOM     16  C   UNL     1       4.541   3.707  17.058  0.00  0.00    +0.000 C 
BRANCH  16  17
ATOM     17  C   UNL     1       4.857   4.853  16.101  0.00  0.00    +0.000 C 
ATOM     18  O   UNL     1       4.421   5.992  16.309  0.00  0.00    +0.000 OA
BRANCH  17  23
ATOM     19  C   UNL     1       5.747   3.563  12.655  0.00  0.00    +0.000 A 
ATOM     20  C   UNL     1       7.027   4.056  12.448  0.00  0.00    +0.000 A 
ATOM     21  C   UNL     1       7.657   4.816  13.434  0.00  0.00    +0.000 A 
ATOM     22  C   UNL     1       7.022   5.088  14.662  0.00  0.00    +0.000 A 
ATOM     23  C   UNL     1       5.707   4.628  14.869  0.00  0.00    +0.000 A 
ATOM     24  C   UNL     1       5.093   3.859  13.850  0.00  0.00    +0.000 A 
BRANCH  19  26
ATOM     25  C   UNL     1       3.939   3.131  11.180  0.00  0.00    +0.000 C 
ATOM     26  O   UNL     1       5.252   2.817  11.622  0.00  0.00    +0.000 OA
ENDBRANCH  19  26
BRANCH  22  27
ATOM     27  O   UNL     1       7.648   5.805  15.651  0.00  0.00    +0.000 OA
ATOM     28  C   UNL     1       7.748   5.158  16.927  0.00  0.00    +0.000 C 
ENDBRANCH  22  27
ENDBRANCH  17  23
ENDBRANCH  16  17
ENDBRANCH   1  16
TORSDOF 6
ENDMDL
MODEL 2
REMARK VINA RESULT:      -7.7      0.463      1.046
REMARK  Name = 
REMARK  9 active torsions:
REMARK  status: ('A' for Active; 'I' for Inactive)
REMARK    1  A    between atoms: C_1  and  O_2
REMARK    2  A    between atoms: O_2  and  C_3
REMARK    3  A    between atoms: C_6  and  O_7
REMARK    4  A    between atoms: O_7  and  C_8
REMARK    5  A    between atoms: C_9  and  C_10
REMARK    6  A    between atoms: C_10  and  C_12
REMARK    7  A    between atoms: C_12  and  N_13
REMARK    8  A    between atoms: C_17  and  C_18
REMARK    9  A    between atoms: C_17  and  C_19
REMARK                            x       y       z     vdW  Elec       q    Type
REMARK                         _______ _______ _______ _____ _____    ______ ____
ROOT
ATOM      1  N   UNL     1       3.560   4.129  18.030  0.00  0.00    +0.000 N 
ATOM      2  C   UNL     1       2.259   3.758  17.928  0.00  0.00    +0.000 C 
ATOM      3  O   UNL     1       1.748   3.059  17.069  0.00  0.00    +0.000 OA
ATOM      4  N   UNL     1       1.554   4.315  18.969  0.00  0.00    +0.000 N 
ATOM      5  C   UNL     1       2.376   5.128  19.841  0.00  0.00    +0.000 C 
ATOM      6  C   UNL     1       2.351   4.536  21.253  0.00  0.00    +0.000 C 
ATOM      7  C   UNL     1       3.750   4.889  19.153  0.00  0.00    +0.000 C 
ATOM      8  O   UNL     1       4.827   5.330  19.540  0.00  0.00    +0.000 OA
ATOM      9  H   UNL     1       0.563   4.155  19.079  0.00  0.00    +0.000 HD
ENDROOT
BRANCH   5  10
ATOM     10  C   UNL     1       1.984   6.609  19.822  0.00  0.00    +0.000 A 
ATOM     11  C   UNL     1       2.181   7.428  18.694  0.00  0.00    +0.000 A 
ATOM     12  C   UNL     1       1.810   8.776  18.701  0.00  0.00    +0.000 A 
ATOM     13  C   UNL     1       1.234   9.339  19.837  0.00  0.00    +0.000 A 
ATOM     14  C   UNL     1       1.035   8.553  20.967  0.00  0.00    +0.000 A 
ATOM     15  C   UNL     1       1.406   7.205  20.961  0.00  0.00    +0.000 A 
ENDBRANCH   5  10
BRANCH   1  16
ATOM     16  C   UNL     1       4.602   3.740  17.075  0.00  0.00    +0.000 C 
BRANCH  16  17
ATOM     17  C   UNL     1       4.900   4.875  16.098  0.00  0.00    +0.000 C 
ATOM     18  O   UNL     1       4.460   6.014  16.295  0.00  0.00    +0.000 OA
BRANCH  17  23
ATOM     19  C   UNL     1       5.750   3.551  12.654  0.00  0.00    +0.000 A 
ATOM     20  C   UNL     1       7.029   4.040  12.428  0.00  0.00    +0.000 A 
ATOM     21  C   UNL     1       7.670   4.809  13.401  0.00  0.00    +0.000 A 
ATOM     22  C   UNL     1       7.049   5.094  14.633  0.00  0.00    +0.000 A 
ATOM     23  C   UNL     1       5.736   4.637  14.859  0.00  0.00    +0.000 A 
ATOM     24  C   UNL     1       5.110   3.859  13.854  0.00  0.00    +0.000 A 
BRANCH  19  26
ATOM     25  C   UNL     1       5.887   1.556  11.377  0.00  0.00    +0.000 C 
ATOM     26  O   UNL     1       5.243   2.796  11.634  0.00  0.00    +0.000 OA
ENDBRANCH  19  26
BRANCH  22  27
ATOM     27  O   UNL     1       7.687   5.819  15.608  0.00  0.00    +0.000 OA
ATOM     28  C   UNL     1       7.759   5.203  16.902  0.00  0.00    +0.000 C 
ENDBRANCH  22  27
ENDBRANCH  17  23
ENDBRANCH  16  17
ENDBRANCH   1  16
TORSDOF 6
ENDMDL
MODEL 3
REMARK VINA RESULT:      -7.6      0.978      1.480
REMARK  Name = 
REMARK  9 active torsions:
REMARK  status: ('A' for Active; 'I' for Inactive)
REMARK    1  A    between atoms: C_1  and  O_2
REMARK    2  A    between atoms: O_2  and  C_3
REMARK    3  A    between atoms: C_6  and  O_7
REMARK    4  A    between atoms: O_7  and  C_8
REMARK    5  A    between atoms: C_9  and  C_10
REMARK    6  A    between atoms: C_10  and  C_12
REMARK    7  A    between atoms: C_12  and  N_13
REMARK    8  A    between atoms: C_17  and  C_18
REMARK    9  A    between atoms: C_17  and  C_19
REMARK                            x       y       z     vdW  Elec       q    Type
REMARK                         _______ _______ _______ _____ _____    ______ ____
ROOT
ATOM      1  N   UNL     1       4.169   4.320  17.539  0.00  0.00    +0.000 N 
ATOM      2  C   UNL     1       2.900   3.874  17.354  0.00  0.00    +0.000 C 
ATOM      3  O   UNL     1       2.492   3.128  16.480  0.00  0.00    +0.000 OA
ATOM      4  N   UNL     1       2.092   4.414  18.327  0.00  0.00    +0.000 N 
ATOM      5  C   UNL     1       2.804   5.291  19.234  0.00  0.00    +0.000 C 
ATOM      6  C   UNL     1       2.708   4.730  20.656  0.00  0.00    +0.000 C 
ATOM      7  C   UNL     1       4.235   5.114  18.653  0.00  0.00    +0.000 C 
ATOM      8  O   UNL     1       5.255   5.623  19.103  0.00  0.00    +0.000 OA
ATOM      9  H   UNL     1       1.106   4.201  18.371  0.00  0.00    +0.000 HD
ENDROOT
BRANCH   5  10
ATOM     10  C   UNL     1       2.335   6.747  19.148  0.00  0.00    +0.000 A 
ATOM     11  C   UNL     1       2.418   7.498  17.960  0.00  0.00    +0.000 A 
ATOM     12  C   UNL     1       1.978   8.825  17.908  0.00  0.00    +0.000 A 
ATOM     13  C   UNL     1       1.446   9.433  19.041  0.00  0.00    +0.000 A 
ATOM     14  C   UNL     1       1.359   8.715  20.229  0.00  0.00    +0.000 A 
ATOM     15  C   UNL     1       1.799   7.389  20.283  0.00  0.00    +0.000 A 
ENDBRANCH   5  10
BRANCH   1  16
ATOM     16  C   UNL     1       5.297   3.968  16.672  0.00  0.00    +0.000 C 
BRANCH  16  17
ATOM     17  C   UNL     1       5.447   4.975  15.534  0.00  0.00    +0.000 C 
ATOM     18  O   UNL     1       5.209   6.176  15.714  0.00  0.00    +0.000 OA
BRANCH  17  23
ATOM     19  C   UNL     1       5.195   3.261  12.168  0.00  0.00    +0.000 A 
ATOM     20  C   UNL     1       6.399   3.576  11.555  0.00  0.00    +0.000 A 
ATOM     21  C   UNL     1       7.348   4.348  12.226  0.00  0.00    +0.000 A 
ATOM     22  C   UNL     1       7.119   4.812  13.537  0.00  0.00    +0.000 A 
ATOM     23  C   UNL     1       5.884   4.533  14.154  0.00  0.00    +0.000 A 
ATOM     24  C   UNL     1       4.940   3.746  13.449  0.00  0.00    +0.000 A 
BRANCH  19  26
ATOM     25  C   UNL     1       3.417   3.161  10.599  0.00  0.00    +0.000 C 
ATOM     26  O   UNL     1       4.362   2.482  11.414  0.00  0.00    +0.000 OA
ENDBRANCH  19  26
BRANCH  22  27
ATOM     27  O   UNL     1       8.062   5.541  14.216  0.00  0.00    +0.000 OA
ATOM     28  C   UNL     1       9.183   5.991  13.443  0.00  0.00    +0.000 C 
ENDBRANCH  22  27
ENDBRANCH  17  23
ENDBRANCH  16  17
ENDBRANCH   1  16
TORSDOF 6
ENDMDL
MODEL 4
REMARK VINA RESULT:      -7.5      8.450     11.534
REMARK  Name = 
REMARK  9 active torsions:
REMARK  status: ('A' for Active; 'I' for Inactive)
REMARK    1  A    between atoms: C_1  and  O_2
REMARK    2  A    between atoms: O_2  and  C_3
REMARK    3  A    between atoms: C_6  and  O_7
REMARK    4  A    between atoms: O_7  and  C_8
REMARK    5  A    between atoms: C_9  and  C_10
REMARK    6  A    between atoms: C_10  and  C_12
REMARK    7  A    between atoms: C_12  and  N_13
REMARK    8  A    between atoms: C_17  and  C_18
REMARK    9  A    between atoms: C_17  and  C_19
REMARK                            x       y       z     vdW  Elec       q    Type
REMARK                         _______ _______ _______ _____ _____    ______ ____
ROOT
ATOM      1  N   UNL     1      -0.218  11.811  19.120  0.00  0.00    +0.000 N 
ATOM      2  C   UNL     1      -0.422  12.843  18.262  0.00  0.00    +0.000 C 
ATOM      3  O   UNL     1       0.227  13.871  18.166  0.00  0.00    +0.000 OA
ATOM      4  N   UNL     1      -1.522  12.566  17.485  0.00  0.00    +0.000 N 
ATOM      5  C   UNL     1      -2.139  11.296  17.807  0.00  0.00    +0.000 C 
ATOM      6  C   UNL     1      -2.094  10.387  16.576  0.00  0.00    +0.000 C 
ATOM      7  C   UNL     1      -1.138  10.821  18.897  0.00  0.00    +0.000 C 
ATOM      8  O   UNL     1      -1.179   9.744  19.482  0.00  0.00    +0.000 OA
ATOM      9  H   UNL     1      -1.840  13.209  16.774  0.00  0.00    +0.000 HD
ENDROOT
BRANCH   5  10
ATOM     10  C   UNL     1      -3.557  11.447  18.368  0.00  0.00    +0.000 A 
ATOM     11  C   UNL     1      -3.854  12.298  19.450  0.00  0.00    +0.000 A 
ATOM     12  C   UNL     1      -5.158  12.420  19.940  0.00  0.00    +0.000 A 
ATOM     13  C   UNL     1      -6.196  11.695  19.362  0.00  0.00    +0.000 A 
ATOM     14  C   UNL     1      -5.928  10.842  18.297  0.00  0.00    +0.000 A 
ATOM     15  C   UNL     1      -4.625  10.718  17.806  0.00  0.00    +0.000 A 
ENDBRANCH   5  10
BRANCH   1  16
ATOM     16  C   UNL     1       0.855  11.773  20.118  0.00  0.00    +0.000 C 
BRANCH  16  17
ATOM     17  C   UNL     1       0.569  12.738  21.266  0.00  0.00    +0.000 C 
ATOM     18  O   UNL     1       1.402  13.589  21.601  0.00  0.00    +0.000 OA
BRANCH  17  23
ATOM     19  C   UNL     1      -2.876  13.828  22.395  0.00  0.00    +0.000 A 
ATOM     20  C   UNL     1      -3.255  12.830  23.282  0.00  0.00    +0.000 A 
ATOM     21  C   UNL     1      -2.391  11.769  23.558  0.00  0.00    +0.000 A 
ATOM     22  C   UNL     1      -1.117  11.692  22.961  0.00  0.00    +0.000 A 
ATOM     23  C   UNL     1      -0.736  12.676  22.029  0.00  0.00    +0.000 A 
ATOM     24  C   UNL     1      -1.634  13.741  21.769  0.00  0.00    +0.000 A 
BRANCH  19  26
ATOM     25  C   UNL     1      -4.897  14.829  23.132  0.00  0.00    +0.000 C 
ATOM     26  O   UNL     1      -3.802  14.819  22.228  0.00  0.00    +0.000 OA
ENDBRANCH  19  26
BRANCH  22  27
ATOM     27  O   UNL     1      -0.248  10.671  23.255  0.00  0.00    +0.000 OA
ATOM     28  C   UNL     1      -0.619   9.372  22.770  0.00  0.00    +0.000 C 
ENDBRANCH  22  27
ENDBRANCH  17  23
ENDBRANCH  16  17
ENDBRANCH   1  16
TORSDOF 6
ENDMDL
MODEL 5
REMARK VINA RESULT:      -7.4      2.856      8.043
REMARK  Name = 
REMARK  9 active torsions:
REMARK  status: ('A' for Active; 'I' for Inactive)
REMARK    1  A    between atoms: C_1  and  O_2
REMARK    2  A    between atoms: O_2  and  C_3
REMARK    3  A    between atoms: C_6  and  O_7
REMARK    4  A    between atoms: O_7  and  C_8
REMARK    5  A    between atoms: C_9  and  C_10
REMARK    6  A    between atoms: C_10  and  C_12
REMARK    7  A    between atoms: C_12  and  N_13
REMARK    8  A    between atoms: C_17  and  C_18
REMARK    9  A    between atoms: C_17  and  C_19
REMARK                            x       y       z     vdW  Elec       q    Type
REMARK                         _______ _______ _______ _____ _____    ______ ____
ROOT
ATOM      1  N   UNL     1       1.888   4.856  20.007  0.00  0.00    +0.000 N 
ATOM      2  C   UNL     1       2.474   3.883  20.751  0.00  0.00    +0.000 C 
ATOM      3  O   UNL     1       2.425   3.739  21.961  0.00  0.00    +0.000 OA
ATOM      4  N   UNL     1       3.176   3.046  19.916  0.00  0.00    +0.000 N 
ATOM      5  C   UNL     1       3.104   3.441  18.525  0.00  0.00    +0.000 C 
ATOM      6  C   UNL     1       2.451   2.317  17.715  0.00  0.00    +0.000 C 
ATOM      7  C   UNL     1       2.147   4.656  18.677  0.00  0.00    +0.000 C 
ATOM      8  O   UNL     1       1.713   5.341  17.758  0.00  0.00    +0.000 OA
ATOM      9  H   UNL     1       3.682   2.249  20.275  0.00  0.00    +0.000 HD
ENDROOT
BRANCH   5  10
ATOM     10  C   UNL     1       4.462   3.859  17.952  0.00  0.00    +0.000 A 
ATOM     11  C   UNL     1       4.780   3.723  16.587  0.00  0.00    +0.000 A 
ATOM     12  C   UNL     1       6.026   4.117  16.089  0.00  0.00    +0.000 A 
ATOM     13  C   UNL     1       6.984   4.656  16.942  0.00  0.00    +0.000 A 
ATOM     14  C   UNL     1       6.698   4.796  18.296  0.00  0.00    +0.000 A 
ATOM     15  C   UNL     1       5.453   4.401  18.796  0.00  0.00    +0.000 A 
ENDBRANCH   5  10
BRANCH   1  16
ATOM     16  C   UNL     1       1.078   5.942  20.567  0.00  0.00    +0.000 C 
BRANCH  16  17
ATOM     17  C   UNL     1       1.771   7.290  20.387  0.00  0.00    +0.000 C 
ATOM     18  O   UNL     1       2.978   7.353  20.126  0.00  0.00    +0.000 OA
BRANCH  17  23
ATOM     19  C   UNL     1      -0.155  10.041  22.134  0.00  0.00    +0.000 A 
ATOM     20  C   UNL     1      -0.434  10.938  21.113  0.00  0.00    +0.000 A 
ATOM     21  C   UNL     1      -0.018  10.669  19.808  0.00  0.00    +0.000 A 
ATOM     22  C   UNL     1       0.678   9.485  19.493  0.00  0.00    +0.000 A 
ATOM     23  C   UNL     1       1.002   8.586  20.528  0.00  0.00    +0.000 A 
ATOM     24  C   UNL     1       0.566   8.885  21.842  0.00  0.00    +0.000 A 
BRANCH  19  26
ATOM     25  C   UNL     1      -1.657  11.398  23.374  0.00  0.00    +0.000 C 
ATOM     26  O   UNL     1      -0.635  10.410  23.360  0.00  0.00    +0.000 OA
ENDBRANCH  19  26
BRANCH  22  27
ATOM     27  O   UNL     1       1.059   9.197  18.206  0.00  0.00    +0.000 OA
ATOM     28  C   UNL     1       2.243   9.861  17.740  0.00  0.00    +0.000 C 
ENDBRANCH  22  27
ENDBRANCH  17  23
ENDBRANCH  16  17
ENDBRANCH   1  16
TORSDOF 6
ENDMDL
MODEL 6
REMARK VINA RESULT:      -7.4      9.672     13.369
REMARK  Name = 
REMARK  9 active torsions:
REMARK  status: ('A' for Active; 'I' for Inactive)
REMARK    1  A    between atoms: C_1  and  O_2
REMARK    2  A    between atoms: O_2  and  C_3
REMARK    3  A    between atoms: C_6  and  O_7
REMARK    4  A    between atoms: O_7  and  C_8
REMARK    5  A    between atoms: C_9  and  C_10
REMARK    6  A    between atoms: C_10  and  C_12
REMARK    7  A    between atoms: C_12  and  N_13
REMARK    8  A    between atoms: C_17  and  C_18
REMARK    9  A    between atoms: C_17  and  C_19
REMARK                            x       y       z     vdW  Elec       q    Type
REMARK                         _______ _______ _______ _____ _____    ______ ____
ROOT
ATOM      1  N   UNL     1      -6.211  12.824  21.394  0.00  0.00    +0.000 N 
ATOM      2  C   UNL     1      -6.744  11.640  21.000  0.00  0.00    +0.000 C 
ATOM      3  O   UNL     1      -7.434  10.878  21.656  0.00  0.00    +0.000 OA
ATOM      4  N   UNL     1      -6.373  11.396  19.698  0.00  0.00    +0.000 N 
ATOM      5  C   UNL     1      -5.530  12.435  19.144  0.00  0.00    +0.000 C 
ATOM      6  C   UNL     1      -6.232  13.062  17.936  0.00  0.00    +0.000 C 
ATOM      7  C   UNL     1      -5.525  13.404  20.360  0.00  0.00    +0.000 C 
ATOM      8  O   UNL     1      -4.976  14.499  20.396  0.00  0.00    +0.000 OA
ATOM      9  H   UNL     1      -6.674  10.563  19.213  0.00  0.00    +0.000 HD
ENDROOT
BRANCH   5  10
ATOM     10  C   UNL     1      -4.119  11.942  18.807  0.00  0.00    +0.000 A 
ATOM     11  C   UNL     1      -3.023  12.147  19.667  0.00  0.00    +0.000 A 
ATOM     12  C   UNL     1      -1.745  11.683  19.339  0.00  0.00    +0.000 A 
ATOM     13  C   UNL     1      -1.532  11.004  18.142  0.00  0.00    +0.000 A 
ATOM     14  C   UNL     1      -2.596  10.795  17.272  0.00  0.00    +0.000 A 
ATOM     15  C   UNL     1      -3.874  11.259  17.599  0.00  0.00    +0.000 A 
ENDBRANCH   5  10
BRANCH   1  16
ATOM     16  C   UNL     1      -6.377  13.393  22.735  0.00  0.00    +0.000 C 
BRANCH  16  17
ATOM     17  C   UNL     1      -5.315  12.859  23.692  0.00  0.00    +0.000 C 
ATOM     18  O   UNL     1      -5.601  12.015  24.550  0.00  0.00    +0.000 OA
BRANCH  17  23
ATOM     19  C   UNL     1      -1.565  12.652  23.214  0.00  0.00    +0.000 A 
ATOM     20  C   UNL     1      -1.144  13.960  23.402  0.00  0.00    +0.000 A 
ATOM     21  C   UNL     1      -2.068  14.959  23.710  0.00  0.00    +0.000 A 
ATOM     22  C   UNL     1      -3.439  14.667  23.851  0.00  0.00    +0.000 A 
ATOM     23  C   UNL     1      -3.885  13.351  23.623  0.00  0.00    +0.000 A 
ATOM     24  C   UNL     1      -2.924  12.357  23.313  0.00  0.00    +0.000 A 
BRANCH  19  26
ATOM     25  C   UNL     1      -0.877  10.386  23.054  0.00  0.00    +0.000 C 
ATOM     26  O   UNL     1      -0.560  11.766  22.940  0.00  0.00    +0.000 OA
ENDBRANCH  19  26
BRANCH  22  27
ATOM     27  O   UNL     1      -4.349  15.638  24.187  0.00  0.00    +0.000 OA
ATOM     28  C   UNL     1      -3.849  16.714  24.994  0.00  0.00    +0.000 C 
ENDBRANCH  22  27
ENDBRANCH  17  23
ENDBRANCH  16  17
ENDBRANCH   1  16
TORSDOF 6
ENDMDL
MODEL 7
REMARK VINA RESULT:      -7.4      8.472     11.488
REMARK  Name = 
REMARK  9 active torsions:
REMARK  status: ('A' for Active; 'I' for Inactive)
REMARK    1  A    between atoms: C_1  and  O_2
REMARK    2  A    between atoms: O_2  and  C_3
REMARK    3  A    between atoms: C_6  and  O_7
REMARK    4  A    between atoms: O_7  and  C_8
REMARK    5  A    between atoms: C_9  and  C_10
REMARK    6  A    between atoms: C_10  and  C_12
REMARK    7  A    between atoms: C_12  and  N_13
REMARK    8  A    between atoms: C_17  and  C_18
REMARK    9  A    between atoms: C_17  and  C_19
REMARK                            x       y       z     vdW  Elec       q    Type
REMARK                         _______ _______ _______ _____ _____    ______ ____
ROOT
ATOM      1  N   UNL     1      -0.093  11.721  19.181  0.00  0.00    +0.000 N 
ATOM      2  C   UNL     1      -0.265  12.823  18.408  0.00  0.00    +0.000 C 
ATOM      3  O   UNL     1       0.441  13.816  18.357  0.00  0.00    +0.000 OA
ATOM      4  N   UNL     1      -1.408  12.667  17.659  0.00  0.00    +0.000 N 
ATOM      5  C   UNL     1      -2.088  11.415  17.915  0.00  0.00    +0.000 C 
ATOM      6  C   UNL     1      -2.143  10.597  16.622  0.00  0.00    +0.000 C 
ATOM      7  C   UNL     1      -1.078  10.805  18.928  0.00  0.00    +0.000 C 
ATOM      8  O   UNL     1      -1.162   9.692  19.436  0.00  0.00    +0.000 OA
ATOM      9  H   UNL     1      -1.712  13.378  17.009  0.00  0.00    +0.000 HD
ENDROOT
BRANCH   5  10
ATOM     10  C   UNL     1      -3.473  11.606  18.544  0.00  0.00    +0.000 A 
ATOM     11  C   UNL     1      -4.633  11.016  18.007  0.00  0.00    +0.000 A 
ATOM     12  C   UNL     1      -5.885  11.202  18.603  0.00  0.00    +0.000 A 
ATOM     13  C   UNL     1      -6.007  11.982  19.750  0.00  0.00    +0.000 A 
ATOM     14  C   UNL     1      -4.877  12.581  20.297  0.00  0.00    +0.000 A 
ATOM     15  C   UNL     1      -3.625  12.396  19.701  0.00  0.00    +0.000 A 
ENDBRANCH   5  10
BRANCH   1  16
ATOM     16  C   UNL     1       1.012  11.548  20.129  0.00  0.00    +0.000 C 
BRANCH  16  17
ATOM     17  C   UNL     1       0.488  11.317  21.544  0.00  0.00    +0.000 C 
ATOM     18  O   UNL     1       0.863  10.343  22.208  0.00  0.00    +0.000 OA
BRANCH  17  23
ATOM     19  C   UNL     1      -2.664  12.389  23.347  0.00  0.00    +0.000 A 
ATOM     20  C   UNL     1      -2.534  13.768  23.429  0.00  0.00    +0.000 A 
ATOM     21  C   UNL     1      -1.419  14.403  22.882  0.00  0.00    +0.000 A 
ATOM     22  C   UNL     1      -0.410  13.671  22.225  0.00  0.00    +0.000 A 
ATOM     23  C   UNL     1      -0.510  12.267  22.171  0.00  0.00    +0.000 A 
ATOM     24  C   UNL     1      -1.653  11.650  22.734  0.00  0.00    +0.000 A 
BRANCH  19  26
ATOM     25  C   UNL     1      -4.846  12.828  24.170  0.00  0.00    +0.000 C 
ATOM     26  O   UNL     1      -3.810  11.893  23.902  0.00  0.00    +0.000 OA
ENDBRANCH  19  26
BRANCH  22  27
ATOM     27  O   UNL     1       0.672  14.292  21.654  0.00  0.00    +0.000 OA
ATOM     28  C   UNL     1       1.084  15.522  22.266  0.00  0.00    +0.000 C 
ENDBRANCH  22  27
ENDBRANCH  17  23
ENDBRANCH  16  17
ENDBRANCH   1  16
TORSDOF 6
ENDMDL
MODEL 8
REMARK VINA RESULT:      -7.2      1.692      3.289
REMARK  Name = 
REMARK  9 active torsions:
REMARK  status: ('A' for Active; 'I' for Inactive)
REMARK    1  A    between atoms: C_1  and  O_2
REMARK    2  A    between atoms: O_2  and  C_3
REMARK    3  A    between atoms: C_6  and  O_7
REMARK    4  A    between atoms: O_7  and  C_8
REMARK    5  A    between atoms: C_9  and  C_10
REMARK    6  A    between atoms: C_10  and  C_12
REMARK    7  A    between atoms: C_12  and  N_13
REMARK    8  A    between atoms: C_17  and  C_18
REMARK    9  A    between atoms: C_17  and  C_19
REMARK                            x       y       z     vdW  Elec       q    Type
REMARK                         _______ _______ _______ _____ _____    ______ ____
ROOT
ATOM      1  N   UNL     1       5.171   4.749  17.716  0.00  0.00    +0.000 N 
ATOM      2  C   UNL     1       5.697   5.242  18.866  0.00  0.00    +0.000 C 
ATOM      3  O   UNL     1       6.874   5.312  19.178  0.00  0.00    +0.000 OA
ATOM      4  N   UNL     1       4.672   5.663  19.680  0.00  0.00    +0.000 N 
ATOM      5  C   UNL     1       3.363   5.450  19.100  0.00  0.00    +0.000 C 
ATOM      6  C   UNL     1       2.657   6.800  18.937  0.00  0.00    +0.000 C 
ATOM      7  C   UNL     1       3.808   4.876  17.725  0.00  0.00    +0.000 C 
ATOM      8  O   UNL     1       3.059   4.565  16.806  0.00  0.00    +0.000 OA
ATOM      9  H   UNL     1       4.853   6.071  20.586  0.00  0.00    +0.000 HD
ENDROOT
BRANCH   5  10
ATOM     10  C   UNL     1       2.518   4.442  19.886  0.00  0.00    +0.000 A 
ATOM     11  C   UNL     1       1.377   3.823  19.339  0.00  0.00    +0.000 A 
ATOM     12  C   UNL     1       0.626   2.903  20.077  0.00  0.00    +0.000 A 
ATOM     13  C   UNL     1       0.996   2.579  21.379  0.00  0.00    +0.000 A 
ATOM     14  C   UNL     1       2.115   3.180  21.945  0.00  0.00    +0.000 A 
ATOM     15  C   UNL     1       2.866   4.101  21.209  0.00  0.00    +0.000 A 
ENDBRANCH   5  10
BRANCH   1  16
ATOM     16  C   UNL     1       5.970   4.186  16.624  0.00  0.00    +0.000 C 
BRANCH  16  17
ATOM     17  C   UNL     1       6.039   5.151  15.443  0.00  0.00    +0.000 C 
ATOM     18  O   UNL     1       5.857   6.364  15.603  0.00  0.00    +0.000 OA
BRANCH  17  23
ATOM     19  C   UNL     1       5.420   3.313  12.191  0.00  0.00    +0.000 A 
ATOM     20  C   UNL     1       6.556   3.589  11.444  0.00  0.00    +0.000 A 
ATOM     21  C   UNL     1       7.577   4.375  11.981  0.00  0.00    +0.000 A 
ATOM     22  C   UNL     1       7.490   4.890  13.289  0.00  0.00    +0.000 A 
ATOM     23  C   UNL     1       6.325   4.650  14.043  0.00  0.00    +0.000 A 
ATOM     24  C   UNL     1       5.306   3.850  13.473  0.00  0.00    +0.000 A 
BRANCH  19  26
ATOM     25  C   UNL     1       3.507   3.174  10.794  0.00  0.00    +0.000 C 
ATOM     26  O   UNL     1       4.506   2.516  11.560  0.00  0.00    +0.000 OA
ENDBRANCH  19  26
BRANCH  22  27
ATOM     27  O   UNL     1       8.506   5.634  13.837  0.00  0.00    +0.000 OA
ATOM     28  C   UNL     1       9.384   6.279  12.904  0.00  0.00    +0.000 C 
ENDBRANCH  22  27
ENDBRANCH  17  23
ENDBRANCH  16  17
ENDBRANCH   1  16
TORSDOF 6
ENDMDL
MODEL 9
REMARK VINA RESULT:      -7.1      3.400      5.976
REMARK  Name = 
REMARK  9 active torsions:
REMARK  status: ('A' for Active; 'I' for Inactive)
REMARK    1  A    between atoms: C_1  and  O_2
REMARK    2  A    between atoms: O_2  and  C_3
REMARK    3  A    between atoms: C_6  and  O_7
REMARK    4  A    between atoms: O_7  and  C_8
REMARK    5  A    between atoms: C_9  and  C_10
REMARK    6  A    between atoms: C_10  and  C_12
REMARK    7  A    between atoms: C_12  and  N_13
REMARK    8  A    between atoms: C_17  and  C_18
REMARK    9  A    between atoms: C_17  and  C_19
REMARK                            x       y       z     vdW  Elec       q    Type
REMARK                         _______ _______ _______ _____ _____    ______ ____
ROOT
ATOM      1  N   UNL     1       1.672   8.507  19.476  0.00  0.00    +0.000 N 
ATOM      2  C   UNL     1       2.010   8.664  18.171  0.00  0.00    +0.000 C 
ATOM      3  O   UNL     1       2.891   8.088  17.555  0.00  0.00    +0.000 OA
ATOM      4  N   UNL     1       1.193   9.618  17.610  0.00  0.00    +0.000 N 
ATOM      5  C   UNL     1       0.244  10.176  18.551  0.00  0.00    +0.000 C 
ATOM      6  C   UNL     1      -1.179   9.886  18.064  0.00  0.00    +0.000 C 
ATOM      7  C   UNL     1       0.605   9.307  19.789  0.00  0.00    +0.000 C 
ATOM      8  O   UNL     1       0.043   9.349  20.877  0.00  0.00    +0.000 OA
ATOM      9  H   UNL     1       1.279   9.879  16.638  0.00  0.00    +0.000 HD
ENDROOT
BRANCH   5  10
ATOM     10  C   UNL     1       0.476  11.666  18.819  0.00  0.00    +0.000 A 
ATOM     11  C   UNL     1       1.639  12.149  19.449  0.00  0.00    +0.000 A 
ATOM     12  C   UNL     1       1.828  13.515  19.678  0.00  0.00    +0.000 A 
ATOM     13  C   UNL     1       0.859  14.433  19.284  0.00  0.00    +0.000 A 
ATOM     14  C   UNL     1      -0.303  13.983  18.665  0.00  0.00    +0.000 A 
ATOM     15  C   UNL     1      -0.493  12.616  18.437  0.00  0.00    +0.000 A 
ENDBRANCH   5  10
BRANCH   1  16
ATOM     16  C   UNL     1       2.349   7.588  20.395  0.00  0.00    +0.000 C 
BRANCH  16  17
ATOM     17  C   UNL     1       1.980   6.138  20.090  0.00  0.00    +0.000 C 
ATOM     18  O   UNL     1       0.902   5.665  20.470  0.00  0.00    +0.000 OA
BRANCH  17  23
ATOM     19  C   UNL     1       5.294   4.767  18.877  0.00  0.00    +0.000 A 
ATOM     20  C   UNL     1       4.923   3.721  18.044  0.00  0.00    +0.000 A 
ATOM     21  C   UNL     1       3.574   3.433  17.833  0.00  0.00    +0.000 A 
ATOM     22  C   UNL     1       2.561   4.200  18.443  0.00  0.00    +0.000 A 
ATOM     23  C   UNL     1       2.923   5.238  19.322  0.00  0.00    +0.000 A 
ATOM     24  C   UNL     1       4.300   5.508  19.516  0.00  0.00    +0.000 A 
BRANCH  19  26
ATOM     25  C   UNL     1       7.414   4.730  17.810  0.00  0.00    +0.000 C 
ATOM     26  O   UNL     1       6.643   4.958  18.982  0.00  0.00    +0.000 OA
ENDBRANCH  19  26
BRANCH  22  27
ATOM     27  O   UNL     1       1.232   3.945  18.212  0.00  0.00    +0.000 OA
ATOM     28  C   UNL     1       0.738   2.692  18.707  0.00  0.00    +0.000 C 
ENDBRANCH  22  27
ENDBRANCH  17  23
ENDBRANCH  16  17
ENDBRANCH   1  16
TORSDOF 6
ENDMDL
