MODEL 1
REMARK VINA RESULT:      -7.5      0.000      0.000
REMARK  Name = 
REMARK  1 active torsions:
REMARK  status: ('A' for Active; 'I' for Inactive)
REMARK    1  A    between atoms: C_1  and  C_2
REMARK                            x       y       z     vdW  Elec       q    Type
REMARK                         _______ _______ _______ _____ _____    ______ ____
ROOT
ATOM      1  C   UNL     1       1.886   3.142  21.920  0.00  0.00    +0.000 C 
ATOM      2  C   UNL     1       2.145   4.138  20.829  0.00  0.00    +0.000 A 
ATOM      3  C   UNL     1       1.513   5.383  20.825  0.00  0.00    +0.000 A 
ATOM      4  C   UNL     1       1.807   6.319  19.830  0.00  0.00    +0.000 A 
ATOM      5  C   UNL     1       2.759   6.041  18.839  0.00  0.00    +0.000 A 
ATOM      6  C   UNL     1       3.391   4.781  18.820  0.00  0.00    +0.000 A 
ATOM      7  C   UNL     1       3.062   3.838  19.809  0.00  0.00    +0.000 A 
ATOM      8  N   UNL     1       4.387   4.462  17.841  0.00  0.00    +0.000 N 
ATOM      9  C   UNL     1       4.382   3.227  17.197  0.00  0.00    +0.000 C 
ATOM     10  N   UNL     1       5.342   3.058  16.236  0.00  0.00    +0.000 N 
ATOM     11  O   UNL     1       3.560   2.326  17.343  0.00  0.00    +0.000 OA
ATOM     12  C   UNL     1       5.538   5.314  17.902  0.00  0.00    +0.000 A 
ATOM     13  C   UNL     1       6.790   4.757  18.221  0.00  0.00    +0.000 A 
ATOM     14  C   UNL     1       7.927   5.557  18.322  0.00  0.00    +0.000 A 
ATOM     15  C   UNL     1       7.833   6.923  18.087  0.00  0.00    +0.000 A 
ATOM     16  C   UNL     1       6.602   7.493  17.759  0.00  0.00    +0.000 A 
ATOM     17  C   UNL     1       5.442   6.703  17.683  0.00  0.00    +0.000 A 
ATOM     18  C   UNL     1       4.190   7.360  17.292  0.00  0.00    +0.000 C 
ATOM     19  C   UNL     1       2.990   7.062  17.808  0.00  0.00    +0.000 C 
ATOM     20  H   UNL     1       5.657   3.893  15.760  0.00  0.00    +0.000 HD
ATOM     21  H   UNL     1       5.176   2.257  15.642  0.00  0.00    +0.000 HD
ENDROOT
TORSDOF 0
ENDMDL
MODEL 2
REMARK VINA RESULT:      -7.4      1.650      2.429
REMARK  Name = 
REMARK  1 active torsions:
REMARK  status: ('A' for Active; 'I' for Inactive)
REMARK    1  A    between atoms: C_1  and  C_2
REMARK                            x       y       z     vdW  Elec       q    Type
REMARK                         _______ _______ _______ _____ _____    ______ ____
ROOT
ATOM      1  C   UNL     1       0.897   8.071  21.348  0.00  0.00    +0.000 C 
ATOM      2  C   UNL     1       1.638   7.848  20.062  0.00  0.00    +0.000 A 
ATOM      3  C   UNL     1       1.581   8.782  19.026  0.00  0.00    +0.000 A 
ATOM      4  C   UNL     1       2.320   8.582  17.857  0.00  0.00    +0.000 A 
ATOM      5  C   UNL     1       3.152   7.463  17.713  0.00  0.00    +0.000 A 
ATOM      6  C   UNL     1       3.204   6.503  18.744  0.00  0.00    +0.000 A 
ATOM      7  C   UNL     1       2.431   6.701  19.901  0.00  0.00    +0.000 A 
ATOM      8  N   UNL     1       4.058   5.356  18.651  0.00  0.00    +0.000 N 
ATOM      9  C   UNL     1       3.596   4.094  19.016  0.00  0.00    +0.000 C 
ATOM     10  N   UNL     1       4.478   3.064  18.825  0.00  0.00    +0.000 N 
ATOM     11  O   UNL     1       2.465   3.809  19.403  0.00  0.00    +0.000 OA
ATOM     12  C   UNL     1       5.448   5.688  18.552  0.00  0.00    +0.000 A 
ATOM     13  C   UNL     1       6.324   5.287  19.577  0.00  0.00    +0.000 A 
ATOM     14  C   UNL     1       7.678   5.619  19.535  0.00  0.00    +0.000 A 
ATOM     15  C   UNL     1       8.179   6.340  18.458  0.00  0.00    +0.000 A 
ATOM     16  C   UNL     1       7.327   6.738  17.427  0.00  0.00    +0.000 A 
ATOM     17  C   UNL     1       5.955   6.437  17.471  0.00  0.00    +0.000 A 
ATOM     18  C   UNL     1       5.126   6.849  16.333  0.00  0.00    +0.000 C 
ATOM     19  C   UNL     1       3.871   7.306  16.442  0.00  0.00    +0.000 C 
ATOM     20  H   UNL     1       5.149   3.177  18.077  0.00  0.00    +0.000 HD
ATOM     21  H   UNL     1       4.045   2.151  18.884  0.00  0.00    +0.000 HD
ENDROOT
TORSDOF 0
ENDMDL
MODEL 3
REMARK VINA RESULT:      -7.4      2.054      5.407
REMARK  Name = 
REMARK  1 active torsions:
REMARK  status: ('A' for Active; 'I' for Inactive)
REMARK    1  A    between atoms: C_1  and  C_2
REMARK                            x       y       z     vdW  Elec       q    Type
REMARK                         _______ _______ _______ _____ _____    ______ ____
ROOT
ATOM      1  C   UNL     1       8.149   6.755  18.591  0.00  0.00    +0.000 C 
ATOM      2  C   UNL     1       7.015   5.969  18.001  0.00  0.00    +0.000 A 
ATOM      3  C   UNL     1       7.251   4.817  17.249  0.00  0.00    +0.000 A 
ATOM      4  C   UNL     1       6.180   4.069  16.752  0.00  0.00    +0.000 A 
ATOM      5  C   UNL     1       4.855   4.440  17.023  0.00  0.00    +0.000 A 
ATOM      6  C   UNL     1       4.603   5.611  17.765  0.00  0.00    +0.000 A 
ATOM      7  C   UNL     1       5.690   6.371  18.232  0.00  0.00    +0.000 A 
ATOM      8  N   UNL     1       3.267   6.016  18.087  0.00  0.00    +0.000 N 
ATOM      9  C   UNL     1       2.877   7.347  17.962  0.00  0.00    +0.000 C 
ATOM     10  N   UNL     1       1.560   7.606  18.234  0.00  0.00    +0.000 N 
ATOM     11  O   UNL     1       3.565   8.279  17.552  0.00  0.00    +0.000 OA
ATOM     12  C   UNL     1       2.559   5.060  18.886  0.00  0.00    +0.000 A 
ATOM     13  C   UNL     1       2.147   5.419  20.182  0.00  0.00    +0.000 A 
ATOM     14  C   UNL     1       1.485   4.507  21.004  0.00  0.00    +0.000 A 
ATOM     15  C   UNL     1       1.209   3.229  20.534  0.00  0.00    +0.000 A 
ATOM     16  C   UNL     1       1.602   2.858  19.247  0.00  0.00    +0.000 A 
ATOM     17  C   UNL     1       2.295   3.756  18.419  0.00  0.00    +0.000 A 
ATOM     18  C   UNL     1       2.639   3.314  17.063  0.00  0.00    +0.000 C 
ATOM     19  C   UNL     1       3.785   3.622  16.439  0.00  0.00    +0.000 C 
ATOM     20  H   UNL     1       0.908   6.853  18.063  0.00  0.00    +0.000 HD
ATOM     21  H   UNL     1       1.260   8.520  17.923  0.00  0.00    +0.000 HD
ENDROOT
TORSDOF 0
ENDMDL
MODEL 4
REMARK VINA RESULT:      -6.8      1.962      4.707
REMARK  Name = 
REMARK  1 active torsions:
REMARK  status: ('A' for Active; 'I' for Inactive)
REMARK    1  A    between atoms: C_1  and  C_2
REMARK                            x       y       z     vdW  Elec       q    Type
REMARK                         _______ _______ _______ _____ _____    ______ ____
ROOT
ATOM      1  C   UNL     1       2.139   9.487  17.567  0.00  0.00    +0.000 C 
ATOM      2  C   UNL     1       2.192   8.406  18.606  0.00  0.00    +0.000 A 
ATOM      3  C   UNL     1       1.393   8.466  19.749  0.00  0.00    +0.000 A 
ATOM      4  C   UNL     1       1.417   7.424  20.679  0.00  0.00    +0.000 A 
ATOM      5  C   UNL     1       2.215   6.290  20.472  0.00  0.00    +0.000 A 
ATOM      6  C   UNL     1       3.041   6.226  19.331  0.00  0.00    +0.000 A 
ATOM      7  C   UNL     1       3.030   7.296  18.420  0.00  0.00    +0.000 A 
ATOM      8  N   UNL     1       3.855   5.077  19.065  0.00  0.00    +0.000 N 
ATOM      9  C   UNL     1       5.173   5.222  18.640  0.00  0.00    +0.000 C 
ATOM     10  N   UNL     1       5.874   4.057  18.479  0.00  0.00    +0.000 N 
ATOM     11  O   UNL     1       5.783   6.277  18.483  0.00  0.00    +0.000 OA
ATOM     12  C   UNL     1       3.099   3.872  18.891  0.00  0.00    +0.000 A 
ATOM     13  C   UNL     1       3.131   3.214  17.648  0.00  0.00    +0.000 A 
ATOM     14  C   UNL     1       2.384   2.057  17.428  0.00  0.00    +0.000 A 
ATOM     15  C   UNL     1       1.609   1.531  18.454  0.00  0.00    +0.000 A 
ATOM     16  C   UNL     1       1.572   2.164  19.697  0.00  0.00    +0.000 A 
ATOM     17  C   UNL     1       2.296   3.347  19.924  0.00  0.00    +0.000 A 
ATOM     18  C   UNL     1       2.245   3.935  21.267  0.00  0.00    +0.000 C 
ATOM     19  C   UNL     1       2.211   5.252  21.511  0.00  0.00    +0.000 C 
ATOM     20  H   UNL     1       5.597   3.280  19.063  0.00  0.00    +0.000 HD
ATOM     21  H   UNL     1       6.871   4.200  18.391  0.00  0.00    +0.000 HD
ENDROOT
TORSDOF 0
ENDMDL
MODEL 5
REMARK VINA RESULT:      -6.8      2.077      4.994
REMARK  Name = 
REMARK  1 active torsions:
REMARK  status: ('A' for Active; 'I' for Inactive)
REMARK    1  A    between atoms: C_1  and  C_2
REMARK                            x       y       z     vdW  Elec       q    Type
REMARK                         _______ _______ _______ _____ _____    ______ ____
ROOT
ATOM      1  C   UNL     1       5.175   7.046  15.221  0.00  0.00    +0.000 C 
ATOM      2  C   UNL     1       4.451   6.887  16.525  0.00  0.00    +0.000 A 
ATOM      3  C   UNL     1       3.610   7.891  17.009  0.00  0.00    +0.000 A 
ATOM      4  C   UNL     1       2.903   7.702  18.200  0.00  0.00    +0.000 A 
ATOM      5  C   UNL     1       2.999   6.498  18.912  0.00  0.00    +0.000 A 
ATOM      6  C   UNL     1       3.860   5.484  18.445  0.00  0.00    +0.000 A 
ATOM      7  C   UNL     1       4.589   5.701  17.262  0.00  0.00    +0.000 A 
ATOM      8  N   UNL     1       3.971   4.229  19.126  0.00  0.00    +0.000 N 
ATOM      9  C   UNL     1       5.217   3.644  19.340  0.00  0.00    +0.000 C 
ATOM     10  N   UNL     1       5.207   2.478  20.057  0.00  0.00    +0.000 N 
ATOM     11  O   UNL     1       6.311   4.110  19.029  0.00  0.00    +0.000 OA
ATOM     12  C   UNL     1       2.739   3.500  19.182  0.00  0.00    +0.000 A 
ATOM     13  C   UNL     1       2.647   2.255  18.535  0.00  0.00    +0.000 A 
ATOM     14  C   UNL     1       1.455   1.530  18.539  0.00  0.00    +0.000 A 
ATOM     15  C   UNL     1       0.344   2.031  19.206  0.00  0.00    +0.000 A 
ATOM     16  C   UNL     1       0.420   3.261  19.862  0.00  0.00    +0.000 A 
ATOM     17  C   UNL     1       1.604   4.016  19.841  0.00  0.00    +0.000 A 
ATOM     18  C   UNL     1       1.625   5.279  20.588  0.00  0.00    +0.000 C 
ATOM     19  C   UNL     1       2.252   6.389  20.172  0.00  0.00    +0.000 C 
ATOM     20  H   UNL     1       4.457   2.366  20.726  0.00  0.00    +0.000 HD
ATOM     21  H   UNL     1       6.124   2.202  20.384  0.00  0.00    +0.000 HD
ENDROOT
TORSDOF 0
ENDMDL
MODEL 6
REMARK VINA RESULT:      -6.7      7.424      9.396
REMARK  Name = 
REMARK  1 active torsions:
REMARK  status: ('A' for Active; 'I' for Inactive)
REMARK    1  A    between atoms: C_1  and  C_2
REMARK                            x       y       z     vdW  Elec       q    Type
REMARK                         _______ _______ _______ _____ _____    ______ ____
ROOT
ATOM      1  C   UNL     1      -2.662  10.540  15.757  0.00  0.00    +0.000 C 
ATOM      2  C   UNL     1      -2.715  11.155  17.124  0.00  0.00    +0.000 A 
ATOM      3  C   UNL     1      -3.935  11.476  17.723  0.00  0.00    +0.000 A 
ATOM      4  C   UNL     1      -3.966  11.999  19.019  0.00  0.00    +0.000 A 
ATOM      5  C   UNL     1      -2.785  12.183  19.751  0.00  0.00    +0.000 A 
ATOM      6  C   UNL     1      -1.546  11.882  19.151  0.00  0.00    +0.000 A 
ATOM      7  C   UNL     1      -1.527  11.386  17.835  0.00  0.00    +0.000 A 
ATOM      8  N   UNL     1      -0.315  12.032  19.868  0.00  0.00    +0.000 N 
ATOM      9  C   UNL     1       0.796  12.614  19.262  0.00  0.00    +0.000 C 
ATOM     10  N   UNL     1       1.896  12.763  20.063  0.00  0.00    +0.000 N 
ATOM     11  O   UNL     1       0.854  13.078  18.126  0.00  0.00    +0.000 OA
ATOM     12  C   UNL     1      -0.232  11.204  21.035  0.00  0.00    +0.000 A 
ATOM     13  C   UNL     1       0.756  10.204  21.100  0.00  0.00    +0.000 A 
ATOM     14  C   UNL     1       0.849   9.357  22.203  0.00  0.00    +0.000 A 
ATOM     15  C   UNL     1      -0.033   9.509  23.267  0.00  0.00    +0.000 A 
ATOM     16  C   UNL     1      -1.013  10.501  23.225  0.00  0.00    +0.000 A 
ATOM     17  C   UNL     1      -1.137  11.343  22.107  0.00  0.00    +0.000 A 
ATOM     18  C   UNL     1      -2.162  12.392  22.148  0.00  0.00    +0.000 C 
ATOM     19  C   UNL     1      -2.898  12.768  21.093  0.00  0.00    +0.000 C 
ATOM     20  H   UNL     1       1.722  12.878  21.053  0.00  0.00    +0.000 HD
ATOM     21  H   UNL     1       2.595  13.380  19.671  0.00  0.00    +0.000 HD
ENDROOT
TORSDOF 0
ENDMDL
MODEL 7
REMARK VINA RESULT:      -6.4      6.272      8.328
REMARK  Name = 
REMARK  1 active torsions:
REMARK  status: ('A' for Active; 'I' for Inactive)
REMARK    1  A    between atoms: C_1  and  C_2
REMARK                            x       y       z     vdW  Elec       q    Type
REMARK                         _______ _______ _______ _____ _____    ______ ____
ROOT
ATOM      1  C   UNL     1       2.809   7.828  17.746  0.00  0.00    +0.000 C 
ATOM      2  C   UNL     1       1.918   8.376  18.821  0.00  0.00    +0.000 A 
ATOM      3  C   UNL     1       1.984   7.891  20.128  0.00  0.00    +0.000 A 
ATOM      4  C   UNL     1       1.184   8.450  21.128  0.00  0.00    +0.000 A 
ATOM      5  C   UNL     1       0.325   9.523  20.848  0.00  0.00    +0.000 A 
ATOM      6  C   UNL     1       0.234  10.009  19.528  0.00  0.00    +0.000 A 
ATOM      7  C   UNL     1       1.023   9.416  18.526  0.00  0.00    +0.000 A 
ATOM      8  N   UNL     1      -0.611  11.118  19.200  0.00  0.00    +0.000 N 
ATOM      9  C   UNL     1      -1.410  11.091  18.059  0.00  0.00    +0.000 C 
ATOM     10  N   UNL     1      -2.223  12.178  17.881  0.00  0.00    +0.000 N 
ATOM     11  O   UNL     1      -1.518  10.165  17.260  0.00  0.00    +0.000 OA
ATOM     12  C   UNL     1      -0.256  12.326  19.884  0.00  0.00    +0.000 A 
ATOM     13  C   UNL     1       0.176  13.438  19.138  0.00  0.00    +0.000 A 
ATOM     14  C   UNL     1       0.561  14.620  19.769  0.00  0.00    +0.000 A 
ATOM     15  C   UNL     1       0.502  14.715  21.153  0.00  0.00    +0.000 A 
ATOM     16  C   UNL     1       0.066  13.626  21.910  0.00  0.00    +0.000 A 
ATOM     17  C   UNL     1      -0.297  12.419  21.290  0.00  0.00    +0.000 A 
ATOM     18  C   UNL     1      -0.786  11.330  22.144  0.00  0.00    +0.000 C 
ATOM     19  C   UNL     1      -0.508  10.034  21.943  0.00  0.00    +0.000 C 
ATOM     20  H   UNL     1      -2.526  12.657  18.719  0.00  0.00    +0.000 HD
ATOM     21  H   UNL     1      -2.940  12.031  17.183  0.00  0.00    +0.000 HD
ENDROOT
TORSDOF 0
ENDMDL
MODEL 8
REMARK VINA RESULT:      -6.4      7.730      9.875
REMARK  Name = 
REMARK  1 active torsions:
REMARK  status: ('A' for Active; 'I' for Inactive)
REMARK    1  A    between atoms: C_1  and  C_2
REMARK                            x       y       z     vdW  Elec       q    Type
REMARK                         _______ _______ _______ _____ _____    ______ ____
ROOT
ATOM      1  C   UNL     1      -5.322  11.574  17.349  0.00  0.00    +0.000 C 
ATOM      2  C   UNL     1      -4.626  12.004  18.607  0.00  0.00    +0.000 A 
ATOM      3  C   UNL     1      -5.349  12.470  19.706  0.00  0.00    +0.000 A 
ATOM      4  C   UNL     1      -4.687  12.815  20.888  0.00  0.00    +0.000 A 
ATOM      5  C   UNL     1      -3.297  12.673  21.003  0.00  0.00    +0.000 A 
ATOM      6  C   UNL     1      -2.553  12.222  19.894  0.00  0.00    +0.000 A 
ATOM      7  C   UNL     1      -3.229  11.908  18.702  0.00  0.00    +0.000 A 
ATOM      8  N   UNL     1      -1.135  12.038  19.973  0.00  0.00    +0.000 N 
ATOM      9  C   UNL     1      -0.303  12.472  18.944  0.00  0.00    +0.000 C 
ATOM     10  N   UNL     1       1.039  12.302  19.158  0.00  0.00    +0.000 N 
ATOM     11  O   UNL     1      -0.645  13.061  17.922  0.00  0.00    +0.000 OA
ATOM     12  C   UNL     1      -0.740  11.064  20.948  0.00  0.00    +0.000 A 
ATOM     13  C   UNL     1      -0.084   9.895  20.524  0.00  0.00    +0.000 A 
ATOM     14  C   UNL     1       0.287   8.908  21.437  0.00  0.00    +0.000 A 
ATOM     15  C   UNL     1       0.023   9.085  22.790  0.00  0.00    +0.000 A 
ATOM     16  C   UNL     1      -0.619  10.244  23.230  0.00  0.00    +0.000 A 
ATOM     17  C   UNL     1      -1.024  11.232  22.318  0.00  0.00    +0.000 A 
ATOM     18  C   UNL     1      -1.655  12.443  22.856  0.00  0.00    +0.000 C 
ATOM     19  C   UNL     1      -2.671  13.088  22.265  0.00  0.00    +0.000 C 
ATOM     20  H   UNL     1       1.348  12.318  20.120  0.00  0.00    +0.000 HD
ATOM     21  H   UNL     1       1.616  12.820  18.508  0.00  0.00    +0.000 HD
ENDROOT
TORSDOF 0
ENDMDL
MODEL 9
REMARK VINA RESULT:      -6.3      7.408      9.204
REMARK  Name = 
REMARK  1 active torsions:
REMARK  status: ('A' for Active; 'I' for Inactive)
REMARK    1  A    between atoms: C_1  and  C_2
REMARK                            x       y       z     vdW  Elec       q    Type
REMARK                         _______ _______ _______ _____ _____    ______ ____
ROOT
ATOM      1  C   UNL     1      -5.021  11.823  17.471  0.00  0.00    +0.000 C 
ATOM      2  C   UNL     1      -3.642  11.290  17.727  0.00  0.00    +0.000 A 
ATOM      3  C   UNL     1      -3.122  10.243  16.965  0.00  0.00    +0.000 A 
ATOM      4  C   UNL     1      -1.816   9.795  17.184  0.00  0.00    +0.000 A 
ATOM      5  C   UNL     1      -0.997  10.404  18.144  0.00  0.00    +0.000 A 
ATOM      6  C   UNL     1      -1.516  11.450  18.934  0.00  0.00    +0.000 A 
ATOM      7  C   UNL     1      -2.842  11.869  18.724  0.00  0.00    +0.000 A 
ATOM      8  N   UNL     1      -0.709  12.118  19.911  0.00  0.00    +0.000 N 
ATOM      9  C   UNL     1      -1.216  12.408  21.175  0.00  0.00    +0.000 C 
ATOM     10  N   UNL     1      -0.334  12.989  22.047  0.00  0.00    +0.000 N 
ATOM     11  O   UNL     1      -2.330  12.117  21.604  0.00  0.00    +0.000 OA
ATOM     12  C   UNL     1       0.434  12.776  19.351  0.00  0.00    +0.000 A 
ATOM     13  C   UNL     1       0.538  14.176  19.448  0.00  0.00    +0.000 A 
ATOM     14  C   UNL     1       1.618  14.856  18.887  0.00  0.00    +0.000 A 
ATOM     15  C   UNL     1       2.620  14.146  18.238  0.00  0.00    +0.000 A 
ATOM     16  C   UNL     1       2.540  12.756  18.140  0.00  0.00    +0.000 A 
ATOM     17  C   UNL     1       1.443  12.060  18.675  0.00  0.00    +0.000 A 
ATOM     18  C   UNL     1       1.445  10.596  18.573  0.00  0.00    +0.000 C 
ATOM     19  C   UNL     1       0.352   9.856  18.338  0.00  0.00    +0.000 C 
ATOM     20  H   UNL     1       0.643  12.767  21.915  0.00  0.00    +0.000 HD
ATOM     21  H   UNL     1      -0.656  12.981  23.005  0.00  0.00    +0.000 HD
ENDROOT
TORSDOF 0
ENDMDL
