MODEL 1
REMARK VINA RESULT:      -6.2      0.000      0.000
REMARK  Name = 
REMARK  14 active torsions:
REMARK  status: ('A' for Active; 'I' for Inactive)
REMARK    1  A    between atoms: C_2  and  C_3
REMARK    2  A    between atoms: C_3  and  N_4
REMARK    3  A    between atoms: N_7  and  C_8
REMARK    4  A    between atoms: C_8  and  C_9
REMARK    5  A    between atoms: C_8  and  C_19
REMARK    6  A    between atoms: C_13  and  O_14
REMARK    7  A    between atoms: O_14  and  C_15
REMARK    8  A    between atoms: C_16  and  O_17
REMARK    9  A    between atoms: O_17  and  C_18
REMARK   10  A    between atoms: N_23  and  C_24
REMARK   11  A    between atoms: C_24  and  C_25
REMARK   12  A    between atoms: C_25  and  C_26
REMARK   13  A    between atoms: C_26  and  C_27
REMARK   14  A    between atoms: C_26  and  C_28
REMARK                            x       y       z     vdW  Elec       q    Type
REMARK                         _______ _______ _______ _____ _____    ______ ____
ROOT
ATOM      1  C   UNL     1       5.313   5.517  17.789  0.00  0.00    +0.000 C 
ENDROOT
BRANCH   1   5
ATOM      2  N   UNL     1       6.312   4.846  14.218  0.00  0.00    +0.000 NA
ATOM      3  C   UNL     1       4.912   5.091  14.635  0.00  0.00    +0.000 C 
ATOM      4  C   UNL     1       4.472   4.194  15.808  0.00  0.00    +0.000 C 
ATOM      5  N   UNL     1       5.415   4.270  16.957  0.00  0.00    +0.000 NA
ATOM      6  C   UNL     1       6.759   3.896  16.492  0.00  0.00    +0.000 C 
ATOM      7  C   UNL     1       7.238   4.829  15.373  0.00  0.00    +0.000 C 
BRANCH   2   8
ATOM      8  C   UNL     1       6.510   3.719  13.281  0.00  0.00    +0.000 C 
BRANCH   8  10
ATOM      9  C   UNL     1       4.944   2.669  11.639  0.00  0.00    +0.000 C 
ATOM     10  C   UNL     1       5.487   3.772  12.168  0.00  0.00    +0.000 C 
ENDBRANCH   8  10
ENDBRANCH   2   8
ENDBRANCH   1   5
BRANCH   1  11
ATOM     11  C   UNL     1       4.166   5.312  18.779  0.00  0.00    +0.000 A 
ATOM     12  C   UNL     1       4.007   4.033  19.350  0.00  0.00    +0.000 A 
ATOM     13  C   UNL     1       2.977   3.762  20.233  0.00  0.00    +0.000 A 
ATOM     14  C   UNL     1       2.072   4.757  20.565  0.00  0.00    +0.000 A 
ATOM     15  C   UNL     1       2.181   6.051  20.012  0.00  0.00    +0.000 A 
ATOM     16  C   UNL     1       3.244   6.337  19.103  0.00  0.00    +0.000 A 
BRANCH  15  17
ATOM     17  O   UNL     1       1.277   7.013  20.336  0.00  0.00    +0.000 OA
ATOM     18  C   UNL     1       1.506   8.081  21.180  0.00  0.00    +0.000 C 
ENDBRANCH  15  17
BRANCH  16  19
ATOM     19  O   UNL     1       3.423   7.553  18.515  0.00  0.00    +0.000 OA
ATOM     20  C   UNL     1       2.615   8.189  17.599  0.00  0.00    +0.000 C 
ENDBRANCH  16  19
ENDBRANCH   1  11
BRANCH   1  21
ATOM     21  C   UNL     1       6.576   5.767  18.627  0.00  0.00    +0.000 A 
ATOM     22  N   UNL     1       6.846   5.027  19.721  0.00  0.00    +0.000 NA
ATOM     23  N   UNL     1       7.971   5.507  20.229  0.00  0.00    +0.000 NA
ATOM     24  N   UNL     1       8.402   6.501  19.482  0.00  0.00    +0.000 NA
ATOM     25  N   UNL     1       7.569   6.706  18.472  0.00  0.00    +0.000 N 
BRANCH  25  26
ATOM     26  C   UNL     1       7.856   7.756  17.481  0.00  0.00    +0.000 C 
BRANCH  26  27
ATOM     27  C   UNL     1       7.561   9.192  17.959  0.00  0.00    +0.000 C 
BRANCH  27  28
ATOM     28  C   UNL     1       8.850  10.060  18.120  0.00  0.00    +0.000 C 
ATOM     29  C   UNL     1       8.655  11.526  17.696  0.00  0.00    +0.000 C 
ATOM     30  C   UNL     1       9.351  10.027  19.572  0.00  0.00    +0.000 C 
ENDBRANCH  27  28
ENDBRANCH  26  27
ENDBRANCH  25  26
ENDBRANCH   1  21
TORSDOF 10
ENDMDL
MODEL 2
REMARK VINA RESULT:      -6.2      6.414      9.943
REMARK  Name = 
REMARK  14 active torsions:
REMARK  status: ('A' for Active; 'I' for Inactive)
REMARK    1  A    between atoms: C_2  and  C_3
REMARK    2  A    between atoms: C_3  and  N_4
REMARK    3  A    between atoms: N_7  and  C_8
REMARK    4  A    between atoms: C_8  and  C_9
REMARK    5  A    between atoms: C_8  and  C_19
REMARK    6  A    between atoms: C_13  and  O_14
REMARK    7  A    between atoms: O_14  and  C_15
REMARK    8  A    between atoms: C_16  and  O_17
REMARK    9  A    between atoms: O_17  and  C_18
REMARK   10  A    between atoms: N_23  and  C_24
REMARK   11  A    between atoms: C_24  and  C_25
REMARK   12  A    between atoms: C_25  and  C_26
REMARK   13  A    between atoms: C_26  and  C_27
REMARK   14  A    between atoms: C_26  and  C_28
REMARK                            x       y       z     vdW  Elec       q    Type
REMARK                         _______ _______ _______ _____ _____    ______ ____
ROOT
ATOM      1  C   UNL     1      -0.404  10.683  19.573  0.00  0.00    +0.000 C 
ENDROOT
BRANCH   1   5
ATOM      2  N   UNL     1      -3.846  10.919  18.058  0.00  0.00    +0.000 NA
ATOM      3  C   UNL     1      -2.976   9.730  17.909  0.00  0.00    +0.000 C 
ATOM      4  C   UNL     1      -1.561  10.085  17.409  0.00  0.00    +0.000 C 
ATOM      5  N   UNL     1      -0.921  11.140  18.238  0.00  0.00    +0.000 NA
ATOM      6  C   UNL     1      -1.785  12.331  18.240  0.00  0.00    +0.000 C 
ATOM      7  C   UNL     1      -3.174  12.006  18.805  0.00  0.00    +0.000 C 
BRANCH   2   8
ATOM      8  C   UNL     1      -4.521  11.375  16.824  0.00  0.00    +0.000 C 
BRANCH   8  10
ATOM      9  C   UNL     1      -6.774  11.846  17.803  0.00  0.00    +0.000 C 
ATOM     10  C   UNL     1      -5.683  12.283  17.163  0.00  0.00    +0.000 C 
ENDBRANCH   8  10
ENDBRANCH   2   8
ENDBRANCH   1   5
BRANCH   1  11
ATOM     11  C   UNL     1       0.646   9.603  19.308  0.00  0.00    +0.000 A 
ATOM     12  C   UNL     1       1.326   9.630  18.073  0.00  0.00    +0.000 A 
ATOM     13  C   UNL     1       2.269   8.672  17.750  0.00  0.00    +0.000 A 
ATOM     14  C   UNL     1       2.557   7.655  18.645  0.00  0.00    +0.000 A 
ATOM     15  C   UNL     1       1.898   7.577  19.891  0.00  0.00    +0.000 A 
ATOM     16  C   UNL     1       0.925   8.565  20.231  0.00  0.00    +0.000 A 
BRANCH  15  17
ATOM     17  O   UNL     1       2.180   6.566  20.753  0.00  0.00    +0.000 OA
ATOM     18  C   UNL     1       1.755   5.258  20.627  0.00  0.00    +0.000 C 
ENDBRANCH  15  17
BRANCH  16  19
ATOM     19  O   UNL     1       0.233   8.566  21.405  0.00  0.00    +0.000 OA
ATOM     20  C   UNL     1       0.586   9.139  22.607  0.00  0.00    +0.000 C 
ENDBRANCH  16  19
ENDBRANCH   1  11
BRANCH   1  21
ATOM     21  C   UNL     1       0.307  11.806  20.343  0.00  0.00    +0.000 A 
ATOM     22  N   UNL     1       1.634  12.006  20.219  0.00  0.00    +0.000 NA
ATOM     23  N   UNL     1       1.936  13.013  21.025  0.00  0.00    +0.000 NA
ATOM     24  N   UNL     1       0.846  13.440  21.625  0.00  0.00    +0.000 NA
ATOM     25  N   UNL     1      -0.198  12.721  21.238  0.00  0.00    +0.000 N 
BRANCH  25  26
ATOM     26  C   UNL     1      -1.540  13.030  21.757  0.00  0.00    +0.000 C 
BRANCH  26  27
ATOM     27  C   UNL     1      -1.830  12.473  23.165  0.00  0.00    +0.000 C 
BRANCH  27  28
ATOM     28  C   UNL     1      -3.352  12.234  23.427  0.00  0.00    +0.000 C 
ATOM     29  C   UNL     1      -3.856  12.878  24.729  0.00  0.00    +0.000 C 
ATOM     30  C   UNL     1      -4.195  12.760  22.254  0.00  0.00    +0.000 C 
ENDBRANCH  27  28
ENDBRANCH  26  27
ENDBRANCH  25  26
ENDBRANCH   1  21
TORSDOF 10
ENDMDL
MODEL 3
REMARK VINA RESULT:      -6.2      6.594      9.770
REMARK  Name = 
REMARK  14 active torsions:
REMARK  status: ('A' for Active; 'I' for Inactive)
REMARK    1  A    between atoms: C_2  and  C_3
REMARK    2  A    between atoms: C_3  and  N_4
REMARK    3  A    between atoms: N_7  and  C_8
REMARK    4  A    between atoms: C_8  and  C_9
REMARK    5  A    between atoms: C_8  and  C_19
REMARK    6  A    between atoms: C_13  and  O_14
REMARK    7  A    between atoms: O_14  and  C_15
REMARK    8  A    between atoms: C_16  and  O_17
REMARK    9  A    between atoms: O_17  and  C_18
REMARK   10  A    between atoms: N_23  and  C_24
REMARK   11  A    between atoms: C_24  and  C_25
REMARK   12  A    between atoms: C_25  and  C_26
REMARK   13  A    between atoms: C_26  and  C_27
REMARK   14  A    between atoms: C_26  and  C_28
REMARK                            x       y       z     vdW  Elec       q    Type
REMARK                         _______ _______ _______ _____ _____    ______ ____
ROOT
ATOM      1  C   UNL     1      -0.359  12.093  20.410  0.00  0.00    +0.000 C 
ENDROOT
BRANCH   1   5
ATOM      2  N   UNL     1       1.696  15.182  19.749  0.00  0.00    +0.000 NA
ATOM      3  C   UNL     1       0.513  14.808  18.939  0.00  0.00    +0.000 C 
ATOM      4  C   UNL     1       0.574  13.354  18.430  0.00  0.00    +0.000 C 
ATOM      5  N   UNL     1       0.824  12.384  19.530  0.00  0.00    +0.000 NA
ATOM      6  C   UNL     1       2.076  12.749  20.209  0.00  0.00    +0.000 C 
ATOM      7  C   UNL     1       2.000  14.169  20.785  0.00  0.00    +0.000 C 
BRANCH   2   8
ATOM      8  C   UNL     1       2.881  15.622  18.982  0.00  0.00    +0.000 C 
BRANCH   8  10
ATOM      9  C   UNL     1       2.737  17.041  16.928  0.00  0.00    +0.000 C 
ATOM     10  C   UNL     1       2.586  16.915  18.252  0.00  0.00    +0.000 C 
ENDBRANCH   8  10
ENDBRANCH   2   8
ENDBRANCH   1   5
BRANCH   1  11
ATOM     11  C   UNL     1      -1.478  11.568  19.511  0.00  0.00    +0.000 A 
ATOM     12  C   UNL     1      -1.159  10.561  18.576  0.00  0.00    +0.000 A 
ATOM     13  C   UNL     1      -2.110  10.056  17.710  0.00  0.00    +0.000 A 
ATOM     14  C   UNL     1      -3.406  10.545  17.744  0.00  0.00    +0.000 A 
ATOM     15  C   UNL     1      -3.775  11.560  18.653  0.00  0.00    +0.000 A 
ATOM     16  C   UNL     1      -2.797  12.083  19.553  0.00  0.00    +0.000 A 
BRANCH  15  17
ATOM     17  O   UNL     1      -5.046  12.040  18.666  0.00  0.00    +0.000 OA
ATOM     18  C   UNL     1      -6.128  11.436  19.275  0.00  0.00    +0.000 C 
ENDBRANCH  15  17
BRANCH  16  19
ATOM     19  O   UNL     1      -3.059  13.068  20.457  0.00  0.00    +0.000 OA
ATOM     20  C   UNL     1      -3.620  12.953  21.710  0.00  0.00    +0.000 C 
ENDBRANCH  16  19
ENDBRANCH   1  11
BRANCH   1  21
ATOM     21  C   UNL     1      -0.067  10.988  21.437  0.00  0.00    +0.000 A 
ATOM     22  N   UNL     1      -0.413  11.130  22.732  0.00  0.00    +0.000 NA
ATOM     23  N   UNL     1      -0.001  10.033  23.350  0.00  0.00    +0.000 NA
ATOM     24  N   UNL     1       0.572   9.227  22.482  0.00  0.00    +0.000 NA
ATOM     25  N   UNL     1       0.559   9.774  21.275  0.00  0.00    +0.000 N 
BRANCH  25  26
ATOM     26  C   UNL     1       1.124   9.044  20.129  0.00  0.00    +0.000 C 
BRANCH  26  27
ATOM     27  C   UNL     1       1.803   7.707  20.488  0.00  0.00    +0.000 C 
BRANCH  27  28
ATOM     28  C   UNL     1       2.247   6.890  19.232  0.00  0.00    +0.000 C 
ATOM     29  C   UNL     1       2.846   7.764  18.116  0.00  0.00    +0.000 C 
ATOM     30  C   UNL     1       3.269   5.810  19.619  0.00  0.00    +0.000 C 
ENDBRANCH  27  28
ENDBRANCH  26  27
ENDBRANCH  25  26
ENDBRANCH   1  21
TORSDOF 10
ENDMDL
MODEL 4
REMARK VINA RESULT:      -6.0      1.250      2.123
REMARK  Name = 
REMARK  14 active torsions:
REMARK  status: ('A' for Active; 'I' for Inactive)
REMARK    1  A    between atoms: C_2  and  C_3
REMARK    2  A    between atoms: C_3  and  N_4
REMARK    3  A    between atoms: N_7  and  C_8
REMARK    4  A    between atoms: C_8  and  C_9
REMARK    5  A    between atoms: C_8  and  C_19
REMARK    6  A    between atoms: C_13  and  O_14
REMARK    7  A    between atoms: O_14  and  C_15
REMARK    8  A    between atoms: C_16  and  O_17
REMARK    9  A    between atoms: O_17  and  C_18
REMARK   10  A    between atoms: N_23  and  C_24
REMARK   11  A    between atoms: C_24  and  C_25
REMARK   12  A    between atoms: C_25  and  C_26
REMARK   13  A    between atoms: C_26  and  C_27
REMARK   14  A    between atoms: C_26  and  C_28
REMARK                            x       y       z     vdW  Elec       q    Type
REMARK                         _______ _______ _______ _____ _____    ______ ____
ROOT
ATOM      1  C   UNL     1       5.395   5.653  17.733  0.00  0.00    +0.000 C 
ENDROOT
BRANCH   1   5
ATOM      2  N   UNL     1       6.307   4.761  14.186  0.00  0.00    +0.000 NA
ATOM      3  C   UNL     1       4.923   5.073  14.613  0.00  0.00    +0.000 C 
ATOM      4  C   UNL     1       4.477   4.254  15.840  0.00  0.00    +0.000 C 
ATOM      5  N   UNL     1       5.442   4.361  16.967  0.00  0.00    +0.000 NA
ATOM      6  C   UNL     1       6.766   3.919  16.501  0.00  0.00    +0.000 C 
ATOM      7  C   UNL     1       7.253   4.776  15.325  0.00  0.00    +0.000 C 
BRANCH   2   8
ATOM      8  C   UNL     1       6.453   3.580  13.308  0.00  0.00    +0.000 C 
BRANCH   8  10
ATOM      9  C   UNL     1       5.053   2.525  11.526  0.00  0.00    +0.000 C 
ATOM     10  C   UNL     1       5.429   3.621  12.195  0.00  0.00    +0.000 C 
ENDBRANCH   8  10
ENDBRANCH   2   8
ENDBRANCH   1   5
BRANCH   1  11
ATOM     11  C   UNL     1       4.193   5.580  18.674  0.00  0.00    +0.000 A 
ATOM     12  C   UNL     1       3.434   6.753  18.869  0.00  0.00    +0.000 A 
ATOM     13  C   UNL     1       2.349   6.774  19.726  0.00  0.00    +0.000 A 
ATOM     14  C   UNL     1       1.993   5.628  20.419  0.00  0.00    +0.000 A 
ATOM     15  C   UNL     1       2.726   4.431  20.267  0.00  0.00    +0.000 A 
ATOM     16  C   UNL     1       3.846   4.403  19.381  0.00  0.00    +0.000 A 
BRANCH  15  17
ATOM     17  O   UNL     1       2.374   3.319  20.964  0.00  0.00    +0.000 OA
ATOM     18  C   UNL     1       1.091   2.829  21.103  0.00  0.00    +0.000 C 
ENDBRANCH  15  17
BRANCH  16  19
ATOM     19  O   UNL     1       4.615   3.297  19.178  0.00  0.00    +0.000 OA
ATOM     20  C   UNL     1       4.687   2.152  19.940  0.00  0.00    +0.000 C 
ENDBRANCH  16  19
ENDBRANCH   1  11
BRANCH   1  21
ATOM     21  C   UNL     1       6.634   5.855  18.619  0.00  0.00    +0.000 A 
ATOM     22  N   UNL     1       6.831   5.109  19.724  0.00  0.00    +0.000 NA
ATOM     23  N   UNL     1       7.955   5.546  20.273  0.00  0.00    +0.000 NA
ATOM     24  N   UNL     1       8.454   6.518  19.541  0.00  0.00    +0.000 NA
ATOM     25  N   UNL     1       7.669   6.753  18.499  0.00  0.00    +0.000 N 
BRANCH  25  26
ATOM     26  C   UNL     1       8.037   7.786  17.516  0.00  0.00    +0.000 C 
BRANCH  26  27
ATOM     27  C   UNL     1       7.676   9.226  17.931  0.00  0.00    +0.000 C 
BRANCH  27  28
ATOM     28  C   UNL     1       8.931  10.126  18.170  0.00  0.00    +0.000 C 
ATOM     29  C   UNL     1       8.730  11.585  17.728  0.00  0.00    +0.000 C 
ATOM     30  C   UNL     1       9.338  10.109  19.652  0.00  0.00    +0.000 C 
ENDBRANCH  27  28
ENDBRANCH  26  27
ENDBRANCH  25  26
ENDBRANCH   1  21
TORSDOF 10
ENDMDL
MODEL 5
REMARK VINA RESULT:      -6.0      6.622      9.995
REMARK  Name = 
REMARK  14 active torsions:
REMARK  status: ('A' for Active; 'I' for Inactive)
REMARK    1  A    between atoms: C_2  and  C_3
REMARK    2  A    between atoms: C_3  and  N_4
REMARK    3  A    between atoms: N_7  and  C_8
REMARK    4  A    between atoms: C_8  and  C_9
REMARK    5  A    between atoms: C_8  and  C_19
REMARK    6  A    between atoms: C_13  and  O_14
REMARK    7  A    between atoms: O_14  and  C_15
REMARK    8  A    between atoms: C_16  and  O_17
REMARK    9  A    between atoms: O_17  and  C_18
REMARK   10  A    between atoms: N_23  and  C_24
REMARK   11  A    between atoms: C_24  and  C_25
REMARK   12  A    between atoms: C_25  and  C_26
REMARK   13  A    between atoms: C_26  and  C_27
REMARK   14  A    between atoms: C_26  and  C_28
REMARK                            x       y       z     vdW  Elec       q    Type
REMARK                         _______ _______ _______ _____ _____    ______ ____
ROOT
ATOM      1  C   UNL     1      -0.390  12.185  20.538  0.00  0.00    +0.000 C 
ENDROOT
BRANCH   1   5
ATOM      2  N   UNL     1       1.511  15.386  19.957  0.00  0.00    +0.000 NA
ATOM      3  C   UNL     1       0.382  14.949  19.104  0.00  0.00    +0.000 C 
ATOM      4  C   UNL     1       0.543  13.503  18.596  0.00  0.00    +0.000 C 
ATOM      5  N   UNL     1       0.806  12.545  19.702  0.00  0.00    +0.000 NA
ATOM      6  C   UNL     1       2.010  12.977  20.428  0.00  0.00    +0.000 C 
ATOM      7  C   UNL     1       1.833  14.389  21.003  0.00  0.00    +0.000 C 
BRANCH   2   8
ATOM      8  C   UNL     1       2.697  15.895  19.235  0.00  0.00    +0.000 C 
BRANCH   8  10
ATOM      9  C   UNL     1       4.892  16.920  19.851  0.00  0.00    +0.000 C 
ATOM     10  C   UNL     1       3.808  16.222  20.208  0.00  0.00    +0.000 C 
ENDBRANCH   8  10
ENDBRANCH   2   8
ENDBRANCH   1   5
BRANCH   1  11
ATOM     11  C   UNL     1      -1.466  11.656  19.589  0.00  0.00    +0.000 A 
ATOM     12  C   UNL     1      -1.109  10.629  18.691  0.00  0.00    +0.000 A 
ATOM     13  C   UNL     1      -2.019  10.118  17.784  0.00  0.00    +0.000 A 
ATOM     14  C   UNL     1      -3.309  10.621  17.741  0.00  0.00    +0.000 A 
ATOM     15  C   UNL     1      -3.714  11.656  18.612  0.00  0.00    +0.000 A 
ATOM     16  C   UNL     1      -2.779  12.185  19.552  0.00  0.00    +0.000 A 
BRANCH  15  17
ATOM     17  O   UNL     1      -4.979  12.150  18.548  0.00  0.00    +0.000 OA
ATOM     18  C   UNL     1      -5.821  12.067  17.457  0.00  0.00    +0.000 C 
ENDBRANCH  15  17
BRANCH  16  19
ATOM     19  O   UNL     1      -3.078  13.189  20.425  0.00  0.00    +0.000 OA
ATOM     20  C   UNL     1      -3.751  13.109  21.624  0.00  0.00    +0.000 C 
ENDBRANCH  16  19
ENDBRANCH   1  11
BRANCH   1  21
ATOM     21  C   UNL     1      -0.090  11.054  21.535  0.00  0.00    +0.000 A 
ATOM     22  N   UNL     1      -0.457  11.149  22.828  0.00  0.00    +0.000 NA
ATOM     23  N   UNL     1      -0.031  10.042  23.419  0.00  0.00    +0.000 NA
ATOM     24  N   UNL     1       0.570   9.275  22.535  0.00  0.00    +0.000 NA
ATOM     25  N   UNL     1       0.563   9.859  21.345  0.00  0.00    +0.000 N 
BRANCH  25  26
ATOM     26  C   UNL     1       1.159   9.176  20.185  0.00  0.00    +0.000 C 
BRANCH  26  27
ATOM     27  C   UNL     1       1.687   7.757  20.474  0.00  0.00    +0.000 C 
BRANCH  27  28
ATOM     28  C   UNL     1       2.531   7.167  19.299  0.00  0.00    +0.000 C 
ATOM     29  C   UNL     1       2.229   5.686  19.014  0.00  0.00    +0.000 C 
ATOM     30  C   UNL     1       2.309   7.975  18.011  0.00  0.00    +0.000 C 
ENDBRANCH  27  28
ENDBRANCH  26  27
ENDBRANCH  25  26
ENDBRANCH   1  21
TORSDOF 10
ENDMDL
MODEL 6
REMARK VINA RESULT:      -5.9      6.273      8.905
REMARK  Name = 
REMARK  14 active torsions:
REMARK  status: ('A' for Active; 'I' for Inactive)
REMARK    1  A    between atoms: C_2  and  C_3
REMARK    2  A    between atoms: C_3  and  N_4
REMARK    3  A    between atoms: N_7  and  C_8
REMARK    4  A    between atoms: C_8  and  C_9
REMARK    5  A    between atoms: C_8  and  C_19
REMARK    6  A    between atoms: C_13  and  O_14
REMARK    7  A    between atoms: O_14  and  C_15
REMARK    8  A    between atoms: C_16  and  O_17
REMARK    9  A    between atoms: O_17  and  C_18
REMARK   10  A    between atoms: N_23  and  C_24
REMARK   11  A    between atoms: C_24  and  C_25
REMARK   12  A    between atoms: C_25  and  C_26
REMARK   13  A    between atoms: C_26  and  C_27
REMARK   14  A    between atoms: C_26  and  C_28
REMARK                            x       y       z     vdW  Elec       q    Type
REMARK                         _______ _______ _______ _____ _____    ______ ____
ROOT
ATOM      1  C   UNL     1      -0.323  10.845  19.534  0.00  0.00    +0.000 C 
ENDROOT
BRANCH   1   5
ATOM      2  N   UNL     1      -3.819  10.861  18.127  0.00  0.00    +0.000 NA
ATOM      3  C   UNL     1      -2.892   9.715  17.980  0.00  0.00    +0.000 C 
ATOM      4  C   UNL     1      -1.515  10.129  17.425  0.00  0.00    +0.000 C 
ATOM      5  N   UNL     1      -0.906  11.239  18.206  0.00  0.00    +0.000 NA
ATOM      6  C   UNL     1      -1.831  12.382  18.205  0.00  0.00    +0.000 C 
ATOM      7  C   UNL     1      -3.182  12.002  18.824  0.00  0.00    +0.000 C 
BRANCH   2   8
ATOM      8  C   UNL     1      -4.556  11.247  16.905  0.00  0.00    +0.000 C 
BRANCH   8  10
ATOM      9  C   UNL     1      -6.773  11.755  17.942  0.00  0.00    +0.000 C 
ATOM     10  C   UNL     1      -5.705  12.169  17.250  0.00  0.00    +0.000 C 
ENDBRANCH   8  10
ENDBRANCH   2   8
ENDBRANCH   1   5
BRANCH   1  11
ATOM     11  C   UNL     1       0.699   9.739  19.273  0.00  0.00    +0.000 A 
ATOM     12  C   UNL     1       1.396   9.757  18.047  0.00  0.00    +0.000 A 
ATOM     13  C   UNL     1       2.315   8.776  17.726  0.00  0.00    +0.000 A 
ATOM     14  C   UNL     1       2.562   7.743  18.616  0.00  0.00    +0.000 A 
ATOM     15  C   UNL     1       1.885   7.673  19.853  0.00  0.00    +0.000 A 
ATOM     16  C   UNL     1       0.936   8.686  20.189  0.00  0.00    +0.000 A 
BRANCH  15  17
ATOM     17  O   UNL     1       2.126   6.646  20.709  0.00  0.00    +0.000 OA
ATOM     18  C   UNL     1       1.750   5.332  20.516  0.00  0.00    +0.000 C 
ENDBRANCH  15  17
BRANCH  16  19
ATOM     19  O   UNL     1       0.229   8.695  21.355  0.00  0.00    +0.000 OA
ATOM     20  C   UNL     1       0.635   9.126  22.598  0.00  0.00    +0.000 C 
ENDBRANCH  16  19
ENDBRANCH   1  11
BRANCH   1  21
ATOM     21  C   UNL     1       0.440  11.998  20.204  0.00  0.00    +0.000 A 
ATOM     22  N   UNL     1       0.353  12.215  21.531  0.00  0.00    +0.000 NA
ATOM     23  N   UNL     1       1.091  13.285  21.784  0.00  0.00    +0.000 NA
ATOM     24  N   UNL     1       1.631  13.721  20.666  0.00  0.00    +0.000 NA
ATOM     25  N   UNL     1       1.257  12.957  19.650  0.00  0.00    +0.000 N 
BRANCH  25  26
ATOM     26  C   UNL     1       1.758  13.235  18.294  0.00  0.00    +0.000 C 
BRANCH  26  27
ATOM     27  C   UNL     1       3.293  13.332  18.182  0.00  0.00    +0.000 C 
BRANCH  27  28
ATOM     28  C   UNL     1       3.801  14.799  18.006  0.00  0.00    +0.000 C 
ATOM     29  C   UNL     1       2.668  15.840  17.992  0.00  0.00    +0.000 C 
ATOM     30  C   UNL     1       4.798  15.167  19.116  0.00  0.00    +0.000 C 
ENDBRANCH  27  28
ENDBRANCH  26  27
ENDBRANCH  25  26
ENDBRANCH   1  21
TORSDOF 10
ENDMDL
MODEL 7
REMARK VINA RESULT:      -5.9      8.566     11.012
REMARK  Name = 
REMARK  14 active torsions:
REMARK  status: ('A' for Active; 'I' for Inactive)
REMARK    1  A    between atoms: C_2  and  C_3
REMARK    2  A    between atoms: C_3  and  N_4
REMARK    3  A    between atoms: N_7  and  C_8
REMARK    4  A    between atoms: C_8  and  C_9
REMARK    5  A    between atoms: C_8  and  C_19
REMARK    6  A    between atoms: C_13  and  O_14
REMARK    7  A    between atoms: O_14  and  C_15
REMARK    8  A    between atoms: C_16  and  O_17
REMARK    9  A    between atoms: O_17  and  C_18
REMARK   10  A    between atoms: N_23  and  C_24
REMARK   11  A    between atoms: C_24  and  C_25
REMARK   12  A    between atoms: C_25  and  C_26
REMARK   13  A    between atoms: C_26  and  C_27
REMARK   14  A    between atoms: C_26  and  C_28
REMARK                            x       y       z     vdW  Elec       q    Type
REMARK                         _______ _______ _______ _____ _____    ______ ____
ROOT
ATOM      1  C   UNL     1      -0.765  12.284  20.288  0.00  0.00    +0.000 C 
ENDROOT
BRANCH   1   5
ATOM      2  N   UNL     1       1.127  15.519  19.897  0.00  0.00    +0.000 NA
ATOM      3  C   UNL     1       0.101  15.059  18.932  0.00  0.00    +0.000 C 
ATOM      4  C   UNL     1       0.342  13.615  18.449  0.00  0.00    +0.000 C 
ATOM      5  N   UNL     1       0.505  12.664  19.581  0.00  0.00    +0.000 NA
ATOM      6  C   UNL     1       1.618  13.121  20.427  0.00  0.00    +0.000 C 
ATOM      7  C   UNL     1       1.356  14.530  20.975  0.00  0.00    +0.000 C 
BRANCH   2   8
ATOM      8  C   UNL     1       2.372  16.048  19.301  0.00  0.00    +0.000 C 
BRANCH   8  10
ATOM      9  C   UNL     1       2.878  16.983  17.038  0.00  0.00    +0.000 C 
ATOM     10  C   UNL     1       2.057  16.902  18.092  0.00  0.00    +0.000 C 
ENDBRANCH   8  10
ENDBRANCH   2   8
ENDBRANCH   1   5
BRANCH   1  11
ATOM     11  C   UNL     1      -1.643  11.542  19.280  0.00  0.00    +0.000 A 
ATOM     12  C   UNL     1      -1.034  10.568  18.463  0.00  0.00    +0.000 A 
ATOM     13  C   UNL     1      -1.755   9.875  17.508  0.00  0.00    +0.000 A 
ATOM     14  C   UNL     1      -3.104  10.139  17.336  0.00  0.00    +0.000 A 
ATOM     15  C   UNL     1      -3.760  11.111  18.121  0.00  0.00    +0.000 A 
ATOM     16  C   UNL     1      -3.020  11.828  19.110  0.00  0.00    +0.000 A 
BRANCH  15  17
ATOM     17  O   UNL     1      -5.080  11.370  17.931  0.00  0.00    +0.000 OA
ATOM     18  C   UNL     1      -5.599  12.306  17.059  0.00  0.00    +0.000 C 
ENDBRANCH  15  17
BRANCH  16  19
ATOM     19  O   UNL     1      -3.566  12.789  19.907  0.00  0.00    +0.000 OA
ATOM     20  C   UNL     1      -4.533  12.649  20.877  0.00  0.00    +0.000 C 
ENDBRANCH  16  19
ENDBRANCH   1  11
BRANCH   1  21
ATOM     21  C   UNL     1      -0.519  11.312  21.453  0.00  0.00    +0.000 A 
ATOM     22  N   UNL     1       0.373  10.308  21.348  0.00  0.00    +0.000 NA
ATOM     23  N   UNL     1       0.325   9.645  22.494  0.00  0.00    +0.000 NA
ATOM     24  N   UNL     1      -0.552  10.211  23.294  0.00  0.00    +0.000 NA
ATOM     25  N   UNL     1      -1.110  11.253  22.694  0.00  0.00    +0.000 N 
BRANCH  25  26
ATOM     26  C   UNL     1      -2.109  12.066  23.406  0.00  0.00    +0.000 C 
BRANCH  26  27
ATOM     27  C   UNL     1      -1.766  13.566  23.507  0.00  0.00    +0.000 C 
BRANCH  27  28
ATOM     28  C   UNL     1      -2.984  14.444  23.941  0.00  0.00    +0.000 C 
ATOM     29  C   UNL     1      -2.865  14.988  25.375  0.00  0.00    +0.000 C 
ATOM     30  C   UNL     1      -3.174  15.625  22.977  0.00  0.00    +0.000 C 
ENDBRANCH  27  28
ENDBRANCH  26  27
ENDBRANCH  25  26
ENDBRANCH   1  21
TORSDOF 10
ENDMDL
MODEL 8
REMARK VINA RESULT:      -5.9      7.033     10.325
REMARK  Name = 
REMARK  14 active torsions:
REMARK  status: ('A' for Active; 'I' for Inactive)
REMARK    1  A    between atoms: C_2  and  C_3
REMARK    2  A    between atoms: C_3  and  N_4
REMARK    3  A    between atoms: N_7  and  C_8
REMARK    4  A    between atoms: C_8  and  C_9
REMARK    5  A    between atoms: C_8  and  C_19
REMARK    6  A    between atoms: C_13  and  O_14
REMARK    7  A    between atoms: O_14  and  C_15
REMARK    8  A    between atoms: C_16  and  O_17
REMARK    9  A    between atoms: O_17  and  C_18
REMARK   10  A    between atoms: N_23  and  C_24
REMARK   11  A    between atoms: C_24  and  C_25
REMARK   12  A    between atoms: C_25  and  C_26
REMARK   13  A    between atoms: C_26  and  C_27
REMARK   14  A    between atoms: C_26  and  C_28
REMARK                            x       y       z     vdW  Elec       q    Type
REMARK                         _______ _______ _______ _____ _____    ______ ____
ROOT
ATOM      1  C   UNL     1      -0.746  12.384  20.370  0.00  0.00    +0.000 C 
ENDROOT
BRANCH   1   5
ATOM      2  N   UNL     1       0.769  15.810  19.960  0.00  0.00    +0.000 NA
ATOM      3  C   UNL     1      -0.239  15.254  19.028  0.00  0.00    +0.000 C 
ATOM      4  C   UNL     1       0.136  13.851  18.512  0.00  0.00    +0.000 C 
ATOM      5  N   UNL     1       0.446  12.909  19.620  0.00  0.00    +0.000 NA
ATOM      6  C   UNL     1       1.537  13.473  20.430  0.00  0.00    +0.000 C 
ATOM      7  C   UNL     1       1.147  14.838  21.011  0.00  0.00    +0.000 C 
BRANCH   2   8
ATOM      8  C   UNL     1       1.925  16.479  19.325  0.00  0.00    +0.000 C 
BRANCH   8  10
ATOM      9  C   UNL     1       1.931  18.554  20.721  0.00  0.00    +0.000 C 
ATOM     10  C   UNL     1       2.563  17.456  20.288  0.00  0.00    +0.000 C 
ENDBRANCH   8  10
ENDBRANCH   2   8
ENDBRANCH   1   5
BRANCH   1  11
ATOM     11  C   UNL     1      -1.634  11.657  19.360  0.00  0.00    +0.000 A 
ATOM     12  C   UNL     1      -1.036  10.688  18.529  0.00  0.00    +0.000 A 
ATOM     13  C   UNL     1      -1.767  10.008  17.573  0.00  0.00    +0.000 A 
ATOM     14  C   UNL     1      -3.116  10.280  17.412  0.00  0.00    +0.000 A 
ATOM     15  C   UNL     1      -3.762  11.248  18.211  0.00  0.00    +0.000 A 
ATOM     16  C   UNL     1      -3.011  11.951  19.202  0.00  0.00    +0.000 A 
BRANCH  15  17
ATOM     17  O   UNL     1      -5.082  11.515  18.033  0.00  0.00    +0.000 OA
ATOM     18  C   UNL     1      -6.129  10.797  18.577  0.00  0.00    +0.000 C 
ENDBRANCH  15  17
BRANCH  16  19
ATOM     19  O   UNL     1      -3.547  12.907  20.012  0.00  0.00    +0.000 OA
ATOM     20  C   UNL     1      -4.230  12.741  21.197  0.00  0.00    +0.000 C 
ENDBRANCH  16  19
ENDBRANCH   1  11
BRANCH   1  21
ATOM     21  C   UNL     1      -0.359  11.350  21.437  0.00  0.00    +0.000 A 
ATOM     22  N   UNL     1      -0.937  11.353  22.655  0.00  0.00    +0.000 NA
ATOM     23  N   UNL     1      -0.369  10.372  23.340  0.00  0.00    +0.000 NA
ATOM     24  N   UNL     1       0.522   9.767  22.586  0.00  0.00    +0.000 NA
ATOM     25  N   UNL     1       0.571  10.337  21.391  0.00  0.00    +0.000 N 
BRANCH  25  26
ATOM     26  C   UNL     1       1.482   9.813  20.360  0.00  0.00    +0.000 C 
BRANCH  26  27
ATOM     27  C   UNL     1       1.514   8.276  20.250  0.00  0.00    +0.000 C 
BRANCH  27  28
ATOM     28  C   UNL     1       1.822   7.772  18.804  0.00  0.00    +0.000 C 
ATOM     29  C   UNL     1       2.209   8.902  17.834  0.00  0.00    +0.000 C 
ATOM     30  C   UNL     1       2.946   6.725  18.819  0.00  0.00    +0.000 C 
ENDBRANCH  27  28
ENDBRANCH  26  27
ENDBRANCH  25  26
ENDBRANCH   1  21
TORSDOF 10
ENDMDL
MODEL 9
REMARK VINA RESULT:      -5.8      6.035      8.426
REMARK  Name = 
REMARK  14 active torsions:
REMARK  status: ('A' for Active; 'I' for Inactive)
REMARK    1  A    between atoms: C_2  and  C_3
REMARK    2  A    between atoms: C_3  and  N_4
REMARK    3  A    between atoms: N_7  and  C_8
REMARK    4  A    between atoms: C_8  and  C_9
REMARK    5  A    between atoms: C_8  and  C_19
REMARK    6  A    between atoms: C_13  and  O_14
REMARK    7  A    between atoms: O_14  and  C_15
REMARK    8  A    between atoms: C_16  and  O_17
REMARK    9  A    between atoms: O_17  and  C_18
REMARK   10  A    between atoms: N_23  and  C_24
REMARK   11  A    between atoms: C_24  and  C_25
REMARK   12  A    between atoms: C_25  and  C_26
REMARK   13  A    between atoms: C_26  and  C_27
REMARK   14  A    between atoms: C_26  and  C_28
REMARK                            x       y       z     vdW  Elec       q    Type
REMARK                         _______ _______ _______ _____ _____    ______ ____
ROOT
ATOM      1  C   UNL     1      -0.209  10.758  19.608  0.00  0.00    +0.000 C 
ENDROOT
BRANCH   1   5
ATOM      2  N   UNL     1      -3.558  10.931  17.889  0.00  0.00    +0.000 NA
ATOM      3  C   UNL     1      -2.675   9.743  17.825  0.00  0.00    +0.000 C 
ATOM      4  C   UNL     1      -1.236  10.092  17.399  0.00  0.00    +0.000 C 
ATOM      5  N   UNL     1      -0.649  11.174  18.233  0.00  0.00    +0.000 NA
ATOM      6  C   UNL     1      -1.516  12.360  18.149  0.00  0.00    +0.000 C 
ATOM      7  C   UNL     1      -2.935  12.044  18.642  0.00  0.00    +0.000 C 
BRANCH   2   8
ATOM      8  C   UNL     1      -4.161  11.348  16.605  0.00  0.00    +0.000 C 
BRANCH   8  10
ATOM      9  C   UNL     1      -3.729  10.149  14.453  0.00  0.00    +0.000 C 
ATOM     10  C   UNL     1      -3.283  10.926  15.447  0.00  0.00    +0.000 C 
ENDBRANCH   8  10
ENDBRANCH   2   8
ENDBRANCH   1   5
BRANCH   1  11
ATOM     11  C   UNL     1       0.770   9.596  19.441  0.00  0.00    +0.000 A 
ATOM     12  C   UNL     1       1.563   9.561  18.275  0.00  0.00    +0.000 A 
ATOM     13  C   UNL     1       2.451   8.528  18.039  0.00  0.00    +0.000 A 
ATOM     14  C   UNL     1       2.569   7.495  18.955  0.00  0.00    +0.000 A 
ATOM     15  C   UNL     1       1.791   7.477  20.133  0.00  0.00    +0.000 A 
ATOM     16  C   UNL     1       0.874   8.543  20.382  0.00  0.00    +0.000 A 
BRANCH  15  17
ATOM     17  O   UNL     1       1.906   6.450  21.015  0.00  0.00    +0.000 OA
ATOM     18  C   UNL     1       2.009   5.113  20.684  0.00  0.00    +0.000 C 
ENDBRANCH  15  17
BRANCH  16  19
ATOM     19  O   UNL     1       0.077   8.605  21.486  0.00  0.00    +0.000 OA
ATOM     20  C   UNL     1       0.392   9.068  22.745  0.00  0.00    +0.000 C 
ENDBRANCH  16  19
ENDBRANCH   1  11
BRANCH   1  21
ATOM     21  C   UNL     1       0.555  11.872  20.342  0.00  0.00    +0.000 A 
ATOM     22  N   UNL     1       0.211  12.249  21.589  0.00  0.00    +0.000 NA
ATOM     23  N   UNL     1       1.030  13.237  21.919  0.00  0.00    +0.000 NA
ATOM     24  N   UNL     1       1.863  13.468  20.927  0.00  0.00    +0.000 NA
ATOM     25  N   UNL     1       1.610  12.646  19.918  0.00  0.00    +0.000 N 
BRANCH  25  26
ATOM     26  C   UNL     1       2.434  12.699  18.700  0.00  0.00    +0.000 C 
BRANCH  26  27
ATOM     27  C   UNL     1       2.297  14.001  17.885  0.00  0.00    +0.000 C 
BRANCH  27  28
ATOM     28  C   UNL     1       3.392  15.059  18.237  0.00  0.00    +0.000 C 
ATOM     29  C   UNL     1       4.825  14.569  17.964  0.00  0.00    +0.000 C 
ATOM     30  C   UNL     1       3.158  16.363  17.458  0.00  0.00    +0.000 C 
ENDBRANCH  27  28
ENDBRANCH  26  27
ENDBRANCH  25  26
ENDBRANCH   1  21
TORSDOF 10
ENDMDL
