MODEL 1
REMARK VINA RESULT:      -5.9      0.000      0.000
REMARK  Name = 
REMARK  3 active torsions:
REMARK  status: ('A' for Active; 'I' for Inactive)
REMARK    1  A    between atoms: C_2  and  C_4
REMARK    2  A    between atoms: C_4  and  C_5
REMARK    3  A    between atoms: C_8  and  O_9
REMARK                            x       y       z     vdW  Elec       q    Type
REMARK                         _______ _______ _______ _____ _____    ______ ____
ROOT
ATOM      1  C   UNL     1       3.451   4.919  18.881  0.00  0.00    +0.000 A 
ATOM      2  C   UNL     1       2.594   4.721  17.789  0.00  0.00    +0.000 A 
ATOM      3  C   UNL     1       1.462   3.909  17.909  0.00  0.00    +0.000 A 
ATOM      4  C   UNL     1       1.173   3.298  19.128  0.00  0.00    +0.000 A 
ATOM      5  C   UNL     1       2.004   3.508  20.231  0.00  0.00    +0.000 A 
ATOM      6 CL   UNL     1       1.672   2.784  21.762  0.00  0.00    +0.000 Cl
ATOM      7  C   UNL     1       3.138   4.317  20.108  0.00  0.00    +0.000 A 
ENDROOT
BRANCH   4   8
ATOM      8  O   UNL     1       0.076   2.490  19.242  0.00  0.00    +0.000 OA
ATOM      9  H   UNL     1      -0.634   2.973  19.694  0.00  0.00    +0.000 HD
ENDBRANCH   4   8
BRANCH   1  10
ATOM     10  C   UNL     1       4.684   5.779  18.741  0.00  0.00    +0.000 C 
BRANCH  10  12
ATOM     11  N   UNL     1       6.186   3.921  18.253  0.00  0.00    +0.000 N 
ATOM     12  C   UNL     1       5.966   5.026  19.026  0.00  0.00    +0.000 C 
ATOM     13  O   UNL     1       6.774   5.364  19.884  0.00  0.00    +0.000 OA
ATOM     14  H   UNL     1       7.002   3.364  18.470  0.00  0.00    +0.000 HD
ATOM     15  H   UNL     1       5.466   3.507  17.678  0.00  0.00    +0.000 HD
ENDBRANCH  10  12
ENDBRANCH   1  10
TORSDOF 3
ENDMDL
MODEL 2
REMARK VINA RESULT:      -5.7      3.724      5.392
REMARK  Name = 
REMARK  3 active torsions:
REMARK  status: ('A' for Active; 'I' for Inactive)
REMARK    1  A    between atoms: C_2  and  C_4
REMARK    2  A    between atoms: C_4  and  C_5
REMARK    3  A    between atoms: C_8  and  O_9
REMARK                            x       y       z     vdW  Elec       q    Type
REMARK                         _______ _______ _______ _____ _____    ______ ____
ROOT
ATOM      1  C   UNL     1       4.772   4.409  17.517  0.00  0.00    +0.000 A 
ATOM      2  C   UNL     1       5.003   3.729  16.312  0.00  0.00    +0.000 A 
ATOM      3  C   UNL     1       6.013   4.147  15.441  0.00  0.00    +0.000 A 
ATOM      4  C   UNL     1       6.808   5.243  15.773  0.00  0.00    +0.000 A 
ATOM      5  C   UNL     1       6.606   5.913  16.982  0.00  0.00    +0.000 A 
ATOM      6 CL   UNL     1       7.579   7.262  17.440  0.00  0.00    +0.000 Cl
ATOM      7  C   UNL     1       5.592   5.496  17.851  0.00  0.00    +0.000 A 
ENDROOT
BRANCH   4   8
ATOM      8  O   UNL     1       7.785   5.662  14.913  0.00  0.00    +0.000 OA
ATOM      9  H   UNL     1       7.722   6.624  14.799  0.00  0.00    +0.000 HD
ENDBRANCH   4   8
BRANCH   1  10
ATOM     10  C   UNL     1       3.666   3.969  18.444  0.00  0.00    +0.000 C 
BRANCH  10  12
ATOM     11  N   UNL     1       4.918   2.342  19.760  0.00  0.00    +0.000 N 
ATOM     12  C   UNL     1       3.843   2.551  18.944  0.00  0.00    +0.000 C 
ATOM     13  O   UNL     1       3.083   1.632  18.658  0.00  0.00    +0.000 OA
ATOM     14  H   UNL     1       5.095   1.390  20.053  0.00  0.00    +0.000 HD
ATOM     15  H   UNL     1       5.662   3.017  19.862  0.00  0.00    +0.000 HD
ENDBRANCH  10  12
ENDBRANCH   1  10
TORSDOF 3
ENDMDL
MODEL 3
REMARK VINA RESULT:      -5.6      2.725      3.202
REMARK  Name = 
REMARK  3 active torsions:
REMARK  status: ('A' for Active; 'I' for Inactive)
REMARK    1  A    between atoms: C_2  and  C_4
REMARK    2  A    between atoms: C_4  and  C_5
REMARK    3  A    between atoms: C_8  and  O_9
REMARK                            x       y       z     vdW  Elec       q    Type
REMARK                         _______ _______ _______ _____ _____    ______ ____
ROOT
ATOM      1  C   UNL     1       4.849   4.628  16.953  0.00  0.00    +0.000 A 
ATOM      2  C   UNL     1       4.464   5.965  17.125  0.00  0.00    +0.000 A 
ATOM      3  C   UNL     1       3.755   6.363  18.262  0.00  0.00    +0.000 A 
ATOM      4  C   UNL     1       3.434   5.425  19.243  0.00  0.00    +0.000 A 
ATOM      5  C   UNL     1       3.834   4.095  19.097  0.00  0.00    +0.000 A 
ATOM      6 CL   UNL     1       3.473   2.907  20.296  0.00  0.00    +0.000 Cl
ATOM      7  C   UNL     1       4.540   3.698  17.957  0.00  0.00    +0.000 A 
ENDROOT
BRANCH   4   8
ATOM      8  O   UNL     1       2.726   5.810  20.347  0.00  0.00    +0.000 OA
ATOM      9  H   UNL     1       2.218   6.611  20.140  0.00  0.00    +0.000 HD
ENDBRANCH   4   8
BRANCH   1  10
ATOM     10  C   UNL     1       5.595   4.199  15.714  0.00  0.00    +0.000 C 
BRANCH  10  12
ATOM     11  N   UNL     1       7.461   5.300  14.595  0.00  0.00    +0.000 N 
ATOM     12  C   UNL     1       7.045   4.637  15.715  0.00  0.00    +0.000 C 
ATOM     13  O   UNL     1       7.815   4.430  16.646  0.00  0.00    +0.000 OA
ATOM     14  H   UNL     1       8.442   5.544  14.544  0.00  0.00    +0.000 HD
ATOM     15  H   UNL     1       6.921   5.321  13.743  0.00  0.00    +0.000 HD
ENDBRANCH  10  12
ENDBRANCH   1  10
TORSDOF 3
ENDMDL
MODEL 4
REMARK VINA RESULT:      -5.6      1.315      1.334
REMARK  Name = 
REMARK  3 active torsions:
REMARK  status: ('A' for Active; 'I' for Inactive)
REMARK    1  A    between atoms: C_2  and  C_4
REMARK    2  A    between atoms: C_4  and  C_5
REMARK    3  A    between atoms: C_8  and  O_9
REMARK                            x       y       z     vdW  Elec       q    Type
REMARK                         _______ _______ _______ _____ _____    ______ ____
ROOT
ATOM      1  C   UNL     1       4.278   4.609  18.268  0.00  0.00    +0.000 A 
ATOM      2  C   UNL     1       4.144   3.578  17.327  0.00  0.00    +0.000 A 
ATOM      3  C   UNL     1       3.117   2.637  17.441  0.00  0.00    +0.000 A 
ATOM      4  C   UNL     1       2.208   2.727  18.495  0.00  0.00    +0.000 A 
ATOM      5  C   UNL     1       2.314   3.764  19.424  0.00  0.00    +0.000 A 
ATOM      6 CL   UNL     1       1.200   3.921  20.732  0.00  0.00    +0.000 Cl
ATOM      7  C   UNL     1       3.345   4.702  19.310  0.00  0.00    +0.000 A 
ENDROOT
BRANCH   4   8
ATOM      8  O   UNL     1       1.214   1.796  18.617  0.00  0.00    +0.000 OA
ATOM      9  H   UNL     1       1.609   0.914  18.709  0.00  0.00    +0.000 HD
ENDBRANCH   4   8
BRANCH   1  10
ATOM     10  C   UNL     1       5.401   5.610  18.152  0.00  0.00    +0.000 C 
BRANCH  10  12
ATOM     11  N   UNL     1       7.506   4.386  18.044  0.00  0.00    +0.000 N 
ATOM     12  C   UNL     1       6.678   5.146  18.820  0.00  0.00    +0.000 C 
ATOM     13  O   UNL     1       6.979   5.424  19.976  0.00  0.00    +0.000 OA
ATOM     14  H   UNL     1       8.334   4.009  18.488  0.00  0.00    +0.000 HD
ATOM     15  H   UNL     1       7.212   3.982  17.166  0.00  0.00    +0.000 HD
ENDBRANCH  10  12
ENDBRANCH   1  10
TORSDOF 3
ENDMDL
MODEL 5
REMARK VINA RESULT:      -5.6      3.274      3.814
REMARK  Name = 
REMARK  3 active torsions:
REMARK  status: ('A' for Active; 'I' for Inactive)
REMARK    1  A    between atoms: C_2  and  C_4
REMARK    2  A    between atoms: C_4  and  C_5
REMARK    3  A    between atoms: C_8  and  O_9
REMARK                            x       y       z     vdW  Elec       q    Type
REMARK                         _______ _______ _______ _____ _____    ______ ____
ROOT
ATOM      1  C   UNL     1       4.894   4.679  17.229  0.00  0.00    +0.000 A 
ATOM      2  C   UNL     1       4.716   4.007  18.446  0.00  0.00    +0.000 A 
ATOM      3  C   UNL     1       3.972   4.586  19.479  0.00  0.00    +0.000 A 
ATOM      4  C   UNL     1       3.391   5.840  19.296  0.00  0.00    +0.000 A 
ATOM      5  C   UNL     1       3.538   6.509  18.079  0.00  0.00    +0.000 A 
ATOM      6 CL   UNL     1       2.820   8.055  17.805  0.00  0.00    +0.000 Cl
ATOM      7  C   UNL     1       4.286   5.930  17.048  0.00  0.00    +0.000 A 
ENDROOT
BRANCH   4   8
ATOM      8  O   UNL     1       2.678   6.415  20.311  0.00  0.00    +0.000 OA
ATOM      9  H   UNL     1       2.282   5.719  20.860  0.00  0.00    +0.000 HD
ENDBRANCH   4   8
BRANCH   1  10
ATOM     10  C   UNL     1       5.716   4.060  16.125  0.00  0.00    +0.000 C 
BRANCH  10  12
ATOM     11  N   UNL     1       7.465   5.306  14.971  0.00  0.00    +0.000 N 
ATOM     12  C   UNL     1       7.137   4.581  16.082  0.00  0.00    +0.000 C 
ATOM     13  O   UNL     1       7.958   4.387  16.972  0.00  0.00    +0.000 OA
ATOM     14  H   UNL     1       8.427   5.609  14.889  0.00  0.00    +0.000 HD
ATOM     15  H   UNL     1       6.887   5.326  14.143  0.00  0.00    +0.000 HD
ENDBRANCH  10  12
ENDBRANCH   1  10
TORSDOF 3
ENDMDL
MODEL 6
REMARK VINA RESULT:      -5.6      3.090      3.454
REMARK  Name = 
REMARK  3 active torsions:
REMARK  status: ('A' for Active; 'I' for Inactive)
REMARK    1  A    between atoms: C_2  and  C_4
REMARK    2  A    between atoms: C_4  and  C_5
REMARK    3  A    between atoms: C_8  and  O_9
REMARK                            x       y       z     vdW  Elec       q    Type
REMARK                         _______ _______ _______ _____ _____    ______ ____
ROOT
ATOM      1  C   UNL     1       4.740   4.232  16.759  0.00  0.00    +0.000 A 
ATOM      2  C   UNL     1       4.104   3.213  17.482  0.00  0.00    +0.000 A 
ATOM      3  C   UNL     1       3.120   3.516  18.428  0.00  0.00    +0.000 A 
ATOM      4  C   UNL     1       2.757   4.844  18.650  0.00  0.00    +0.000 A 
ATOM      5  C   UNL     1       3.363   5.867  17.918  0.00  0.00    +0.000 A 
ATOM      6 CL   UNL     1       2.930   7.521  18.150  0.00  0.00    +0.000 Cl
ATOM      7  C   UNL     1       4.350   5.562  16.975  0.00  0.00    +0.000 A 
ENDROOT
BRANCH   4   8
ATOM      8  O   UNL     1       1.807   5.142  19.587  0.00  0.00    +0.000 OA
ATOM      9  H   UNL     1       1.497   6.052  19.452  0.00  0.00    +0.000 HD
ENDBRANCH   4   8
BRANCH   1  10
ATOM     10  C   UNL     1       5.817   3.902  15.755  0.00  0.00    +0.000 C 
BRANCH  10  12
ATOM     11  N   UNL     1       7.829   4.317  17.068  0.00  0.00    +0.000 N 
ATOM     12  C   UNL     1       7.093   4.685  15.977  0.00  0.00    +0.000 C 
ATOM     13  O   UNL     1       7.470   5.590  15.240  0.00  0.00    +0.000 OA
ATOM     14  H   UNL     1       8.651   4.869  17.274  0.00  0.00    +0.000 HD
ATOM     15  H   UNL     1       7.464   3.718  17.793  0.00  0.00    +0.000 HD
ENDBRANCH  10  12
ENDBRANCH   1  10
TORSDOF 3
ENDMDL
MODEL 7
REMARK VINA RESULT:      -5.6      3.068      5.126
REMARK  Name = 
REMARK  3 active torsions:
REMARK  status: ('A' for Active; 'I' for Inactive)
REMARK    1  A    between atoms: C_2  and  C_4
REMARK    2  A    between atoms: C_4  and  C_5
REMARK    3  A    between atoms: C_8  and  O_9
REMARK                            x       y       z     vdW  Elec       q    Type
REMARK                         _______ _______ _______ _____ _____    ______ ____
ROOT
ATOM      1  C   UNL     1       3.275   4.217  17.906  0.00  0.00    +0.000 A 
ATOM      2  C   UNL     1       3.967   4.473  19.098  0.00  0.00    +0.000 A 
ATOM      3  C   UNL     1       5.365   4.519  19.116  0.00  0.00    +0.000 A 
ATOM      4  C   UNL     1       6.081   4.318  17.937  0.00  0.00    +0.000 A 
ATOM      5  C   UNL     1       5.403   4.088  16.737  0.00  0.00    +0.000 A 
ATOM      6 CL   UNL     1       6.251   3.852  15.253  0.00  0.00    +0.000 Cl
ATOM      7  C   UNL     1       4.006   4.038  16.722  0.00  0.00    +0.000 A 
ENDROOT
BRANCH   4   8
ATOM      8  O   UNL     1       7.447   4.346  17.957  0.00  0.00    +0.000 OA
ATOM      9  H   UNL     1       7.747   4.899  18.696  0.00  0.00    +0.000 HD
ENDBRANCH   4   8
BRANCH   1  10
ATOM     10  C   UNL     1       1.768   4.146  17.896  0.00  0.00    +0.000 C 
BRANCH  10  12
ATOM     11  N   UNL     1       1.375   1.850  18.613  0.00  0.00    +0.000 N 
ATOM     12  C   UNL     1       1.214   3.173  18.914  0.00  0.00    +0.000 C 
ATOM     13  O   UNL     1       0.660   3.519  19.952  0.00  0.00    +0.000 OA
ATOM     14  H   UNL     1       0.954   1.181  19.246  0.00  0.00    +0.000 HD
ATOM     15  H   UNL     1       1.649   1.530  17.696  0.00  0.00    +0.000 HD
ENDBRANCH  10  12
ENDBRANCH   1  10
TORSDOF 3
ENDMDL
MODEL 8
REMARK VINA RESULT:      -5.6      2.623      3.026
REMARK  Name = 
REMARK  3 active torsions:
REMARK  status: ('A' for Active; 'I' for Inactive)
REMARK    1  A    between atoms: C_2  and  C_4
REMARK    2  A    between atoms: C_4  and  C_5
REMARK    3  A    between atoms: C_8  and  O_9
REMARK                            x       y       z     vdW  Elec       q    Type
REMARK                         _______ _______ _______ _____ _____    ______ ____
ROOT
ATOM      1  C   UNL     1       4.675   5.176  16.616  0.00  0.00    +0.000 A 
ATOM      2  C   UNL     1       4.082   6.210  17.355  0.00  0.00    +0.000 A 
ATOM      3  C   UNL     1       3.012   5.948  18.216  0.00  0.00    +0.000 A 
ATOM      4  C   UNL     1       2.534   4.645  18.352  0.00  0.00    +0.000 A 
ATOM      5  C   UNL     1       3.132   3.602  17.642  0.00  0.00    +0.000 A 
ATOM      6 CL   UNL     1       2.583   1.974  17.795  0.00  0.00    +0.000 Cl
ATOM      7  C   UNL     1       4.200   3.867  16.778  0.00  0.00    +0.000 A 
ENDROOT
BRANCH   4   8
ATOM      8  O   UNL     1       1.476   4.391  19.181  0.00  0.00    +0.000 OA
ATOM      9  H   UNL     1       0.647   4.568  18.708  0.00  0.00    +0.000 HD
ENDBRANCH   4   8
BRANCH   1  10
ATOM     10  C   UNL     1       5.815   5.467  15.671  0.00  0.00    +0.000 C 
BRANCH  10  12
ATOM     11  N   UNL     1       7.611   6.760  16.694  0.00  0.00    +0.000 N 
ATOM     12  C   UNL     1       7.160   5.514  16.364  0.00  0.00    +0.000 C 
ATOM     13  O   UNL     1       7.820   4.515  16.630  0.00  0.00    +0.000 OA
ATOM     14  H   UNL     1       8.537   6.822  17.098  0.00  0.00    +0.000 HD
ATOM     15  H   UNL     1       7.195   7.604  16.328  0.00  0.00    +0.000 HD
ENDBRANCH  10  12
ENDBRANCH   1  10
TORSDOF 3
ENDMDL
MODEL 9
REMARK VINA RESULT:      -5.5      3.415      5.325
REMARK  Name = 
REMARK  3 active torsions:
REMARK  status: ('A' for Active; 'I' for Inactive)
REMARK    1  A    between atoms: C_2  and  C_4
REMARK    2  A    between atoms: C_4  and  C_5
REMARK    3  A    between atoms: C_8  and  O_9
REMARK                            x       y       z     vdW  Elec       q    Type
REMARK                         _______ _______ _______ _____ _____    ______ ____
ROOT
ATOM      1  C   UNL     1       4.856   4.444  18.402  0.00  0.00    +0.000 A 
ATOM      2  C   UNL     1       5.856   5.310  18.866  0.00  0.00    +0.000 A 
ATOM      3  C   UNL     1       6.780   5.872  17.980  0.00  0.00    +0.000 A 
ATOM      4  C   UNL     1       6.703   5.579  16.619  0.00  0.00    +0.000 A 
ATOM      5  C   UNL     1       5.696   4.738  16.139  0.00  0.00    +0.000 A 
ATOM      6 CL   UNL     1       5.555   4.364  14.461  0.00  0.00    +0.000 Cl
ATOM      7  C   UNL     1       4.775   4.174  17.028  0.00  0.00    +0.000 A 
ENDROOT
BRANCH   4   8
ATOM      8  O   UNL     1       7.617   6.114  15.754  0.00  0.00    +0.000 OA
ATOM      9  H   UNL     1       7.171   6.369  14.931  0.00  0.00    +0.000 HD
ENDBRANCH   4   8
BRANCH   1  10
ATOM     10  C   UNL     1       3.874   3.823  19.365  0.00  0.00    +0.000 C 
BRANCH  10  12
ATOM     11  N   UNL     1       5.027   1.773  20.007  0.00  0.00    +0.000 N 
ATOM     12  C   UNL     1       3.938   2.311  19.382  0.00  0.00    +0.000 C 
ATOM     13  O   UNL     1       3.081   1.590  18.881  0.00  0.00    +0.000 OA
ATOM     14  H   UNL     1       5.126   0.767  19.974  0.00  0.00    +0.000 HD
ATOM     15  H   UNL     1       5.837   2.322  20.259  0.00  0.00    +0.000 HD
ENDBRANCH  10  12
ENDBRANCH   1  10
TORSDOF 3
ENDMDL
