MODEL 1
REMARK VINA RESULT:      -7.1      0.000      0.000
REMARK  Name = 
REMARK  11 active torsions:
REMARK  status: ('A' for Active; 'I' for Inactive)
REMARK    1  A    between atoms: C_1  and  C_2
REMARK    2  A    between atoms: C_2  and  C_3
REMARK    3  A    between atoms: C_2  and  C_4
REMARK    4  A    between atoms: C_2  and  O_5
REMARK    5  A    between atoms: O_5  and  C_6
REMARK    6  A    between atoms: N_8  and  C_9
REMARK    7  A    between atoms: C_15  and  C_16
REMARK    8  A    between atoms: N_23  and  C_24
REMARK    9  A    between atoms: C_24  and  C_25
REMARK   10  A    between atoms: C_25  and  C_26
REMARK   11  A    between atoms: C_26  and  O_28
REMARK                            x       y       z     vdW  Elec       q    Type
REMARK                         _______ _______ _______ _____ _____    ______ ____
ROOT
ATOM      1  C   UNL     1       2.433   6.115  19.284  0.00  0.00    +0.000 C 
ATOM      2  C   UNL     1       2.188   7.131  18.166  0.00  0.00    +0.000 C 
ATOM      3  C   UNL     1       2.317   8.573  18.639  0.00  0.00    +0.000 C 
ATOM      4  N   UNL     1       1.481   8.773  19.818  0.00  0.00    +0.000 N 
ATOM      5  C   UNL     1       0.972  10.023  20.146  0.00  0.00    +0.000 A 
ATOM      6  C   UNL     1       1.392  11.186  19.542  0.00  0.00    +0.000 A 
ATOM      7  C   UNL     1       0.753  12.355  19.908  0.00  0.00    +0.000 A 
ATOM      8  N   UNL     1      -0.247  12.384  20.813  0.00  0.00    +0.000 NA
ATOM      9  C   UNL     1      -0.566  11.227  21.386  0.00  0.00    +0.000 A 
ATOM     10  N   UNL     1      -1.525  11.159  22.374  0.00  0.00    +0.000 N 
ATOM     11  N   UNL     1       0.000  10.062  21.071  0.00  0.00    +0.000 NA
ATOM     12  C   UNL     1       1.749   7.899  20.964  0.00  0.00    +0.000 C 
ATOM     13  C   UNL     1       1.642   6.441  20.546  0.00  0.00    +0.000 C 
ATOM     14  H   UNL     1      -1.791  10.188  22.497  0.00  0.00    +0.000 HD
ENDROOT
BRANCH   7  15
ATOM     15  C   UNL     1       1.137  13.669  19.360  0.00  0.00    +0.000 A 
ATOM     16  N   UNL     1       2.325  13.972  18.864  0.00  0.00    +0.000 NA
ATOM     17  C   UNL     1       2.345  15.278  18.419  0.00  0.00    +0.000 A 
ATOM     18  C   UNL     1       1.177  15.983  18.597  0.00  0.00    +0.000 A 
ATOM     19  S   UNL     1       0.009  14.982  19.344  0.00  0.00    +0.000 S 
ENDBRANCH   7  15
BRANCH   1  22
ATOM     20  C   UNL     1       4.473   4.859  18.853  0.00  0.00    +0.000 C 
ATOM     21  O   UNL     1       3.871   4.119  18.085  0.00  0.00    +0.000 OA
ATOM     22  N   UNL     1       3.856   5.880  19.526  0.00  0.00    +0.000 N 
ATOM     23  H   UNL     1       4.436   6.512  20.058  0.00  0.00    +0.000 HD
BRANCH  20  24
ATOM     24  O   UNL     1       5.804   4.785  19.136  0.00  0.00    +0.000 OA
BRANCH  24  26
ATOM     25  C   UNL     1       7.197   4.464  17.126  0.00  0.00    +0.000 C 
ATOM     26  C   UNL     1       6.705   5.448  18.200  0.00  0.00    +0.000 C 
ATOM     27  C   UNL     1       7.857   6.145  18.944  0.00  0.00    +0.000 C 
ATOM     28  C   UNL     1       5.898   6.541  17.478  0.00  0.00    +0.000 C 
ENDBRANCH  24  26
ENDBRANCH  20  24
ENDBRANCH   1  22
BRANCH  10  29
ATOM     29  C   UNL     1      -2.577  12.155  22.412  0.00  0.00    +0.000 C 
BRANCH  29  30
ATOM     30  C   UNL     1      -2.812  12.651  23.829  0.00  0.00    +0.000 C 
BRANCH  30  31
ATOM     31  C   UNL     1      -4.260  12.466  24.180  0.00  0.00    +0.000 C 
ATOM     32  O   UNL     1      -5.135  12.254  23.359  0.00  0.00    +0.000 OA
BRANCH  31  33
ATOM     33  O   UNL     1      -4.506  12.524  25.508  0.00  0.00    +0.000 OA
ATOM     34  H   UNL     1      -4.551  11.653  25.950  0.00  0.00    +0.000 HD
ENDBRANCH  31  33
ENDBRANCH  30  31
ENDBRANCH  29  30
ENDBRANCH  10  29
TORSDOF 8
ENDMDL
MODEL 2
REMARK VINA RESULT:      -6.9      3.490      5.389
REMARK  Name = 
REMARK  11 active torsions:
REMARK  status: ('A' for Active; 'I' for Inactive)
REMARK    1  A    between atoms: C_1  and  C_2
REMARK    2  A    between atoms: C_2  and  C_3
REMARK    3  A    between atoms: C_2  and  C_4
REMARK    4  A    between atoms: C_2  and  O_5
REMARK    5  A    between atoms: O_5  and  C_6
REMARK    6  A    between atoms: N_8  and  C_9
REMARK    7  A    between atoms: C_15  and  C_16
REMARK    8  A    between atoms: N_23  and  C_24
REMARK    9  A    between atoms: C_24  and  C_25
REMARK   10  A    between atoms: C_25  and  C_26
REMARK   11  A    between atoms: C_26  and  O_28
REMARK                            x       y       z     vdW  Elec       q    Type
REMARK                         _______ _______ _______ _____ _____    ______ ____
ROOT
ATOM      1  C   UNL     1       2.541   7.509  18.915  0.00  0.00    +0.000 C 
ATOM      2  C   UNL     1       2.240   7.915  20.360  0.00  0.00    +0.000 C 
ATOM      3  C   UNL     1       0.921   8.664  20.501  0.00  0.00    +0.000 C 
ATOM      4  N   UNL     1       0.891   9.773  19.553  0.00  0.00    +0.000 N 
ATOM      5  C   UNL     1       0.126  10.909  19.786  0.00  0.00    +0.000 A 
ATOM      6  C   UNL     1      -0.822  10.984  20.781  0.00  0.00    +0.000 A 
ATOM      7  C   UNL     1      -1.461  12.196  20.955  0.00  0.00    +0.000 A 
ATOM      8  N   UNL     1      -1.186  13.278  20.199  0.00  0.00    +0.000 NA
ATOM      9  C   UNL     1      -0.292  13.116  19.228  0.00  0.00    +0.000 A 
ATOM     10  N   UNL     1       0.010  14.137  18.354  0.00  0.00    +0.000 N 
ATOM     11  N   UNL     1       0.371  11.979  19.013  0.00  0.00    +0.000 NA
ATOM     12  C   UNL     1       1.061   9.428  18.138  0.00  0.00    +0.000 C 
ATOM     13  C   UNL     1       2.363   8.668  17.940  0.00  0.00    +0.000 C 
ATOM     14  H   UNL     1       0.867  13.901  17.867  0.00  0.00    +0.000 HD
ENDROOT
BRANCH   7  15
ATOM     15  C   UNL     1      -2.521  12.392  21.962  0.00  0.00    +0.000 A 
ATOM     16  N   UNL     1      -2.463  11.989  23.220  0.00  0.00    +0.000 NA
ATOM     17  C   UNL     1      -3.611  12.348  23.897  0.00  0.00    +0.000 A 
ATOM     18  C   UNL     1      -4.559  13.006  23.149  0.00  0.00    +0.000 A 
ATOM     19  S   UNL     1      -4.001  13.188  21.542  0.00  0.00    +0.000 S 
ENDBRANCH   7  15
BRANCH   1  22
ATOM     20  C   UNL     1       2.562   5.273  17.955  0.00  0.00    +0.000 C 
ATOM     21  O   UNL     1       3.766   5.359  17.746  0.00  0.00    +0.000 OA
ATOM     22  N   UNL     1       1.837   6.291  18.516  0.00  0.00    +0.000 N 
ATOM     23  H   UNL     1       0.874   6.109  18.755  0.00  0.00    +0.000 HD
BRANCH  20  24
ATOM     24  O   UNL     1       1.791   4.184  17.678  0.00  0.00    +0.000 OA
BRANCH  24  26
ATOM     25  C   UNL     1       2.482   3.438  19.925  0.00  0.00    +0.000 C 
ATOM     26  C   UNL     1       1.982   3.018  18.533  0.00  0.00    +0.000 C 
ATOM     27  C   UNL     1       2.898   1.983  17.857  0.00  0.00    +0.000 C 
ATOM     28  C   UNL     1       0.607   2.356  18.726  0.00  0.00    +0.000 C 
ENDBRANCH  24  26
ENDBRANCH  20  24
ENDBRANCH   1  22
BRANCH  10  29
ATOM     29  C   UNL     1      -0.164  15.511  18.781  0.00  0.00    +0.000 C 
BRANCH  29  30
ATOM     30  C   UNL     1       1.098  16.047  19.436  0.00  0.00    +0.000 C 
BRANCH  30  31
ATOM     31  C   UNL     1       2.165  16.199  18.391  0.00  0.00    +0.000 C 
ATOM     32  O   UNL     1       2.812  15.271  17.941  0.00  0.00    +0.000 OA
BRANCH  31  33
ATOM     33  O   UNL     1       2.327  17.473  17.965  0.00  0.00    +0.000 OA
ATOM     34  H   UNL     1       3.199  17.862  18.174  0.00  0.00    +0.000 HD
ENDBRANCH  31  33
ENDBRANCH  30  31
ENDBRANCH  29  30
ENDBRANCH  10  29
TORSDOF 8
ENDMDL
MODEL 3
REMARK VINA RESULT:      -6.9      1.304      1.707
REMARK  Name = 
REMARK  11 active torsions:
REMARK  status: ('A' for Active; 'I' for Inactive)
REMARK    1  A    between atoms: C_1  and  C_2
REMARK    2  A    between atoms: C_2  and  C_3
REMARK    3  A    between atoms: C_2  and  C_4
REMARK    4  A    between atoms: C_2  and  O_5
REMARK    5  A    between atoms: O_5  and  C_6
REMARK    6  A    between atoms: N_8  and  C_9
REMARK    7  A    between atoms: C_15  and  C_16
REMARK    8  A    between atoms: N_23  and  C_24
REMARK    9  A    between atoms: C_24  and  C_25
REMARK   10  A    between atoms: C_25  and  C_26
REMARK   11  A    between atoms: C_26  and  O_28
REMARK                            x       y       z     vdW  Elec       q    Type
REMARK                         _______ _______ _______ _____ _____    ______ ____
ROOT
ATOM      1  C   UNL     1       2.356   6.241  19.246  0.00  0.00    +0.000 C 
ATOM      2  C   UNL     1       2.131   7.260  18.126  0.00  0.00    +0.000 C 
ATOM      3  C   UNL     1       2.269   8.701  18.601  0.00  0.00    +0.000 C 
ATOM      4  N   UNL     1       1.422   8.907  19.771  0.00  0.00    +0.000 N 
ATOM      5  C   UNL     1       0.922  10.162  20.095  0.00  0.00    +0.000 A 
ATOM      6  C   UNL     1       1.359  11.321  19.496  0.00  0.00    +0.000 A 
ATOM      7  C   UNL     1       0.727  12.495  19.856  0.00  0.00    +0.000 A 
ATOM      8  N   UNL     1      -0.282  12.534  20.750  0.00  0.00    +0.000 NA
ATOM      9  C   UNL     1      -0.618  11.380  21.320  0.00  0.00    +0.000 A 
ATOM     10  N   UNL     1      -1.587  11.320  22.298  0.00  0.00    +0.000 N 
ATOM     11  N   UNL     1      -0.059  10.209  21.010  0.00  0.00    +0.000 NA
ATOM     12  C   UNL     1       1.672   8.031  20.920  0.00  0.00    +0.000 C 
ATOM     13  C   UNL     1       1.555   6.574  20.500  0.00  0.00    +0.000 C 
ATOM     14  H   UNL     1      -1.863  10.351  22.417  0.00  0.00    +0.000 HD
ENDROOT
BRANCH   7  15
ATOM     15  C   UNL     1       1.129  13.807  19.313  0.00  0.00    +0.000 A 
ATOM     16  N   UNL     1       0.356  14.878  19.253  0.00  0.00    +0.000 NA
ATOM     17  C   UNL     1       1.045  15.942  18.708  0.00  0.00    +0.000 A 
ATOM     18  C   UNL     1       2.341  15.678  18.328  0.00  0.00    +0.000 A 
ATOM     19  S   UNL     1       2.717  14.043  18.664  0.00  0.00    +0.000 S 
ENDBRANCH   7  15
BRANCH   1  22
ATOM     20  C   UNL     1       4.410   5.022  18.774  0.00  0.00    +0.000 C 
ATOM     21  O   UNL     1       3.827   4.335  17.944  0.00  0.00    +0.000 OA
ATOM     22  N   UNL     1       3.775   5.993  19.503  0.00  0.00    +0.000 N 
ATOM     23  H   UNL     1       4.340   6.588  20.089  0.00  0.00    +0.000 HD
BRANCH  20  24
ATOM     24  O   UNL     1       5.734   4.931  19.081  0.00  0.00    +0.000 OA
BRANCH  24  26
ATOM     25  C   UNL     1       7.857   6.181  18.951  0.00  0.00    +0.000 C 
ATOM     26  C   UNL     1       6.657   5.609  18.178  0.00  0.00    +0.000 C 
ATOM     27  C   UNL     1       5.927   6.671  17.337  0.00  0.00    +0.000 C 
ATOM     28  C   UNL     1       7.209   4.553  17.203  0.00  0.00    +0.000 C 
ENDBRANCH  24  26
ENDBRANCH  20  24
ENDBRANCH   1  22
BRANCH  10  29
ATOM     29  C   UNL     1      -2.630  12.325  22.326  0.00  0.00    +0.000 C 
BRANCH  29  30
ATOM     30  C   UNL     1      -2.721  12.985  23.692  0.00  0.00    +0.000 C 
BRANCH  30  31
ATOM     31  C   UNL     1      -1.845  14.204  23.707  0.00  0.00    +0.000 C 
ATOM     32  O   UNL     1      -1.586  14.841  24.711  0.00  0.00    +0.000 OA
BRANCH  31  33
ATOM     33  O   UNL     1      -1.336  14.518  22.493  0.00  0.00    +0.000 OA
ATOM     34  H   UNL     1      -1.393  13.801  21.832  0.00  0.00    +0.000 HD
ENDBRANCH  31  33
ENDBRANCH  30  31
ENDBRANCH  29  30
ENDBRANCH  10  29
TORSDOF 8
ENDMDL
MODEL 4
REMARK VINA RESULT:      -6.9      3.200     10.217
REMARK  Name = 
REMARK  11 active torsions:
REMARK  status: ('A' for Active; 'I' for Inactive)
REMARK    1  A    between atoms: C_1  and  C_2
REMARK    2  A    between atoms: C_2  and  C_3
REMARK    3  A    between atoms: C_2  and  C_4
REMARK    4  A    between atoms: C_2  and  O_5
REMARK    5  A    between atoms: O_5  and  C_6
REMARK    6  A    between atoms: N_8  and  C_9
REMARK    7  A    between atoms: C_15  and  C_16
REMARK    8  A    between atoms: N_23  and  C_24
REMARK    9  A    between atoms: C_24  and  C_25
REMARK   10  A    between atoms: C_25  and  C_26
REMARK   11  A    between atoms: C_26  and  O_28
REMARK                            x       y       z     vdW  Elec       q    Type
REMARK                         _______ _______ _______ _____ _____    ______ ____
ROOT
ATOM      1  C   UNL     1       0.286  11.895  18.851  0.00  0.00    +0.000 C 
ATOM      2  C   UNL     1      -0.515  10.593  18.933  0.00  0.00    +0.000 C 
ATOM      3  C   UNL     1       0.294   9.436  19.505  0.00  0.00    +0.000 C 
ATOM      4  N   UNL     1       1.550   9.316  18.772  0.00  0.00    +0.000 N 
ATOM      5  C   UNL     1       2.224   8.106  18.678  0.00  0.00    +0.000 A 
ATOM      6  C   UNL     1       1.901   7.005  19.438  0.00  0.00    +0.000 A 
ATOM      7  C   UNL     1       2.602   5.840  19.194  0.00  0.00    +0.000 A 
ATOM      8  N   UNL     1       3.564   5.754  18.253  0.00  0.00    +0.000 NA
ATOM      9  C   UNL     1       3.851   6.870  17.590  0.00  0.00    +0.000 A 
ATOM     10  N   UNL     1       4.866   6.908  16.658  0.00  0.00    +0.000 N 
ATOM     11  N   UNL     1       3.207   8.024  17.766  0.00  0.00    +0.000 NA
ATOM     12  C   UNL     1       2.413  10.502  18.756  0.00  0.00    +0.000 C 
ATOM     13  C   UNL     1       1.650  11.694  18.201  0.00  0.00    +0.000 C 
ATOM     14  H   UNL     1       4.761   7.751  16.103  0.00  0.00    +0.000 HD
ENDROOT
BRANCH   7  15
ATOM     15  C   UNL     1       2.374   4.605  19.968  0.00  0.00    +0.000 A 
ATOM     16  N   UNL     1       2.248   4.540  21.282  0.00  0.00    +0.000 NA
ATOM     17  C   UNL     1       2.024   3.239  21.684  0.00  0.00    +0.000 A 
ATOM     18  C   UNL     1       2.002   2.303  20.676  0.00  0.00    +0.000 A 
ATOM     19  S   UNL     1       2.268   3.071  19.171  0.00  0.00    +0.000 S 
ENDBRANCH   7  15
BRANCH   1  22
ATOM     20  C   UNL     1      -0.636  13.518  20.414  0.00  0.00    +0.000 C 
ATOM     21  O   UNL     1      -1.531  13.790  19.624  0.00  0.00    +0.000 OA
ATOM     22  N   UNL     1       0.342  12.601  20.131  0.00  0.00    +0.000 N 
ATOM     23  H   UNL     1       0.984  12.352  20.869  0.00  0.00    +0.000 HD
BRANCH  20  24
ATOM     24  O   UNL     1      -0.488  14.062  21.655  0.00  0.00    +0.000 OA
BRANCH  24  26
ATOM     25  C   UNL     1      -1.244  14.404  23.977  0.00  0.00    +0.000 C 
ATOM     26  C   UNL     1      -1.401  13.584  22.686  0.00  0.00    +0.000 C 
ATOM     27  C   UNL     1      -1.231  12.072  22.916  0.00  0.00    +0.000 C 
ATOM     28  C   UNL     1      -2.835  13.812  22.177  0.00  0.00    +0.000 C 
ENDBRANCH  24  26
ENDBRANCH  20  24
ENDBRANCH   1  22
BRANCH  10  29
ATOM     29  C   UNL     1       5.241   5.691  15.968  0.00  0.00    +0.000 C 
BRANCH  29  30
ATOM     30  C   UNL     1       6.713   5.374  16.174  0.00  0.00    +0.000 C 
BRANCH  30  31
ATOM     31  C   UNL     1       6.871   4.580  17.438  0.00  0.00    +0.000 C 
ATOM     32  O   UNL     1       7.900   4.536  18.088  0.00  0.00    +0.000 OA
BRANCH  31  33
ATOM     33  O   UNL     1       5.744   3.933  17.815  0.00  0.00    +0.000 OA
ATOM     34  H   UNL     1       5.309   3.429  17.099  0.00  0.00    +0.000 HD
ENDBRANCH  31  33
ENDBRANCH  30  31
ENDBRANCH  29  30
ENDBRANCH  10  29
TORSDOF 8
ENDMDL
MODEL 5
REMARK VINA RESULT:      -6.8      3.266      5.305
REMARK  Name = 
REMARK  11 active torsions:
REMARK  status: ('A' for Active; 'I' for Inactive)
REMARK    1  A    between atoms: C_1  and  C_2
REMARK    2  A    between atoms: C_2  and  C_3
REMARK    3  A    between atoms: C_2  and  C_4
REMARK    4  A    between atoms: C_2  and  O_5
REMARK    5  A    between atoms: O_5  and  C_6
REMARK    6  A    between atoms: N_8  and  C_9
REMARK    7  A    between atoms: C_15  and  C_16
REMARK    8  A    between atoms: N_23  and  C_24
REMARK    9  A    between atoms: C_24  and  C_25
REMARK   10  A    between atoms: C_25  and  C_26
REMARK   11  A    between atoms: C_26  and  O_28
REMARK                            x       y       z     vdW  Elec       q    Type
REMARK                         _______ _______ _______ _____ _____    ______ ____
ROOT
ATOM      1  C   UNL     1       2.740   7.192  18.950  0.00  0.00    +0.000 C 
ATOM      2  C   UNL     1       2.402   7.610  20.383  0.00  0.00    +0.000 C 
ATOM      3  C   UNL     1       1.107   8.408  20.475  0.00  0.00    +0.000 C 
ATOM      4  N   UNL     1       1.152   9.516  19.527  0.00  0.00    +0.000 N 
ATOM      5  C   UNL     1       0.421  10.679  19.732  0.00  0.00    +0.000 A 
ATOM      6  C   UNL     1      -0.559  10.790  20.691  0.00  0.00    +0.000 A 
ATOM      7  C   UNL     1      -1.160  12.025  20.842  0.00  0.00    +0.000 A 
ATOM      8  N   UNL     1      -0.817  13.095  20.096  0.00  0.00    +0.000 NA
ATOM      9  C   UNL     1       0.106  12.899  19.159  0.00  0.00    +0.000 A 
ATOM     10  N   UNL     1       0.476  13.908  18.297  0.00  0.00    +0.000 N 
ATOM     11  N   UNL     1       0.734  11.738  18.969  0.00  0.00    +0.000 NA
ATOM     12  C   UNL     1       1.362   9.163  18.119  0.00  0.00    +0.000 C 
ATOM     13  C   UNL     1       2.641   8.355  17.969  0.00  0.00    +0.000 C 
ATOM     14  H   UNL     1       1.342  13.639  17.842  0.00  0.00    +0.000 HD
ENDROOT
BRANCH   7  15
ATOM     15  C   UNL     1      -2.248  12.260  21.809  0.00  0.00    +0.000 A 
ATOM     16  N   UNL     1      -2.227  11.908  23.083  0.00  0.00    +0.000 NA
ATOM     17  C   UNL     1      -3.393  12.293  23.712  0.00  0.00    +0.000 A 
ATOM     18  C   UNL     1      -4.319  12.921  22.911  0.00  0.00    +0.000 A 
ATOM     19  S   UNL     1      -3.714  13.038  21.316  0.00  0.00    +0.000 S 
ENDBRANCH   7  15
BRANCH   1  22
ATOM     20  C   UNL     1       2.713   4.962  17.975  0.00  0.00    +0.000 C 
ATOM     21  O   UNL     1       3.923   5.011  17.796  0.00  0.00    +0.000 OA
ATOM     22  N   UNL     1       2.008   6.000  18.524  0.00  0.00    +0.000 N 
ATOM     23  H   UNL     1       1.033   5.848  18.738  0.00  0.00    +0.000 HD
BRANCH  20  24
ATOM     24  O   UNL     1       1.914   3.901  17.670  0.00  0.00    +0.000 OA
BRANCH  24  26
ATOM     25  C   UNL     1       0.592   2.074  18.670  0.00  0.00    +0.000 C 
ATOM     26  C   UNL     1       1.962   2.768  18.588  0.00  0.00    +0.000 C 
ATOM     27  C   UNL     1       2.497   3.197  19.965  0.00  0.00    +0.000 C 
ATOM     28  C   UNL     1       2.954   1.745  18.008  0.00  0.00    +0.000 C 
ENDBRANCH  24  26
ENDBRANCH  20  24
ENDBRANCH   1  22
BRANCH  10  29
ATOM     29  C   UNL     1       0.337  15.288  18.718  0.00  0.00    +0.000 C 
BRANCH  29  30
ATOM     30  C   UNL     1       1.677  15.874  19.132  0.00  0.00    +0.000 C 
BRANCH  30  31
ATOM     31  C   UNL     1       2.775  14.958  18.675  0.00  0.00    +0.000 C 
ATOM     32  O   UNL     1       3.312  14.131  19.390  0.00  0.00    +0.000 OA
BRANCH  31  33
ATOM     33  O   UNL     1       3.099  15.113  17.370  0.00  0.00    +0.000 OA
ATOM     34  H   UNL     1       3.205  16.042  17.087  0.00  0.00    +0.000 HD
ENDBRANCH  31  33
ENDBRANCH  30  31
ENDBRANCH  29  30
ENDBRANCH  10  29
TORSDOF 8
ENDMDL
MODEL 6
REMARK VINA RESULT:      -6.7      3.865      9.568
REMARK  Name = 
REMARK  11 active torsions:
REMARK  status: ('A' for Active; 'I' for Inactive)
REMARK    1  A    between atoms: C_1  and  C_2
REMARK    2  A    between atoms: C_2  and  C_3
REMARK    3  A    between atoms: C_2  and  C_4
REMARK    4  A    between atoms: C_2  and  O_5
REMARK    5  A    between atoms: O_5  and  C_6
REMARK    6  A    between atoms: N_8  and  C_9
REMARK    7  A    between atoms: C_15  and  C_16
REMARK    8  A    between atoms: N_23  and  C_24
REMARK    9  A    between atoms: C_24  and  C_25
REMARK   10  A    between atoms: C_25  and  C_26
REMARK   11  A    between atoms: C_26  and  O_28
REMARK                            x       y       z     vdW  Elec       q    Type
REMARK                         _______ _______ _______ _____ _____    ______ ____
ROOT
ATOM      1  C   UNL     1       0.315  11.335  19.164  0.00  0.00    +0.000 C 
ATOM      2  C   UNL     1       1.751  11.293  18.634  0.00  0.00    +0.000 C 
ATOM      3  C   UNL     1       2.085   9.980  17.936  0.00  0.00    +0.000 C 
ATOM      4  N   UNL     1       1.742   8.865  18.813  0.00  0.00    +0.000 N 
ATOM      5  C   UNL     1       2.386   7.639  18.716  0.00  0.00    +0.000 A 
ATOM      6  C   UNL     1       3.210   7.305  17.666  0.00  0.00    +0.000 A 
ATOM      7  C   UNL     1       3.849   6.082  17.727  0.00  0.00    +0.000 A 
ATOM      8  N   UNL     1       3.694   5.232  18.763  0.00  0.00    +0.000 NA
ATOM      9  C   UNL     1       2.847   5.605  19.718  0.00  0.00    +0.000 A 
ATOM     10  N   UNL     1       2.563   4.779  20.784  0.00  0.00    +0.000 N 
ATOM     11  N   UNL     1       2.208   6.775  19.728  0.00  0.00    +0.000 NA
ATOM     12  C   UNL     1       0.348   8.792  19.261  0.00  0.00    +0.000 C 
ATOM     13  C   UNL     1      -0.044  10.085  19.960  0.00  0.00    +0.000 C 
ATOM     14  H   UNL     1       2.107   5.329  21.504  0.00  0.00    +0.000 HD
ENDROOT
BRANCH   7  15
ATOM     15  C   UNL     1       4.727   5.595  16.647  0.00  0.00    +0.000 A 
ATOM     16  N   UNL     1       5.406   6.361  15.810  0.00  0.00    +0.000 NA
ATOM     17  C   UNL     1       6.143   5.589  14.935  0.00  0.00    +0.000 A 
ATOM     18  C   UNL     1       6.009   4.229  15.088  0.00  0.00    +0.000 A 
ATOM     19  S   UNL     1       4.927   3.897  16.370  0.00  0.00    +0.000 S 
ENDBRANCH   7  15
BRANCH   1  22
ATOM     20  C   UNL     1      -1.968  11.840  18.487  0.00  0.00    +0.000 C 
ATOM     21  O   UNL     1      -2.357  11.688  19.639  0.00  0.00    +0.000 OA
ATOM     22  N   UNL     1      -0.658  11.670  18.125  0.00  0.00    +0.000 N 
ATOM     23  H   UNL     1      -0.393  11.915  17.182  0.00  0.00    +0.000 HD
BRANCH  20  24
ATOM     24  O   UNL     1      -2.752  12.196  17.432  0.00  0.00    +0.000 OA
BRANCH  24  26
ATOM     25  C   UNL     1      -5.086  11.536  16.984  0.00  0.00    +0.000 C 
ATOM     26  C   UNL     1      -3.602  11.151  16.872  0.00  0.00    +0.000 C 
ATOM     27  C   UNL     1      -3.289   9.786  17.510  0.00  0.00    +0.000 C 
ATOM     28  C   UNL     1      -3.274  11.043  15.373  0.00  0.00    +0.000 C 
ENDBRANCH  24  26
ENDBRANCH  20  24
ENDBRANCH   1  22
BRANCH  10  29
ATOM     29  C   UNL     1       3.545   3.800  21.206  0.00  0.00    +0.000 C 
BRANCH  29  30
ATOM     30  C   UNL     1       3.157   2.403  20.753  0.00  0.00    +0.000 C 
BRANCH  30  31
ATOM     31  C   UNL     1       4.003   2.018  19.574  0.00  0.00    +0.000 C 
ATOM     32  O   UNL     1       3.608   1.323  18.654  0.00  0.00    +0.000 OA
BRANCH  31  33
ATOM     33  O   UNL     1       5.248   2.543  19.607  0.00  0.00    +0.000 OA
ATOM     34  H   UNL     1       5.564   2.779  20.501  0.00  0.00    +0.000 HD
ENDBRANCH  31  33
ENDBRANCH  30  31
ENDBRANCH  29  30
ENDBRANCH  10  29
TORSDOF 8
ENDMDL
MODEL 7
REMARK VINA RESULT:      -6.7      3.618      5.511
REMARK  Name = 
REMARK  11 active torsions:
REMARK  status: ('A' for Active; 'I' for Inactive)
REMARK    1  A    between atoms: C_1  and  C_2
REMARK    2  A    between atoms: C_2  and  C_3
REMARK    3  A    between atoms: C_2  and  C_4
REMARK    4  A    between atoms: C_2  and  O_5
REMARK    5  A    between atoms: O_5  and  C_6
REMARK    6  A    between atoms: N_8  and  C_9
REMARK    7  A    between atoms: C_15  and  C_16
REMARK    8  A    between atoms: N_23  and  C_24
REMARK    9  A    between atoms: C_24  and  C_25
REMARK   10  A    between atoms: C_25  and  C_26
REMARK   11  A    between atoms: C_26  and  O_28
REMARK                            x       y       z     vdW  Elec       q    Type
REMARK                         _______ _______ _______ _____ _____    ______ ____
ROOT
ATOM      1  C   UNL     1       2.639   7.298  19.093  0.00  0.00    +0.000 C 
ATOM      2  C   UNL     1       2.212   7.739  20.495  0.00  0.00    +0.000 C 
ATOM      3  C   UNL     1       0.930   8.563  20.491  0.00  0.00    +0.000 C 
ATOM      4  N   UNL     1       1.064   9.660  19.538  0.00  0.00    +0.000 N 
ATOM      5  C   UNL     1       0.345  10.839  19.682  0.00  0.00    +0.000 A 
ATOM      6  C   UNL     1      -0.696  10.980  20.571  0.00  0.00    +0.000 A 
ATOM      7  C   UNL     1      -1.280  12.229  20.668  0.00  0.00    +0.000 A 
ATOM      8  N   UNL     1      -0.865  13.284  19.939  0.00  0.00    +0.000 NA
ATOM      9  C   UNL     1       0.116  13.059  19.069  0.00  0.00    +0.000 A 
ATOM     10  N   UNL     1       0.566  14.052  18.225  0.00  0.00    +0.000 N 
ATOM     11  N   UNL     1       0.732  11.884  18.933  0.00  0.00    +0.000 NA
ATOM     12  C   UNL     1       1.362   9.288  18.152  0.00  0.00    +0.000 C 
ATOM     13  C   UNL     1       2.632   8.453  18.097  0.00  0.00    +0.000 C 
ATOM     14  H   UNL     1       1.455  13.761  17.833  0.00  0.00    +0.000 HD
ENDROOT
BRANCH   7  15
ATOM     15  C   UNL     1      -2.427  12.496  21.556  0.00  0.00    +0.000 A 
ATOM     16  N   UNL     1      -3.551  13.088  21.193  0.00  0.00    +0.000 NA
ATOM     17  C   UNL     1      -4.425  13.165  22.259  0.00  0.00    +0.000 A 
ATOM     18  C   UNL     1      -3.957  12.652  23.447  0.00  0.00    +0.000 A 
ATOM     19  S   UNL     1      -2.372  12.048  23.228  0.00  0.00    +0.000 S 
ENDBRANCH   7  15
BRANCH   1  22
ATOM     20  C   UNL     1       2.627   5.086  18.077  0.00  0.00    +0.000 C 
ATOM     21  O   UNL     1       3.842   5.133  17.929  0.00  0.00    +0.000 OA
ATOM     22  N   UNL     1       1.912   6.117  18.629  0.00  0.00    +0.000 N 
ATOM     23  H   UNL     1       0.933   5.965  18.817  0.00  0.00    +0.000 HD
BRANCH  20  24
ATOM     24  O   UNL     1       1.832   4.034  17.735  0.00  0.00    +0.000 OA
BRANCH  24  26
ATOM     25  C   UNL     1       2.319   3.221  20.013  0.00  0.00    +0.000 C 
ATOM     26  C   UNL     1       1.934   2.844  18.572  0.00  0.00    +0.000 C 
ATOM     27  C   UNL     1       2.890   1.812  17.949  0.00  0.00    +0.000 C 
ATOM     28  C   UNL     1       0.538   2.199  18.631  0.00  0.00    +0.000 C 
ENDBRANCH  24  26
ENDBRANCH  20  24
ENDBRANCH   1  22
BRANCH  10  29
ATOM     29  C   UNL     1       0.428  15.438  18.623  0.00  0.00    +0.000 C 
BRANCH  29  30
ATOM     30  C   UNL     1       1.753  16.009  19.097  0.00  0.00    +0.000 C 
BRANCH  30  31
ATOM     31  C   UNL     1       2.643  16.233  17.909  0.00  0.00    +0.000 C 
ATOM     32  O   UNL     1       2.847  17.326  17.410  0.00  0.00    +0.000 OA
BRANCH  31  33
ATOM     33  O   UNL     1       3.232  15.104  17.454  0.00  0.00    +0.000 OA
ATOM     34  H   UNL     1       4.104  15.242  17.036  0.00  0.00    +0.000 HD
ENDBRANCH  31  33
ENDBRANCH  30  31
ENDBRANCH  29  30
ENDBRANCH  10  29
TORSDOF 8
ENDMDL
MODEL 8
REMARK VINA RESULT:      -6.7      3.501     10.244
REMARK  Name = 
REMARK  11 active torsions:
REMARK  status: ('A' for Active; 'I' for Inactive)
REMARK    1  A    between atoms: C_1  and  C_2
REMARK    2  A    between atoms: C_2  and  C_3
REMARK    3  A    between atoms: C_2  and  C_4
REMARK    4  A    between atoms: C_2  and  O_5
REMARK    5  A    between atoms: O_5  and  C_6
REMARK    6  A    between atoms: N_8  and  C_9
REMARK    7  A    between atoms: C_15  and  C_16
REMARK    8  A    between atoms: N_23  and  C_24
REMARK    9  A    between atoms: C_24  and  C_25
REMARK   10  A    between atoms: C_25  and  C_26
REMARK   11  A    between atoms: C_26  and  O_28
REMARK                            x       y       z     vdW  Elec       q    Type
REMARK                         _______ _______ _______ _____ _____    ______ ____
ROOT
ATOM      1  C   UNL     1       0.595  11.718  18.504  0.00  0.00    +0.000 C 
ATOM      2  C   UNL     1      -0.144  10.399  18.740  0.00  0.00    +0.000 C 
ATOM      3  C   UNL     1       0.768   9.297  19.265  0.00  0.00    +0.000 C 
ATOM      4  N   UNL     1       1.933   9.178  18.394  0.00  0.00    +0.000 N 
ATOM      5  C   UNL     1       2.635   7.985  18.277  0.00  0.00    +0.000 A 
ATOM      6  C   UNL     1       2.442   6.915  19.120  0.00  0.00    +0.000 A 
ATOM      7  C   UNL     1       3.151   5.761  18.849  0.00  0.00    +0.000 A 
ATOM      8  N   UNL     1       3.999   5.657  17.806  0.00  0.00    +0.000 NA
ATOM      9  C   UNL     1       4.166   6.747  17.062  0.00  0.00    +0.000 A 
ATOM     10  N   UNL     1       5.063   6.769  16.016  0.00  0.00    +0.000 N 
ATOM     11  N   UNL     1       3.506   7.888  17.260  0.00  0.00    +0.000 NA
ATOM     12  C   UNL     1       2.744  10.387  18.222  0.00  0.00    +0.000 C 
ATOM     13  C   UNL     1       1.880  11.526  17.706  0.00  0.00    +0.000 C 
ATOM     14  H   UNL     1       4.864   7.579  15.439  0.00  0.00    +0.000 HD
ENDROOT
BRANCH   7  15
ATOM     15  C   UNL     1       3.059   4.560  19.701  0.00  0.00    +0.000 A 
ATOM     16  N   UNL     1       3.912   3.550  19.691  0.00  0.00    +0.000 NA
ATOM     17  C   UNL     1       3.548   2.599  20.623  0.00  0.00    +0.000 A 
ATOM     18  C   UNL     1       2.400   2.872  21.330  0.00  0.00    +0.000 A 
ATOM     19  S   UNL     1       1.751   4.369  20.819  0.00  0.00    +0.000 S 
ENDBRANCH   7  15
BRANCH   1  22
ATOM     20  C   UNL     1       0.158  13.708  19.836  0.00  0.00    +0.000 C 
ATOM     21  O   UNL     1      -0.507  14.188  18.926  0.00  0.00    +0.000 OA
ATOM     22  N   UNL     1       0.775  12.489  19.733  0.00  0.00    +0.000 N 
ATOM     23  H   UNL     1       1.216  12.113  20.559  0.00  0.00    +0.000 HD
BRANCH  20  24
ATOM     24  O   UNL     1       0.371  14.293  21.048  0.00  0.00    +0.000 OA
BRANCH  24  26
ATOM     25  C   UNL     1       2.134  15.523  19.839  0.00  0.00    +0.000 C 
ATOM     26  C   UNL     1       1.190  15.499  21.053  0.00  0.00    +0.000 C 
ATOM     27  C   UNL     1       1.934  15.654  22.390  0.00  0.00    +0.000 C 
ATOM     28  C   UNL     1       0.242  16.703  20.913  0.00  0.00    +0.000 C 
ENDBRANCH  24  26
ENDBRANCH  20  24
ENDBRANCH   1  22
BRANCH  10  29
ATOM     29  C   UNL     1       5.399   5.530  15.343  0.00  0.00    +0.000 C 
BRANCH  29  30
ATOM     30  C   UNL     1       6.877   5.211  15.485  0.00  0.00    +0.000 C 
BRANCH  30  31
ATOM     31  C   UNL     1       7.083   4.379  16.718  0.00  0.00    +0.000 C 
ATOM     32  O   UNL     1       8.147   4.285  17.303  0.00  0.00    +0.000 OA
BRANCH  31  33
ATOM     33  O   UNL     1       5.960   3.760  17.146  0.00  0.00    +0.000 OA
ATOM     34  H   UNL     1       5.160   4.321  17.136  0.00  0.00    +0.000 HD
ENDBRANCH  31  33
ENDBRANCH  30  31
ENDBRANCH  29  30
ENDBRANCH  10  29
TORSDOF 8
ENDMDL
MODEL 9
REMARK VINA RESULT:      -6.7      3.585      5.453
REMARK  Name = 
REMARK  11 active torsions:
REMARK  status: ('A' for Active; 'I' for Inactive)
REMARK    1  A    between atoms: C_1  and  C_2
REMARK    2  A    between atoms: C_2  and  C_3
REMARK    3  A    between atoms: C_2  and  C_4
REMARK    4  A    between atoms: C_2  and  O_5
REMARK    5  A    between atoms: O_5  and  C_6
REMARK    6  A    between atoms: N_8  and  C_9
REMARK    7  A    between atoms: C_15  and  C_16
REMARK    8  A    between atoms: N_23  and  C_24
REMARK    9  A    between atoms: C_24  and  C_25
REMARK   10  A    between atoms: C_25  and  C_26
REMARK   11  A    between atoms: C_26  and  O_28
REMARK                            x       y       z     vdW  Elec       q    Type
REMARK                         _______ _______ _______ _____ _____    ______ ____
ROOT
ATOM      1  C   UNL     1       2.331   7.776  19.112  0.00  0.00    +0.000 C 
ATOM      2  C   UNL     1       1.916   8.197  20.524  0.00  0.00    +0.000 C 
ATOM      3  C   UNL     1       0.588   8.943  20.552  0.00  0.00    +0.000 C 
ATOM      4  N   UNL     1       0.629  10.041  19.592  0.00  0.00    +0.000 N 
ATOM      5  C   UNL     1      -0.155  11.176  19.750  0.00  0.00    +0.000 A 
ATOM      6  C   UNL     1      -1.178  11.259  20.667  0.00  0.00    +0.000 A 
ATOM      7  C   UNL     1      -1.833  12.470  20.775  0.00  0.00    +0.000 A 
ATOM      8  N   UNL     1      -1.502  13.545  20.031  0.00  0.00    +0.000 NA
ATOM      9  C   UNL     1      -0.533  13.375  19.136  0.00  0.00    +0.000 A 
ATOM     10  N   UNL     1      -0.167  14.388  18.276  0.00  0.00    +0.000 N 
ATOM     11  N   UNL     1       0.148  12.238  18.987  0.00  0.00    +0.000 NA
ATOM     12  C   UNL     1       0.912   9.680  18.199  0.00  0.00    +0.000 C 
ATOM     13  C   UNL     1       2.228   8.923  18.113  0.00  0.00    +0.000 C 
ATOM     14  H   UNL     1       0.727  14.149  17.861  0.00  0.00    +0.000 HD
ENDROOT
BRANCH   7  15
ATOM     15  C   UNL     1      -2.970  12.673  21.693  0.00  0.00    +0.000 A 
ATOM     16  N   UNL     1      -4.168  13.107  21.340  0.00  0.00    +0.000 NA
ATOM     17  C   UNL     1      -5.004  13.165  22.437  0.00  0.00    +0.000 A 
ATOM     18  C   UNL     1      -4.437  12.797  23.635  0.00  0.00    +0.000 A 
ATOM     19  S   UNL     1      -2.802  12.361  23.388  0.00  0.00    +0.000 S 
ENDBRANCH   7  15
BRANCH   1  22
ATOM     20  C   UNL     1       2.416   5.584  18.058  0.00  0.00    +0.000 C 
ATOM     21  O   UNL     1       3.612   5.723  17.834  0.00  0.00    +0.000 OA
ATOM     22  N   UNL     1       1.665   6.551  18.673  0.00  0.00    +0.000 N 
ATOM     23  H   UNL     1       0.713   6.323  18.919  0.00  0.00    +0.000 HD
BRANCH  20  24
ATOM     24  O   UNL     1       1.680   4.480  17.747  0.00  0.00    +0.000 OA
BRANCH  24  26
ATOM     25  C   UNL     1       0.590   2.529  18.790  0.00  0.00    +0.000 C 
ATOM     26  C   UNL     1       1.904   3.297  18.570  0.00  0.00    +0.000 C 
ATOM     27  C   UNL     1       2.607   3.667  19.887  0.00  0.00    +0.000 C 
ATOM     28  C   UNL     1       2.849   2.365  17.791  0.00  0.00    +0.000 C 
ENDBRANCH  24  26
ENDBRANCH  20  24
ENDBRANCH   1  22
BRANCH  10  29
ATOM     29  C   UNL     1      -0.378  15.766  18.672  0.00  0.00    +0.000 C 
BRANCH  29  30
ATOM     30  C   UNL     1       0.846  16.330  19.374  0.00  0.00    +0.000 C 
BRANCH  30  31
ATOM     31  C   UNL     1       2.007  16.314  18.422  0.00  0.00    +0.000 C 
ATOM     32  O   UNL     1       2.611  15.305  18.105  0.00  0.00    +0.000 OA
BRANCH  31  33
ATOM     33  O   UNL     1       2.307  17.532  17.916  0.00  0.00    +0.000 OA
ATOM     34  H   UNL     1       3.045  17.987  18.367  0.00  0.00    +0.000 HD
ENDBRANCH  31  33
ENDBRANCH  30  31
ENDBRANCH  29  30
ENDBRANCH  10  29
TORSDOF 8
ENDMDL
