MODEL 1
REMARK VINA RESULT:      -8.3      0.000      0.000
REMARK  Name = 
REMARK  6 active torsions:
REMARK  status: ('A' for Active; 'I' for Inactive)
REMARK    1  A    between atoms: C_2  and  O_3
REMARK    2  A    between atoms: C_2  and  C_4
REMARK    3  A    between atoms: C_4  and  S_5
REMARK    4  A    between atoms: S_5  and  C_6
REMARK    5  A    between atoms: C_9  and  C_10
REMARK    6  A    between atoms: C_16  and  C_17
REMARK                            x       y       z     vdW  Elec       q    Type
REMARK                         _______ _______ _______ _____ _____    ______ ____
ROOT
ATOM      1  C   UNL     1       5.223   5.586  16.830  0.00  0.00    +0.000 A 
ATOM      2  N   UNL     1       5.076   6.895  16.566  0.00  0.00    +0.000 NA
ATOM      3  N   UNL     1       4.063   7.590  17.150  0.00  0.00    +0.000 NA
ATOM      4  C   UNL     1       3.230   6.971  18.016  0.00  0.00    +0.000 A 
ATOM      5  C   UNL     1       3.377   5.587  18.210  0.00  0.00    +0.000 A 
ATOM      6  N   UNL     1       4.380   4.872  17.606  0.00  0.00    +0.000 NA
ENDROOT
BRANCH   4   7
ATOM      7  C   UNL     1       2.286   7.881  18.698  0.00  0.00    +0.000 A 
ATOM      8  C   UNL     1       1.635   8.906  17.985  0.00  0.00    +0.000 A 
ATOM      9  C   UNL     1       0.698   9.742  18.601  0.00  0.00    +0.000 A 
ATOM     10  C   UNL     1       0.383   9.563  19.945  0.00  0.00    +0.000 A 
ATOM     11  C   UNL     1       1.040   8.587  20.684  0.00  0.00    +0.000 A 
ATOM     12  C   UNL     1       2.008   7.784  20.075  0.00  0.00    +0.000 A 
ENDBRANCH   4   7
BRANCH   5  13
ATOM     13  C   UNL     1       2.537   4.774  19.129  0.00  0.00    +0.000 A 
ATOM     14  C   UNL     1       2.812   4.659  20.505  0.00  0.00    +0.000 A 
ATOM     15  C   UNL     1       2.159   3.715  21.302  0.00  0.00    +0.000 A 
ATOM     16  C   UNL     1       1.152   2.921  20.761  0.00  0.00    +0.000 A 
ATOM     17  C   UNL     1       0.786   3.089  19.430  0.00  0.00    +0.000 A 
ATOM     18  C   UNL     1       1.472   4.003  18.623  0.00  0.00    +0.000 A 
ENDBRANCH   5  13
BRANCH   1  19
ATOM     19  S   UNL     1       6.702   4.819  16.223  0.00  0.00    +0.000 S 
BRANCH  19  20
ATOM     20  C   UNL     1       7.601   4.512  17.762  0.00  0.00    +0.000 C 
BRANCH  20  22
ATOM     21  O   UNL     1       7.996   6.785  18.471  0.00  0.00    +0.000 OA
ATOM     22  C   UNL     1       7.494   5.696  18.697  0.00  0.00    +0.000 C 
BRANCH  22  23
ATOM     23  O   UNL     1       6.794   5.444  19.824  0.00  0.00    +0.000 OA
ATOM     24  H   UNL     1       6.788   4.495  20.082  0.00  0.00    +0.000 HD
ENDBRANCH  22  23
ENDBRANCH  20  22
ENDBRANCH  19  20
ENDBRANCH   1  19
TORSDOF 6
ENDMDL
MODEL 2
REMARK VINA RESULT:      -8.2      0.143      1.203
REMARK  Name = 
REMARK  6 active torsions:
REMARK  status: ('A' for Active; 'I' for Inactive)
REMARK    1  A    between atoms: C_2  and  O_3
REMARK    2  A    between atoms: C_2  and  C_4
REMARK    3  A    between atoms: C_4  and  S_5
REMARK    4  A    between atoms: S_5  and  C_6
REMARK    5  A    between atoms: C_9  and  C_10
REMARK    6  A    between atoms: C_16  and  C_17
REMARK                            x       y       z     vdW  Elec       q    Type
REMARK                         _______ _______ _______ _____ _____    ______ ____
ROOT
ATOM      1  C   UNL     1       5.308   5.548  16.851  0.00  0.00    +0.000 A 
ATOM      2  N   UNL     1       5.154   6.854  16.578  0.00  0.00    +0.000 NA
ATOM      3  N   UNL     1       4.122   7.542  17.138  0.00  0.00    +0.000 NA
ATOM      4  C   UNL     1       3.276   6.918  17.987  0.00  0.00    +0.000 A 
ATOM      5  C   UNL     1       3.431   5.536  18.188  0.00  0.00    +0.000 A 
ATOM      6  N   UNL     1       4.454   4.829  17.609  0.00  0.00    +0.000 NA
ENDROOT
BRANCH   4   7
ATOM      7  C   UNL     1       2.309   7.822  18.644  0.00  0.00    +0.000 A 
ATOM      8  C   UNL     1       2.023   7.691  20.016  0.00  0.00    +0.000 A 
ATOM      9  C   UNL     1       1.151   8.572  20.667  0.00  0.00    +0.000 A 
ATOM     10  C   UNL     1       0.555   9.611  19.959  0.00  0.00    +0.000 A 
ATOM     11  C   UNL     1       0.787   9.739  18.595  0.00  0.00    +0.000 A 
ATOM     12  C   UNL     1       1.622   8.830  17.941  0.00  0.00    +0.000 A 
ENDBRANCH   4   7
BRANCH   5  13
ATOM     13  C   UNL     1       2.578   4.718  19.092  0.00  0.00    +0.000 A 
ATOM     14  C   UNL     1       2.840   4.587  20.469  0.00  0.00    +0.000 A 
ATOM     15  C   UNL     1       2.173   3.639  21.249  0.00  0.00    +0.000 A 
ATOM     16  C   UNL     1       1.167   2.857  20.691  0.00  0.00    +0.000 A 
ATOM     17  C   UNL     1       0.813   3.042  19.359  0.00  0.00    +0.000 A 
ATOM     18  C   UNL     1       1.512   3.960  18.568  0.00  0.00    +0.000 A 
ENDBRANCH   5  13
BRANCH   1  19
ATOM     19  S   UNL     1       6.806   4.791  16.279  0.00  0.00    +0.000 S 
BRANCH  19  20
ATOM     20  C   UNL     1       7.656   4.462  17.842  0.00  0.00    +0.000 C 
BRANCH  20  22
ATOM     21  O   UNL     1       7.187   5.554  19.943  0.00  0.00    +0.000 OA
ATOM     22  C   UNL     1       7.543   5.644  18.779  0.00  0.00    +0.000 C 
BRANCH  22  23
ATOM     23  O   UNL     1       7.866   6.826  18.213  0.00  0.00    +0.000 OA
ATOM     24  H   UNL     1       7.905   7.573  18.851  0.00  0.00    +0.000 HD
ENDBRANCH  22  23
ENDBRANCH  20  22
ENDBRANCH  19  20
ENDBRANCH   1  19
TORSDOF 6
ENDMDL
MODEL 3
REMARK VINA RESULT:      -8.2      0.248      1.435
REMARK  Name = 
REMARK  6 active torsions:
REMARK  status: ('A' for Active; 'I' for Inactive)
REMARK    1  A    between atoms: C_2  and  O_3
REMARK    2  A    between atoms: C_2  and  C_4
REMARK    3  A    between atoms: C_4  and  S_5
REMARK    4  A    between atoms: S_5  and  C_6
REMARK    5  A    between atoms: C_9  and  C_10
REMARK    6  A    between atoms: C_16  and  C_17
REMARK                            x       y       z     vdW  Elec       q    Type
REMARK                         _______ _______ _______ _____ _____    ______ ____
ROOT
ATOM      1  C   UNL     1       5.444   5.544  16.767  0.00  0.00    +0.000 A 
ATOM      2  N   UNL     1       5.262   6.854  16.527  0.00  0.00    +0.000 NA
ATOM      3  N   UNL     1       4.214   7.504  17.103  0.00  0.00    +0.000 NA
ATOM      4  C   UNL     1       3.382   6.841  17.936  0.00  0.00    +0.000 A 
ATOM      5  C   UNL     1       3.568   5.458  18.103  0.00  0.00    +0.000 A 
ATOM      6  N   UNL     1       4.606   4.788  17.508  0.00  0.00    +0.000 NA
ENDROOT
BRANCH   4   7
ATOM      7  C   UNL     1       2.395   7.707  18.615  0.00  0.00    +0.000 A 
ATOM      8  C   UNL     1       2.096   7.522  19.978  0.00  0.00    +0.000 A 
ATOM      9  C   UNL     1       1.205   8.366  20.650  0.00  0.00    +0.000 A 
ATOM     10  C   UNL     1       0.602   9.422  19.974  0.00  0.00    +0.000 A 
ATOM     11  C   UNL     1       0.846   9.603  18.618  0.00  0.00    +0.000 A 
ATOM     12  C   UNL     1       1.702   8.730  17.941  0.00  0.00    +0.000 A 
ENDBRANCH   4   7
BRANCH   5  13
ATOM     13  C   UNL     1       2.733   4.600  18.986  0.00  0.00    +0.000 A 
ATOM     14  C   UNL     1       1.524   4.020  18.557  0.00  0.00    +0.000 A 
ATOM     15  C   UNL     1       0.646   3.415  19.461  0.00  0.00    +0.000 A 
ATOM     16  C   UNL     1       0.994   3.299  20.802  0.00  0.00    +0.000 A 
ATOM     17  C   UNL     1       2.231   3.767  21.233  0.00  0.00    +0.000 A 
ATOM     18  C   UNL     1       3.089   4.411  20.337  0.00  0.00    +0.000 A 
ENDBRANCH   5  13
BRANCH   1  19
ATOM     19  S   UNL     1       6.958   4.835  16.178  0.00  0.00    +0.000 S 
BRANCH  19  20
ATOM     20  C   UNL     1       7.825   4.507  17.732  0.00  0.00    +0.000 C 
BRANCH  20  22
ATOM     21  O   UNL     1       8.072   6.755  18.576  0.00  0.00    +0.000 OA
ATOM     22  C   UNL     1       7.613   5.633  18.719  0.00  0.00    +0.000 C 
BRANCH  22  23
ATOM     23  O   UNL     1       6.869   5.289  19.793  0.00  0.00    +0.000 OA
ATOM     24  H   UNL     1       5.902   5.280  19.617  0.00  0.00    +0.000 HD
ENDBRANCH  22  23
ENDBRANCH  20  22
ENDBRANCH  19  20
ENDBRANCH   1  19
TORSDOF 6
ENDMDL
MODEL 4
REMARK VINA RESULT:      -8.1      0.263      1.033
REMARK  Name = 
REMARK  6 active torsions:
REMARK  status: ('A' for Active; 'I' for Inactive)
REMARK    1  A    between atoms: C_2  and  O_3
REMARK    2  A    between atoms: C_2  and  C_4
REMARK    3  A    between atoms: C_4  and  S_5
REMARK    4  A    between atoms: S_5  and  C_6
REMARK    5  A    between atoms: C_9  and  C_10
REMARK    6  A    between atoms: C_16  and  C_17
REMARK                            x       y       z     vdW  Elec       q    Type
REMARK                         _______ _______ _______ _____ _____    ______ ____
ROOT
ATOM      1  C   UNL     1       5.453   5.558  16.721  0.00  0.00    +0.000 A 
ATOM      2  N   UNL     1       5.283   6.867  16.469  0.00  0.00    +0.000 NA
ATOM      3  N   UNL     1       4.245   7.533  17.043  0.00  0.00    +0.000 NA
ATOM      4  C   UNL     1       3.409   6.886  17.885  0.00  0.00    +0.000 A 
ATOM      5  C   UNL     1       3.581   5.503  18.065  0.00  0.00    +0.000 A 
ATOM      6  N   UNL     1       4.611   4.818  17.472  0.00  0.00    +0.000 NA
ENDROOT
BRANCH   4   7
ATOM      7  C   UNL     1       2.433   7.768  18.559  0.00  0.00    +0.000 A 
ATOM      8  C   UNL     1       1.776   8.789  17.846  0.00  0.00    +0.000 A 
ATOM      9  C   UNL     1       0.810   9.598  18.454  0.00  0.00    +0.000 A 
ATOM     10  C   UNL     1       0.471   9.395  19.788  0.00  0.00    +0.000 A 
ATOM     11  C   UNL     1       1.133   8.422  20.528  0.00  0.00    +0.000 A 
ATOM     12  C   UNL     1       2.128   7.647  19.928  0.00  0.00    +0.000 A 
ENDBRANCH   4   7
BRANCH   5  13
ATOM     13  C   UNL     1       2.742   4.662  18.959  0.00  0.00    +0.000 A 
ATOM     14  C   UNL     1       1.547   4.055  18.527  0.00  0.00    +0.000 A 
ATOM     15  C   UNL     1       0.660   3.467  19.433  0.00  0.00    +0.000 A 
ATOM     16  C   UNL     1       0.987   3.395  20.783  0.00  0.00    +0.000 A 
ATOM     17  C   UNL     1       2.211   3.890  21.221  0.00  0.00    +0.000 A 
ATOM     18  C   UNL     1       3.077   4.518  20.320  0.00  0.00    +0.000 A 
ENDBRANCH   5  13
BRANCH   1  19
ATOM     19  S   UNL     1       6.959   4.829  16.134  0.00  0.00    +0.000 S 
BRANCH  19  20
ATOM     20  C   UNL     1       7.816   4.483  17.688  0.00  0.00    +0.000 C 
BRANCH  20  22
ATOM     21  O   UNL     1       8.084   6.727  18.538  0.00  0.00    +0.000 OA
ATOM     22  C   UNL     1       7.617   5.608  18.679  0.00  0.00    +0.000 C 
BRANCH  22  23
ATOM     23  O   UNL     1       6.875   5.267  19.755  0.00  0.00    +0.000 OA
ATOM     24  H   UNL     1       5.927   5.515  19.676  0.00  0.00    +0.000 HD
ENDBRANCH  22  23
ENDBRANCH  20  22
ENDBRANCH  19  20
ENDBRANCH   1  19
TORSDOF 6
ENDMDL
MODEL 5
REMARK VINA RESULT:      -8.1      2.158      2.834
REMARK  Name = 
REMARK  6 active torsions:
REMARK  status: ('A' for Active; 'I' for Inactive)
REMARK    1  A    between atoms: C_2  and  O_3
REMARK    2  A    between atoms: C_2  and  C_4
REMARK    3  A    between atoms: C_4  and  S_5
REMARK    4  A    between atoms: S_5  and  C_6
REMARK    5  A    between atoms: C_9  and  C_10
REMARK    6  A    between atoms: C_16  and  C_17
REMARK                            x       y       z     vdW  Elec       q    Type
REMARK                         _______ _______ _______ _____ _____    ______ ____
ROOT
ATOM      1  C   UNL     1       5.426   5.161  16.519  0.00  0.00    +0.000 A 
ATOM      2  N   UNL     1       5.294   6.480  16.297  0.00  0.00    +0.000 NA
ATOM      3  N   UNL     1       4.304   7.172  16.925  0.00  0.00    +0.000 NA
ATOM      4  C   UNL     1       3.481   6.539  17.790  0.00  0.00    +0.000 A 
ATOM      5  C   UNL     1       3.610   5.148  17.938  0.00  0.00    +0.000 A 
ATOM      6  N   UNL     1       4.589   4.437  17.291  0.00  0.00    +0.000 NA
ENDROOT
BRANCH   4   7
ATOM      7  C   UNL     1       2.567   7.443  18.519  0.00  0.00    +0.000 A 
ATOM      8  C   UNL     1       2.295   7.239  19.886  0.00  0.00    +0.000 A 
ATOM      9  C   UNL     1       1.475   8.115  20.605  0.00  0.00    +0.000 A 
ATOM     10  C   UNL     1       0.917   9.222  19.974  0.00  0.00    +0.000 A 
ATOM     11  C   UNL     1       1.134   9.425  18.617  0.00  0.00    +0.000 A 
ATOM     12  C   UNL     1       1.917   8.523  17.893  0.00  0.00    +0.000 A 
ENDBRANCH   4   7
BRANCH   5  13
ATOM     13  C   UNL     1       2.778   4.320  18.852  0.00  0.00    +0.000 A 
ATOM     14  C   UNL     1       1.485   3.880  18.510  0.00  0.00    +0.000 A 
ATOM     15  C   UNL     1       0.636   3.307  19.461  0.00  0.00    +0.000 A 
ATOM     16  C   UNL     1       1.089   3.081  20.756  0.00  0.00    +0.000 A 
ATOM     17  C   UNL     1       2.399   3.407  21.092  0.00  0.00    +0.000 A 
ATOM     18  C   UNL     1       3.233   4.021  20.152  0.00  0.00    +0.000 A 
ENDBRANCH   5  13
BRANCH   1  19
ATOM     19  S   UNL     1       6.878   4.390  15.856  0.00  0.00    +0.000 S 
BRANCH  19  20
ATOM     20  C   UNL     1       6.353   4.040  14.161  0.00  0.00    +0.000 C 
BRANCH  20  22
ATOM     21  O   UNL     1       7.308   4.420  11.976  0.00  0.00    +0.000 OA
ATOM     22  C   UNL     1       7.268   4.712  13.161  0.00  0.00    +0.000 C 
BRANCH  22  23
ATOM     23  O   UNL     1       8.055   5.671  13.695  0.00  0.00    +0.000 OA
ATOM     24  H   UNL     1       8.222   6.427  13.090  0.00  0.00    +0.000 HD
ENDBRANCH  22  23
ENDBRANCH  20  22
ENDBRANCH  19  20
ENDBRANCH   1  19
TORSDOF 6
ENDMDL
MODEL 6
REMARK VINA RESULT:      -8.0      2.000      2.517
REMARK  Name = 
REMARK  6 active torsions:
REMARK  status: ('A' for Active; 'I' for Inactive)
REMARK    1  A    between atoms: C_2  and  O_3
REMARK    2  A    between atoms: C_2  and  C_4
REMARK    3  A    between atoms: C_4  and  S_5
REMARK    4  A    between atoms: S_5  and  C_6
REMARK    5  A    between atoms: C_9  and  C_10
REMARK    6  A    between atoms: C_16  and  C_17
REMARK                            x       y       z     vdW  Elec       q    Type
REMARK                         _______ _______ _______ _____ _____    ______ ____
ROOT
ATOM      1  C   UNL     1       5.219   5.232  16.792  0.00  0.00    +0.000 A 
ATOM      2  N   UNL     1       5.099   6.531  16.468  0.00  0.00    +0.000 NA
ATOM      3  N   UNL     1       4.111   7.276  17.034  0.00  0.00    +0.000 NA
ATOM      4  C   UNL     1       3.278   6.718  17.940  0.00  0.00    +0.000 A 
ATOM      5  C   UNL     1       3.395   5.342  18.196  0.00  0.00    +0.000 A 
ATOM      6  N   UNL     1       4.371   4.576  17.612  0.00  0.00    +0.000 NA
ENDROOT
BRANCH   4   7
ATOM      7  C   UNL     1       2.366   7.682  18.592  0.00  0.00    +0.000 A 
ATOM      8  C   UNL     1       2.092   7.592  19.970  0.00  0.00    +0.000 A 
ATOM      9  C   UNL     1       1.275   8.527  20.614  0.00  0.00    +0.000 A 
ATOM     10  C   UNL     1       0.722   9.582  19.894  0.00  0.00    +0.000 A 
ATOM     11  C   UNL     1       0.942   9.673  18.525  0.00  0.00    +0.000 A 
ATOM     12  C   UNL     1       1.722   8.711  17.878  0.00  0.00    +0.000 A 
ENDBRANCH   4   7
BRANCH   5  13
ATOM     13  C   UNL     1       2.550   4.593  19.165  0.00  0.00    +0.000 A 
ATOM     14  C   UNL     1       2.877   4.485  20.530  0.00  0.00    +0.000 A 
ATOM     15  C   UNL     1       2.205   3.593  21.371  0.00  0.00    +0.000 A 
ATOM     16  C   UNL     1       1.133   2.850  20.887  0.00  0.00    +0.000 A 
ATOM     17  C   UNL     1       0.720   3.018  19.569  0.00  0.00    +0.000 A 
ATOM     18  C   UNL     1       1.421   3.877  18.718  0.00  0.00    +0.000 A 
ENDBRANCH   5  13
BRANCH   1  19
ATOM     19  S   UNL     1       6.669   4.401  16.200  0.00  0.00    +0.000 S 
BRANCH  19  20
ATOM     20  C   UNL     1       6.168   3.966  14.517  0.00  0.00    +0.000 C 
BRANCH  20  22
ATOM     21  O   UNL     1       7.130   4.276  12.325  0.00  0.00    +0.000 OA
ATOM     22  C   UNL     1       7.077   4.613  13.497  0.00  0.00    +0.000 C 
BRANCH  22  23
ATOM     23  O   UNL     1       7.845   5.605  13.997  0.00  0.00    +0.000 OA
ATOM     24  H   UNL     1       8.080   5.485  14.944  0.00  0.00    +0.000 HD
ENDBRANCH  22  23
ENDBRANCH  20  22
ENDBRANCH  19  20
ENDBRANCH   1  19
TORSDOF 6
ENDMDL
MODEL 7
REMARK VINA RESULT:      -8.0      2.003      2.230
REMARK  Name = 
REMARK  6 active torsions:
REMARK  status: ('A' for Active; 'I' for Inactive)
REMARK    1  A    between atoms: C_2  and  O_3
REMARK    2  A    between atoms: C_2  and  C_4
REMARK    3  A    between atoms: C_4  and  S_5
REMARK    4  A    between atoms: S_5  and  C_6
REMARK    5  A    between atoms: C_9  and  C_10
REMARK    6  A    between atoms: C_16  and  C_17
REMARK                            x       y       z     vdW  Elec       q    Type
REMARK                         _______ _______ _______ _____ _____    ______ ____
ROOT
ATOM      1  C   UNL     1       5.320   5.473  17.085  0.00  0.00    +0.000 A 
ATOM      2  N   UNL     1       5.196   6.774  16.770  0.00  0.00    +0.000 NA
ATOM      3  N   UNL     1       4.159   7.493  17.278  0.00  0.00    +0.000 NA
ATOM      4  C   UNL     1       3.278   6.907  18.119  0.00  0.00    +0.000 A 
ATOM      5  C   UNL     1       3.405   5.529  18.366  0.00  0.00    +0.000 A 
ATOM      6  N   UNL     1       4.433   4.790  17.838  0.00  0.00    +0.000 NA
ENDROOT
BRANCH   4   7
ATOM      7  C   UNL     1       2.306   7.844  18.721  0.00  0.00    +0.000 A 
ATOM      8  C   UNL     1       1.664   8.817  17.931  0.00  0.00    +0.000 A 
ATOM      9  C   UNL     1       0.701   9.676  18.472  0.00  0.00    +0.000 A 
ATOM     10  C   UNL     1       0.352   9.573  19.815  0.00  0.00    +0.000 A 
ATOM     11  C   UNL     1       1.000   8.651  20.628  0.00  0.00    +0.000 A 
ATOM     12  C   UNL     1       1.992   7.826  20.093  0.00  0.00    +0.000 A 
ENDBRANCH   4   7
BRANCH   5  13
ATOM     13  C   UNL     1       2.513   4.751  19.267  0.00  0.00    +0.000 A 
ATOM     14  C   UNL     1       2.741   4.645  20.652  0.00  0.00    +0.000 A 
ATOM     15  C   UNL     1       2.035   3.730  21.437  0.00  0.00    +0.000 A 
ATOM     16  C   UNL     1       1.024   2.959  20.873  0.00  0.00    +0.000 A 
ATOM     17  C   UNL     1       0.705   3.122  19.529  0.00  0.00    +0.000 A 
ATOM     18  C   UNL     1       1.442   4.005  18.735  0.00  0.00    +0.000 A 
ENDBRANCH   5  13
BRANCH   1  19
ATOM     19  S   UNL     1       6.823   4.678  16.581  0.00  0.00    +0.000 S 
BRANCH  19  20
ATOM     20  C   UNL     1       6.232   3.621  15.237  0.00  0.00    +0.000 C 
BRANCH  20  22
ATOM     21  O   UNL     1       7.273   5.209  13.746  0.00  0.00    +0.000 OA
ATOM     22  C   UNL     1       6.673   4.156  13.893  0.00  0.00    +0.000 C 
BRANCH  22  23
ATOM     23  O   UNL     1       6.337   3.366  12.850  0.00  0.00    +0.000 OA
ATOM     24  H   UNL     1       7.056   3.256  12.190  0.00  0.00    +0.000 HD
ENDBRANCH  22  23
ENDBRANCH  20  22
ENDBRANCH  19  20
ENDBRANCH   1  19
TORSDOF 6
ENDMDL
MODEL 8
REMARK VINA RESULT:      -7.9      2.711      3.288
REMARK  Name = 
REMARK  6 active torsions:
REMARK  status: ('A' for Active; 'I' for Inactive)
REMARK    1  A    between atoms: C_2  and  O_3
REMARK    2  A    between atoms: C_2  and  C_4
REMARK    3  A    between atoms: C_4  and  S_5
REMARK    4  A    between atoms: S_5  and  C_6
REMARK    5  A    between atoms: C_9  and  C_10
REMARK    6  A    between atoms: C_16  and  C_17
REMARK                            x       y       z     vdW  Elec       q    Type
REMARK                         _______ _______ _______ _____ _____    ______ ____
ROOT
ATOM      1  C   UNL     1       5.313   5.134  15.881  0.00  0.00    +0.000 A 
ATOM      2  N   UNL     1       5.188   6.470  15.806  0.00  0.00    +0.000 NA
ATOM      3  N   UNL     1       4.279   7.106  16.593  0.00  0.00    +0.000 NA
ATOM      4  C   UNL     1       3.529   6.398  17.466  0.00  0.00    +0.000 A 
ATOM      5  C   UNL     1       3.641   4.997  17.462  0.00  0.00    +0.000 A 
ATOM      6  N   UNL     1       4.538   4.345  16.654  0.00  0.00    +0.000 NA
ENDROOT
BRANCH   4   7
ATOM      7  C   UNL     1       2.708   7.233  18.369  0.00  0.00    +0.000 A 
ATOM      8  C   UNL     1       2.506   6.856  19.710  0.00  0.00    +0.000 A 
ATOM      9  C   UNL     1       1.778   7.661  20.592  0.00  0.00    +0.000 A 
ATOM     10  C   UNL     1       1.243   8.868  20.153  0.00  0.00    +0.000 A 
ATOM     11  C   UNL     1       1.390   9.246  18.824  0.00  0.00    +0.000 A 
ATOM     12  C   UNL     1       2.080   8.417  17.936  0.00  0.00    +0.000 A 
ENDBRANCH   4   7
BRANCH   5  13
ATOM     13  C   UNL     1       2.883   4.091  18.364  0.00  0.00    +0.000 A 
ATOM     14  C   UNL     1       1.536   3.748  18.137  0.00  0.00    +0.000 A 
ATOM     15  C   UNL     1       0.779   3.090  19.111  0.00  0.00    +0.000 A 
ATOM     16  C   UNL     1       1.373   2.681  20.300  0.00  0.00    +0.000 A 
ATOM     17  C   UNL     1       2.730   2.910  20.504  0.00  0.00    +0.000 A 
ATOM     18  C   UNL     1       3.475   3.609  19.549  0.00  0.00    +0.000 A 
ENDBRANCH   5  13
BRANCH   1  19
ATOM     19  S   UNL     1       6.679   4.418  15.006  0.00  0.00    +0.000 S 
BRANCH  19  20
ATOM     20  C   UNL     1       5.854   3.765  13.533  0.00  0.00    +0.000 C 
BRANCH  20  22
ATOM     21  O   UNL     1       7.463   4.624  11.952  0.00  0.00    +0.000 OA
ATOM     22  C   UNL     1       6.815   3.678  12.369  0.00  0.00    +0.000 C 
BRANCH  22  23
ATOM     23  O   UNL     1       6.893   2.449  11.813  0.00  0.00    +0.000 OA
ATOM     24  H   UNL     1       7.203   2.456  10.880  0.00  0.00    +0.000 HD
ENDBRANCH  22  23
ENDBRANCH  20  22
ENDBRANCH  19  20
ENDBRANCH   1  19
TORSDOF 6
ENDMDL
MODEL 9
REMARK VINA RESULT:      -7.8      2.472      2.852
REMARK  Name = 
REMARK  6 active torsions:
REMARK  status: ('A' for Active; 'I' for Inactive)
REMARK    1  A    between atoms: C_2  and  O_3
REMARK    2  A    between atoms: C_2  and  C_4
REMARK    3  A    between atoms: C_4  and  S_5
REMARK    4  A    between atoms: S_5  and  C_6
REMARK    5  A    between atoms: C_9  and  C_10
REMARK    6  A    between atoms: C_16  and  C_17
REMARK                            x       y       z     vdW  Elec       q    Type
REMARK                         _______ _______ _______ _____ _____    ______ ____
ROOT
ATOM      1  C   UNL     1       5.306   4.855  16.343  0.00  0.00    +0.000 A 
ATOM      2  N   UNL     1       5.229   6.176  16.112  0.00  0.00    +0.000 NA
ATOM      3  N   UNL     1       4.314   6.924  16.787  0.00  0.00    +0.000 NA
ATOM      4  C   UNL     1       3.512   6.343  17.706  0.00  0.00    +0.000 A 
ATOM      5  C   UNL     1       3.578   4.949  17.865  0.00  0.00    +0.000 A 
ATOM      6  N   UNL     1       4.480   4.182  17.171  0.00  0.00    +0.000 NA
ENDROOT
BRANCH   4   7
ATOM      7  C   UNL     1       2.688   7.300  18.476  0.00  0.00    +0.000 A 
ATOM      8  C   UNL     1       2.171   8.457  17.863  0.00  0.00    +0.000 A 
ATOM      9  C   UNL     1       1.346   9.346  18.561  0.00  0.00    +0.000 A 
ATOM     10  C   UNL     1       1.010   9.088  19.886  0.00  0.00    +0.000 A 
ATOM     11  C   UNL     1       1.539   7.976  20.529  0.00  0.00    +0.000 A 
ATOM     12  C   UNL     1       2.398   7.116  19.841  0.00  0.00    +0.000 A 
ENDBRANCH   4   7
BRANCH   5  13
ATOM     13  C   UNL     1       2.759   4.174  18.835  0.00  0.00    +0.000 A 
ATOM     14  C   UNL     1       1.423   3.809  18.579  0.00  0.00    +0.000 A 
ATOM     15  C   UNL     1       0.605   3.290  19.586  0.00  0.00    +0.000 A 
ATOM     16  C   UNL     1       1.126   3.042  20.851  0.00  0.00    +0.000 A 
ATOM     17  C   UNL     1       2.471   3.293  21.101  0.00  0.00    +0.000 A 
ATOM     18  C   UNL     1       3.278   3.854  20.106  0.00  0.00    +0.000 A 
ENDBRANCH   5  13
BRANCH   1  19
ATOM     19  S   UNL     1       6.677   4.003  15.608  0.00  0.00    +0.000 S 
BRANCH  19  20
ATOM     20  C   UNL     1       6.908   4.950  14.084  0.00  0.00    +0.000 C 
BRANCH  20  22
ATOM     21  O   UNL     1       7.309   4.309  11.791  0.00  0.00    +0.000 OA
ATOM     22  C   UNL     1       6.793   4.058  12.868  0.00  0.00    +0.000 C 
BRANCH  22  23
ATOM     23  O   UNL     1       6.054   2.946  13.072  0.00  0.00    +0.000 OA
ATOM     24  H   UNL     1       6.551   2.110  12.931  0.00  0.00    +0.000 HD
ENDBRANCH  22  23
ENDBRANCH  20  22
ENDBRANCH  19  20
ENDBRANCH   1  19
TORSDOF 6
ENDMDL
