MODEL 1
REMARK VINA RESULT:      -9.2      0.000      0.000
REMARK  Name = 
REMARK  3 active torsions:
REMARK  status: ('A' for Active; 'I' for Inactive)
REMARK    1  A    between atoms: C_2  and  C_4
REMARK    2  A    between atoms: C_12  and  C_13
REMARK    3  A    between atoms: C_16  and  C_17
REMARK                            x       y       z     vdW  Elec       q    Type
REMARK                         _______ _______ _______ _____ _____    ______ ____
ROOT
ATOM      1  C   UNL     1       2.322   7.913  18.533  0.00  0.00    +0.000 A 
ATOM      2  C   UNL     1       2.112   7.629  19.888  0.00  0.00    +0.000 A 
ATOM      3  C   UNL     1       1.368   8.504  20.688  0.00  0.00    +0.000 A 
ATOM      4  C   UNL     1       0.844   9.680  20.140  0.00  0.00    +0.000 A 
ATOM      5  C   UNL     1       1.091   9.968  18.791  0.00  0.00    +0.000 A 
ATOM      6  C   UNL     1       1.779   9.070  17.979  0.00  0.00    +0.000 A 
ENDROOT
BRANCH   4   7
ATOM      7  C   UNL     1       0.162  10.660  21.033  0.00  0.00    +0.000 C 
ATOM      8  O   UNL     1      -0.142  10.287  22.166  0.00  0.00    +0.000 OA
ATOM      9  N   UNL     1      -0.055  11.960  20.592  0.00  0.00    +0.000 N 
ATOM     10  C   UNL     1      -0.418  13.006  21.570  0.00  0.00    +0.000 C 
ATOM     11  C   UNL     1       0.437  14.281  21.358  0.00  0.00    +0.000 C 
ATOM     12  N   UNL     1       0.309  14.671  19.950  0.00  0.00    +0.000 N 
ATOM     13  C   UNL     1       0.207  15.990  19.582  0.00  0.00    +0.000 A 
ATOM     14  C   UNL     1      -0.492  16.317  18.417  0.00  0.00    +0.000 A 
ATOM     15  C   UNL     1      -0.648  17.641  18.037  0.00  0.00    +0.000 A 
ATOM     16  C   UNL     1      -0.091  18.629  18.829  0.00  0.00    +0.000 A 
ATOM     17  C   UNL     1       0.584  18.239  19.973  0.00  0.00    +0.000 A 
ATOM     18  N   UNL     1       0.726  16.952  20.371  0.00  0.00    +0.000 NA
ATOM     19  C   UNL     1       0.722  13.666  18.973  0.00  0.00    +0.000 C 
ATOM     20  C   UNL     1      -0.137  12.409  19.191  0.00  0.00    +0.000 C 
ENDBRANCH   4   7
BRANCH   1  29
ATOM     21  C   UNL     1       2.488   2.669  19.590  0.00  0.00    +0.000 A 
ATOM     22  C   UNL     1       3.025   1.400  19.323  0.00  0.00    +0.000 A 
ATOM     23  C   UNL     1       3.955   1.198  18.281  0.00  0.00    +0.000 A 
ATOM     24  C   UNL     1       4.366   2.263  17.478  0.00  0.00    +0.000 A 
ATOM     25  C   UNL     1       3.831   3.504  17.758  0.00  0.00    +0.000 A 
ATOM     26  C   UNL     1       2.920   3.719  18.797  0.00  0.00    +0.000 A 
ATOM     27  O   UNL     1       2.539   5.033  18.904  0.00  0.00    +0.000 OA
ATOM     28  C   UNL     1       3.220   5.719  17.909  0.00  0.00    +0.000 C 
ATOM     29  C   UNL     1       3.142   7.036  17.702  0.00  0.00    +0.000 C 
ATOM     30  C   UNL     1       4.067   4.793  17.115  0.00  0.00    +0.000 C 
ATOM     31  O   UNL     1       4.782   5.032  16.173  0.00  0.00    +0.000 OA
BRANCH  21  33
ATOM     32  N   UNL     1       0.334   3.490  20.413  0.00  0.00    +0.000 N 
ATOM     33  C   UNL     1       1.500   2.832  20.686  0.00  0.00    +0.000 C 
ATOM     34  O   UNL     1       1.717   2.387  21.806  0.00  0.00    +0.000 OA
ATOM     35  H   UNL     1      -0.327   3.617  21.168  0.00  0.00    +0.000 HD
ATOM     36  H   UNL     1       0.119   3.893  19.511  0.00  0.00    +0.000 HD
ENDBRANCH  21  33
ENDBRANCH   1  29
TORSDOF 3
ENDMDL
MODEL 2
REMARK VINA RESULT:      -9.2      1.559      1.679
REMARK  Name = 
REMARK  3 active torsions:
REMARK  status: ('A' for Active; 'I' for Inactive)
REMARK    1  A    between atoms: C_2  and  C_4
REMARK    2  A    between atoms: C_12  and  C_13
REMARK    3  A    between atoms: C_16  and  C_17
REMARK                            x       y       z     vdW  Elec       q    Type
REMARK                         _______ _______ _______ _____ _____    ______ ____
ROOT
ATOM      1  C   UNL     1       1.805   8.487  19.303  0.00  0.00    +0.000 A 
ATOM      2  C   UNL     1       1.712   7.997  20.612  0.00  0.00    +0.000 A 
ATOM      3  C   UNL     1       0.887   8.632  21.548  0.00  0.00    +0.000 A 
ATOM      4  C   UNL     1       0.164   9.773  21.185  0.00  0.00    +0.000 A 
ATOM      5  C   UNL     1       0.293  10.271  19.882  0.00  0.00    +0.000 A 
ATOM      6  C   UNL     1       1.065   9.607  18.932  0.00  0.00    +0.000 A 
ENDROOT
BRANCH   4   7
ATOM      7  C   UNL     1      -0.611  10.507  22.225  0.00  0.00    +0.000 C 
ATOM      8  O   UNL     1      -0.791   9.948  23.307  0.00  0.00    +0.000 OA
ATOM      9  N   UNL     1      -1.050  11.802  21.974  0.00  0.00    +0.000 N 
ATOM     10  C   UNL     1      -1.515  12.641  23.097  0.00  0.00    +0.000 C 
ATOM     11  C   UNL     1      -0.879  14.053  23.031  0.00  0.00    +0.000 C 
ATOM     12  N   UNL     1      -1.144  14.596  21.695  0.00  0.00    +0.000 N 
ATOM     13  C   UNL     1      -1.468  15.918  21.513  0.00  0.00    +0.000 A 
ATOM     14  C   UNL     1      -2.272  16.277  20.428  0.00  0.00    +0.000 A 
ATOM     15  C   UNL     1      -2.651  17.596  20.237  0.00  0.00    +0.000 A 
ATOM     16  C   UNL     1      -2.210  18.550  21.137  0.00  0.00    +0.000 A 
ATOM     17  C   UNL     1      -1.421  18.129  22.194  0.00  0.00    +0.000 A 
ATOM     18  N   UNL     1      -1.061  16.841  22.407  0.00  0.00    +0.000 NA
ATOM     19  C   UNL     1      -0.635  13.804  20.576  0.00  0.00    +0.000 C 
ATOM     20  C   UNL     1      -1.277  12.409  20.650  0.00  0.00    +0.000 C 
ENDBRANCH   4   7
BRANCH   1  29
ATOM     21  C   UNL     1       2.468   3.176  19.339  0.00  0.00    +0.000 A 
ATOM     22  C   UNL     1       3.123   2.037  18.842  0.00  0.00    +0.000 A 
ATOM     23  C   UNL     1       4.066   2.128  17.797  0.00  0.00    +0.000 A 
ATOM     24  C   UNL     1       4.374   3.361  17.220  0.00  0.00    +0.000 A 
ATOM     25  C   UNL     1       3.724   4.469  17.723  0.00  0.00    +0.000 A 
ATOM     26  C   UNL     1       2.798   4.395  18.768  0.00  0.00    +0.000 A 
ATOM     27  O   UNL     1       2.295   5.622  19.119  0.00  0.00    +0.000 OA
ATOM     28  C   UNL     1       2.906   6.547  18.286  0.00  0.00    +0.000 C 
ATOM     29  C   UNL     1       2.703   7.867  18.334  0.00  0.00    +0.000 C 
ATOM     30  C   UNL     1       3.836   5.875  17.343  0.00  0.00    +0.000 C 
ATOM     31  O   UNL     1       4.524   6.356  16.477  0.00  0.00    +0.000 OA
BRANCH  21  33
ATOM     32  N   UNL     1       0.251   3.626  20.270  0.00  0.00    +0.000 N 
ATOM     33  C   UNL     1       1.471   3.033  20.428  0.00  0.00    +0.000 C 
ATOM     34  O   UNL     1       1.727   2.395  21.442  0.00  0.00    +0.000 OA
ATOM     35  H   UNL     1      -0.418   3.544  21.024  0.00  0.00    +0.000 HD
ATOM     36  H   UNL     1      -0.000   4.180  19.462  0.00  0.00    +0.000 HD
ENDBRANCH  21  33
ENDBRANCH   1  29
TORSDOF 3
ENDMDL
MODEL 3
REMARK VINA RESULT:      -8.9      2.582      3.199
REMARK  Name = 
REMARK  3 active torsions:
REMARK  status: ('A' for Active; 'I' for Inactive)
REMARK    1  A    between atoms: C_2  and  C_4
REMARK    2  A    between atoms: C_12  and  C_13
REMARK    3  A    between atoms: C_16  and  C_17
REMARK                            x       y       z     vdW  Elec       q    Type
REMARK                         _______ _______ _______ _____ _____    ______ ____
ROOT
ATOM      1  C   UNL     1       1.949   8.595  18.523  0.00  0.00    +0.000 A 
ATOM      2  C   UNL     1       1.466   8.799  19.821  0.00  0.00    +0.000 A 
ATOM      3  C   UNL     1       0.268   9.492  20.030  0.00  0.00    +0.000 A 
ATOM      4  C   UNL     1      -0.447  10.001  18.939  0.00  0.00    +0.000 A 
ATOM      5  C   UNL     1       0.066   9.818  17.648  0.00  0.00    +0.000 A 
ATOM      6  C   UNL     1       1.226   9.077  17.434  0.00  0.00    +0.000 A 
ENDROOT
BRANCH   4   7
ATOM      7  C   UNL     1      -1.654  10.841  19.185  0.00  0.00    +0.000 C 
ATOM      8  O   UNL     1      -2.689  10.545  18.589  0.00  0.00    +0.000 OA
ATOM      9  N   UNL     1      -1.595  11.878  20.109  0.00  0.00    +0.000 N 
ATOM     10  C   UNL     1      -2.850  12.487  20.595  0.00  0.00    +0.000 C 
ATOM     11  C   UNL     1      -2.836  12.621  22.140  0.00  0.00    +0.000 C 
ATOM     12  N   UNL     1      -1.610  13.336  22.510  0.00  0.00    +0.000 N 
ATOM     13  C   UNL     1      -1.608  14.275  23.512  0.00  0.00    +0.000 A 
ATOM     14  C   UNL     1      -0.686  15.325  23.455  0.00  0.00    +0.000 A 
ATOM     15  C   UNL     1      -0.683  16.312  24.428  0.00  0.00    +0.000 A 
ATOM     16  C   UNL     1      -1.601  16.232  25.460  0.00  0.00    +0.000 A 
ATOM     17  C   UNL     1      -2.490  15.170  25.454  0.00  0.00    +0.000 A 
ATOM     18  N   UNL     1      -2.522  14.210  24.500  0.00  0.00    +0.000 NA
ATOM     19  C   UNL     1      -0.358  12.711  22.086  0.00  0.00    +0.000 C 
ATOM     20  C   UNL     1      -0.383  12.589  20.553  0.00  0.00    +0.000 C 
ENDBRANCH   4   7
BRANCH   1  29
ATOM     21  C   UNL     1       2.257   3.276  19.033  0.00  0.00    +0.000 A 
ATOM     22  C   UNL     1       3.035   2.107  19.047  0.00  0.00    +0.000 A 
ATOM     23  C   UNL     1       4.419   2.141  18.775  0.00  0.00    +0.000 A 
ATOM     24  C   UNL     1       5.058   3.347  18.478  0.00  0.00    +0.000 A 
ATOM     25  C   UNL     1       4.279   4.485  18.474  0.00  0.00    +0.000 A 
ATOM     26  C   UNL     1       2.909   4.467  18.755  0.00  0.00    +0.000 A 
ATOM     27  O   UNL     1       2.343   5.716  18.715  0.00  0.00    +0.000 OA
ATOM     28  C   UNL     1       3.366   6.598  18.400  0.00  0.00    +0.000 C 
ATOM     29  C   UNL     1       3.225   7.923  18.296  0.00  0.00    +0.000 C 
ATOM     30  C   UNL     1       4.649   5.874  18.214  0.00  0.00    +0.000 C 
ATOM     31  O   UNL     1       5.736   6.309  17.927  0.00  0.00    +0.000 OA
BRANCH  21  33
ATOM     32  N   UNL     1       0.303   3.898  20.368  0.00  0.00    +0.000 N 
ATOM     33  C   UNL     1       0.802   3.192  19.310  0.00  0.00    +0.000 C 
ATOM     34  O   UNL     1       0.061   2.515  18.607  0.00  0.00    +0.000 OA
ATOM     35  H   UNL     1      -0.686   3.821  20.565  0.00  0.00    +0.000 HD
ATOM     36  H   UNL     1       0.876   4.454  20.988  0.00  0.00    +0.000 HD
ENDBRANCH  21  33
ENDBRANCH   1  29
TORSDOF 3
ENDMDL
MODEL 4
REMARK VINA RESULT:      -8.8      1.759      2.036
REMARK  Name = 
REMARK  3 active torsions:
REMARK  status: ('A' for Active; 'I' for Inactive)
REMARK    1  A    between atoms: C_2  and  C_4
REMARK    2  A    between atoms: C_12  and  C_13
REMARK    3  A    between atoms: C_16  and  C_17
REMARK                            x       y       z     vdW  Elec       q    Type
REMARK                         _______ _______ _______ _____ _____    ______ ____
ROOT
ATOM      1  C   UNL     1       2.148   8.452  18.360  0.00  0.00    +0.000 A 
ATOM      2  C   UNL     1       1.967   8.495  19.747  0.00  0.00    +0.000 A 
ATOM      3  C   UNL     1       0.955   9.285  20.306  0.00  0.00    +0.000 A 
ATOM      4  C   UNL     1       0.127  10.052  19.477  0.00  0.00    +0.000 A 
ATOM      5  C   UNL     1       0.342  10.025  18.093  0.00  0.00    +0.000 A 
ATOM      6  C   UNL     1       1.308   9.194  17.531  0.00  0.00    +0.000 A 
ENDROOT
BRANCH   4   7
ATOM      7  C   UNL     1      -0.863  10.980  20.094  0.00  0.00    +0.000 C 
ATOM      8  O   UNL     1      -1.991  10.545  20.324  0.00  0.00    +0.000 OA
ATOM      9  N   UNL     1      -0.476  12.270  20.442  0.00  0.00    +0.000 N 
ATOM     10  C   UNL     1      -1.335  13.067  21.341  0.00  0.00    +0.000 C 
ATOM     11  C   UNL     1      -0.497  13.727  22.465  0.00  0.00    +0.000 C 
ATOM     12  N   UNL     1       0.595  14.467  21.825  0.00  0.00    +0.000 N 
ATOM     13  C   UNL     1       0.995  15.694  22.294  0.00  0.00    +0.000 A 
ATOM     14  C   UNL     1       1.549  16.616  21.401  0.00  0.00    +0.000 A 
ATOM     15  C   UNL     1       1.926  17.877  21.833  0.00  0.00    +0.000 A 
ATOM     16  C   UNL     1       1.754  18.202  23.166  0.00  0.00    +0.000 A 
ATOM     17  C   UNL     1       1.195  17.246  23.999  0.00  0.00    +0.000 A 
ATOM     18  N   UNL     1       0.799  16.018  23.588  0.00  0.00    +0.000 NA
ATOM     19  C   UNL     1       1.490  13.677  20.980  0.00  0.00    +0.000 C 
ATOM     20  C   UNL     1       0.647  13.033  19.867  0.00  0.00    +0.000 C 
ENDBRANCH   4   7
BRANCH   1  29
ATOM     21  C   UNL     1       2.102   3.116  18.764  0.00  0.00    +0.000 A 
ATOM     22  C   UNL     1       2.740   1.883  18.551  0.00  0.00    +0.000 A 
ATOM     23  C   UNL     1       3.981   1.802  17.885  0.00  0.00    +0.000 A 
ATOM     24  C   UNL     1       4.613   2.953  17.413  0.00  0.00    +0.000 A 
ATOM     25  C   UNL     1       3.974   4.156  17.635  0.00  0.00    +0.000 A 
ATOM     26  C   UNL     1       2.750   4.251  18.306  0.00  0.00    +0.000 A 
ATOM     27  O   UNL     1       2.315   5.546  18.431  0.00  0.00    +0.000 OA
ATOM     28  C   UNL     1       3.277   6.342  17.830  0.00  0.00    +0.000 C 
ATOM     29  C   UNL     1       3.234   7.676  17.770  0.00  0.00    +0.000 C 
ATOM     30  C   UNL     1       4.378   5.513  17.277  0.00  0.00    +0.000 C 
ATOM     31  O   UNL     1       5.369   5.858  16.682  0.00  0.00    +0.000 OA
BRANCH  21  33
ATOM     32  N   UNL     1       0.625   4.038  20.483  0.00  0.00    +0.000 N 
ATOM     33  C   UNL     1       0.789   3.154  19.455  0.00  0.00    +0.000 C 
ATOM     34  O   UNL     1      -0.128   2.418  19.113  0.00  0.00    +0.000 OA
ATOM     35  H   UNL     1      -0.264   4.046  20.965  0.00  0.00    +0.000 HD
ATOM     36  H   UNL     1       1.358   4.651  20.815  0.00  0.00    +0.000 HD
ENDBRANCH  21  33
ENDBRANCH   1  29
TORSDOF 3
ENDMDL
MODEL 5
REMARK VINA RESULT:      -8.8      6.195      9.416
REMARK  Name = 
REMARK  3 active torsions:
REMARK  status: ('A' for Active; 'I' for Inactive)
REMARK    1  A    between atoms: C_2  and  C_4
REMARK    2  A    between atoms: C_12  and  C_13
REMARK    3  A    between atoms: C_16  and  C_17
REMARK                            x       y       z     vdW  Elec       q    Type
REMARK                         _______ _______ _______ _____ _____    ______ ____
ROOT
ATOM      1  C   UNL     1       4.272  15.453  19.063  0.00  0.00    +0.000 A 
ATOM      2  C   UNL     1       3.576  14.998  17.936  0.00  0.00    +0.000 A 
ATOM      3  C   UNL     1       2.594  14.009  18.062  0.00  0.00    +0.000 A 
ATOM      4  C   UNL     1       2.313  13.456  19.317  0.00  0.00    +0.000 A 
ATOM      5  C   UNL     1       3.041  13.897  20.430  0.00  0.00    +0.000 A 
ATOM      6  C   UNL     1       3.975  14.923  20.317  0.00  0.00    +0.000 A 
ENDROOT
BRANCH   4   7
ATOM      7  C   UNL     1       1.354  12.319  19.414  0.00  0.00    +0.000 C 
ATOM      8  O   UNL     1       1.718  11.223  18.987  0.00  0.00    +0.000 OA
ATOM      9  N   UNL     1       0.121  12.507  20.028  0.00  0.00    +0.000 N 
ATOM     10  C   UNL     1      -0.681  11.331  20.422  0.00  0.00    +0.000 C 
ATOM     11  C   UNL     1      -1.206  11.480  21.872  0.00  0.00    +0.000 C 
ATOM     12  N   UNL     1      -1.902  12.768  21.960  0.00  0.00    +0.000 N 
ATOM     13  C   UNL     1      -3.064  12.902  22.679  0.00  0.00    +0.000 A 
ATOM     14  C   UNL     1      -3.996  13.868  22.288  0.00  0.00    +0.000 A 
ATOM     15  C   UNL     1      -5.197  14.004  22.966  0.00  0.00    +0.000 A 
ATOM     16  C   UNL     1      -5.450  13.171  24.042  0.00  0.00    +0.000 A 
ATOM     17  C   UNL     1      -4.489  12.231  24.374  0.00  0.00    +0.000 A 
ATOM     18  N   UNL     1      -3.321  12.070  23.708  0.00  0.00    +0.000 NA
ATOM     19  C   UNL     1      -1.102  13.946  21.631  0.00  0.00    +0.000 C 
ATOM     20  C   UNL     1      -0.592  13.788  20.190  0.00  0.00    +0.000 C 
ENDBRANCH   4   7
BRANCH   1  29
ATOM     21  C   UNL     1       9.247  13.850  17.914  0.00  0.00    +0.000 A 
ATOM     22  C   UNL     1      10.605  14.160  17.737  0.00  0.00    +0.000 A 
ATOM     23  C   UNL     1      11.074  15.489  17.819  0.00  0.00    +0.000 A 
ATOM     24  C   UNL     1      10.192  16.540  18.076  0.00  0.00    +0.000 A 
ATOM     25  C   UNL     1       8.863  16.216  18.253  0.00  0.00    +0.000 A 
ATOM     26  C   UNL     1       8.388  14.902  18.188  0.00  0.00    +0.000 A 
ATOM     27  O   UNL     1       7.038  14.815  18.416  0.00  0.00    +0.000 OA
ATOM     28  C   UNL     1       6.596  16.110  18.644  0.00  0.00    +0.000 C 
ATOM     29  C   UNL     1       5.336  16.444  18.936  0.00  0.00    +0.000 C 
ATOM     30  C   UNL     1       7.719  17.076  18.541  0.00  0.00    +0.000 C 
ATOM     31  O   UNL     1       7.706  18.276  18.667  0.00  0.00    +0.000 OA
BRANCH  21  33
ATOM     32  N   UNL     1       7.669  12.178  17.076  0.00  0.00    +0.000 N 
ATOM     33  C   UNL     1       8.795  12.441  17.804  0.00  0.00    +0.000 C 
ATOM     34  O   UNL     1       9.415  11.532  18.343  0.00  0.00    +0.000 OA
ATOM     35  H   UNL     1       7.353  11.220  17.021  0.00  0.00    +0.000 HD
ATOM     36  H   UNL     1       7.112  12.896  16.631  0.00  0.00    +0.000 HD
ENDBRANCH  21  33
ENDBRANCH   1  29
TORSDOF 3
ENDMDL
MODEL 6
REMARK VINA RESULT:      -8.7      2.896      3.843
REMARK  Name = 
REMARK  3 active torsions:
REMARK  status: ('A' for Active; 'I' for Inactive)
REMARK    1  A    between atoms: C_2  and  C_4
REMARK    2  A    between atoms: C_12  and  C_13
REMARK    3  A    between atoms: C_16  and  C_17
REMARK                            x       y       z     vdW  Elec       q    Type
REMARK                         _______ _______ _______ _____ _____    ______ ____
ROOT
ATOM      1  C   UNL     1       2.579   8.204  18.345  0.00  0.00    +0.000 A 
ATOM      2  C   UNL     1       2.215   9.455  17.833  0.00  0.00    +0.000 A 
ATOM      3  C   UNL     1       1.485  10.356  18.618  0.00  0.00    +0.000 A 
ATOM      4  C   UNL     1       1.101  10.002  19.916  0.00  0.00    +0.000 A 
ATOM      5  C   UNL     1       1.444   8.734  20.403  0.00  0.00    +0.000 A 
ATOM      6  C   UNL     1       2.221   7.860  19.647  0.00  0.00    +0.000 A 
ENDROOT
BRANCH   4   7
ATOM      7  C   UNL     1       0.221  10.922  20.692  0.00  0.00    +0.000 C 
ATOM      8  O   UNL     1       0.738  11.589  21.589  0.00  0.00    +0.000 OA
ATOM      9  N   UNL     1      -1.120  11.046  20.350  0.00  0.00    +0.000 N 
ATOM     10  C   UNL     1      -1.903  12.179  20.883  0.00  0.00    +0.000 C 
ATOM     11  C   UNL     1      -2.720  12.864  19.757  0.00  0.00    +0.000 C 
ATOM     12  N   UNL     1      -3.505  11.824  19.085  0.00  0.00    +0.000 N 
ATOM     13  C   UNL     1      -4.795  12.056  18.677  0.00  0.00    +0.000 A 
ATOM     14  C   UNL     1      -5.692  10.986  18.616  0.00  0.00    +0.000 A 
ATOM     15  C   UNL     1      -7.011  11.191  18.247  0.00  0.00    +0.000 A 
ATOM     16  C   UNL     1      -7.421  12.475  17.930  0.00  0.00    +0.000 A 
ATOM     17  C   UNL     1      -6.485  13.492  18.016  0.00  0.00    +0.000 A 
ATOM     18  N   UNL     1      -5.199  13.312  18.397  0.00  0.00    +0.000 NA
ATOM     19  C   UNL     1      -2.737  10.726  18.500  0.00  0.00    +0.000 C 
ATOM     20  C   UNL     1      -1.936  10.053  19.627  0.00  0.00    +0.000 C 
ENDBRANCH   4   7
BRANCH   1  29
ATOM     21  C   UNL     1       2.451   3.016  19.654  0.00  0.00    +0.000 A 
ATOM     22  C   UNL     1       2.886   1.701  19.424  0.00  0.00    +0.000 A 
ATOM     23  C   UNL     1       3.742   1.387  18.347  0.00  0.00    +0.000 A 
ATOM     24  C   UNL     1       4.179   2.382  17.471  0.00  0.00    +0.000 A 
ATOM     25  C   UNL     1       3.745   3.669  17.715  0.00  0.00    +0.000 A 
ATOM     26  C   UNL     1       2.908   3.995  18.787  0.00  0.00    +0.000 A 
ATOM     27  O   UNL     1       2.623   5.336  18.848  0.00  0.00    +0.000 OA
ATOM     28  C   UNL     1       3.292   5.926  17.786  0.00  0.00    +0.000 C 
ATOM     29  C   UNL     1       3.292   7.234  17.518  0.00  0.00    +0.000 C 
ATOM     30  C   UNL     1       4.030   4.907  16.997  0.00  0.00    +0.000 C 
ATOM     31  O   UNL     1       4.707   5.051  16.009  0.00  0.00    +0.000 OA
BRANCH  21  33
ATOM     32  N   UNL     1       0.420   4.046  20.550  0.00  0.00    +0.000 N 
ATOM     33  C   UNL     1       1.538   3.299  20.790  0.00  0.00    +0.000 C 
ATOM     34  O   UNL     1       1.772   2.871  21.913  0.00  0.00    +0.000 OA
ATOM     35  H   UNL     1      -0.188   4.254  21.331  0.00  0.00    +0.000 HD
ATOM     36  H   UNL     1       0.194   4.439  19.646  0.00  0.00    +0.000 HD
ENDBRANCH  21  33
ENDBRANCH   1  29
TORSDOF 3
ENDMDL
MODEL 7
REMARK VINA RESULT:      -8.5      3.492     10.743
REMARK  Name = 
REMARK  3 active torsions:
REMARK  status: ('A' for Active; 'I' for Inactive)
REMARK    1  A    between atoms: C_2  and  C_4
REMARK    2  A    between atoms: C_12  and  C_13
REMARK    3  A    between atoms: C_16  and  C_17
REMARK                            x       y       z     vdW  Elec       q    Type
REMARK                         _______ _______ _______ _____ _____    ______ ____
ROOT
ATOM      1  C   UNL     1       0.636   9.569  19.370  0.00  0.00    +0.000 A 
ATOM      2  C   UNL     1       0.960   8.894  20.553  0.00  0.00    +0.000 A 
ATOM      3  C   UNL     1       1.836   7.802  20.529  0.00  0.00    +0.000 A 
ATOM      4  C   UNL     1       2.381   7.368  19.315  0.00  0.00    +0.000 A 
ATOM      5  C   UNL     1       2.022   8.032  18.135  0.00  0.00    +0.000 A 
ATOM      6  C   UNL     1       1.198   9.155  18.164  0.00  0.00    +0.000 A 
ENDROOT
BRANCH   4   7
ATOM      7  C   UNL     1       3.213   6.131  19.290  0.00  0.00    +0.000 C 
ATOM      8  O   UNL     1       3.044   5.309  20.190  0.00  0.00    +0.000 OA
ATOM      9  N   UNL     1       4.097   5.915  18.240  0.00  0.00    +0.000 N 
ATOM     10  C   UNL     1       4.665   4.567  18.036  0.00  0.00    +0.000 C 
ATOM     11  C   UNL     1       4.565   4.145  16.547  0.00  0.00    +0.000 C 
ATOM     12  N   UNL     1       5.176   5.209  15.744  0.00  0.00    +0.000 N 
ATOM     13  C   UNL     1       5.953   4.918  14.650  0.00  0.00    +0.000 A 
ATOM     14  C   UNL     1       6.970   5.806  14.284  0.00  0.00    +0.000 A 
ATOM     15  C   UNL     1       7.798   5.524  13.210  0.00  0.00    +0.000 A 
ATOM     16  C   UNL     1       7.593   4.354  12.501  0.00  0.00    +0.000 A 
ATOM     17  C   UNL     1       6.573   3.515  12.918  0.00  0.00    +0.000 A 
ATOM     18  N   UNL     1       5.770   3.763  13.979  0.00  0.00    +0.000 NA
ATOM     19  C   UNL     1       4.583   6.537  15.891  0.00  0.00    +0.000 C 
ATOM     20  C   UNL     1       4.693   6.945  17.370  0.00  0.00    +0.000 C 
ENDBRANCH   4   7
BRANCH   1  29
ATOM     21  C   UNL     1       2.382  14.571  18.616  0.00  0.00    +0.000 A 
ATOM     22  C   UNL     1       2.116  15.949  18.571  0.00  0.00    +0.000 A 
ATOM     23  C   UNL     1       0.809  16.453  18.741  0.00  0.00    +0.000 A 
ATOM     24  C   UNL     1      -0.265  15.587  18.956  0.00  0.00    +0.000 A 
ATOM     25  C   UNL     1       0.015  14.237  19.002  0.00  0.00    +0.000 A 
ATOM     26  C   UNL     1       1.308  13.727  18.848  0.00  0.00    +0.000 A 
ATOM     27  O   UNL     1       1.354  12.359  18.951  0.00  0.00    +0.000 OA
ATOM     28  C   UNL     1       0.052  11.942  19.184  0.00  0.00    +0.000 C 
ATOM     29  C   UNL     1      -0.319  10.673  19.374  0.00  0.00    +0.000 C 
ATOM     30  C   UNL     1      -0.876  13.101  19.216  0.00  0.00    +0.000 C 
ATOM     31  O   UNL     1      -2.071  13.117  19.383  0.00  0.00    +0.000 OA
BRANCH  21  33
ATOM     32  N   UNL     1       3.949  12.874  17.809  0.00  0.00    +0.000 N 
ATOM     33  C   UNL     1       3.769  14.085  18.416  0.00  0.00    +0.000 C 
ATOM     34  O   UNL     1       4.733  14.750  18.777  0.00  0.00    +0.000 OA
ATOM     35  H   UNL     1       4.895  12.536  17.694  0.00  0.00    +0.000 HD
ATOM     36  H   UNL     1       3.186  12.279  17.513  0.00  0.00    +0.000 HD
ENDBRANCH  21  33
ENDBRANCH   1  29
TORSDOF 3
ENDMDL
MODEL 8
REMARK VINA RESULT:      -8.5      1.421      1.881
REMARK  Name = 
REMARK  3 active torsions:
REMARK  status: ('A' for Active; 'I' for Inactive)
REMARK    1  A    between atoms: C_2  and  C_4
REMARK    2  A    between atoms: C_12  and  C_13
REMARK    3  A    between atoms: C_16  and  C_17
REMARK                            x       y       z     vdW  Elec       q    Type
REMARK                         _______ _______ _______ _____ _____    ______ ____
ROOT
ATOM      1  C   UNL     1       2.422   8.167  18.273  0.00  0.00    +0.000 A 
ATOM      2  C   UNL     1       1.865   9.264  17.606  0.00  0.00    +0.000 A 
ATOM      3  C   UNL     1       1.002  10.138  18.277  0.00  0.00    +0.000 A 
ATOM      4  C   UNL     1       0.677   9.909  19.619  0.00  0.00    +0.000 A 
ATOM      5  C   UNL     1       1.215   8.788  20.265  0.00  0.00    +0.000 A 
ATOM      6  C   UNL     1       2.121   7.951  19.617  0.00  0.00    +0.000 A 
ENDROOT
BRANCH   4   7
ATOM      7  C   UNL     1      -0.337  10.777  20.282  0.00  0.00    +0.000 C 
ATOM      8  O   UNL     1      -1.386  10.251  20.655  0.00  0.00    +0.000 OA
ATOM      9  N   UNL     1      -0.053  12.118  20.514  0.00  0.00    +0.000 N 
ATOM     10  C   UNL     1      -0.897  12.887  21.451  0.00  0.00    +0.000 C 
ATOM     11  C   UNL     1      -0.023  13.699  22.441  0.00  0.00    +0.000 C 
ATOM     12  N   UNL     1       0.918  14.497  21.649  0.00  0.00    +0.000 N 
ATOM     13  C   UNL     1       1.234  15.786  22.003  0.00  0.00    +0.000 A 
ATOM     14  C   UNL     1       1.598  16.694  21.004  0.00  0.00    +0.000 A 
ATOM     15  C   UNL     1       1.884  18.012  21.322  0.00  0.00    +0.000 A 
ATOM     16  C   UNL     1       1.812  18.408  22.645  0.00  0.00    +0.000 A 
ATOM     17  C   UNL     1       1.440  17.461  23.585  0.00  0.00    +0.000 A 
ATOM     18  N   UNL     1       1.135  16.176  23.289  0.00  0.00    +0.000 NA
ATOM     19  C   UNL     1       1.801  13.742  20.761  0.00  0.00    +0.000 C 
ATOM     20  C   UNL     1       0.923  12.946  19.782  0.00  0.00    +0.000 C 
ENDBRANCH   4   7
BRANCH   1  29
ATOM     21  C   UNL     1       2.278   2.987  19.610  0.00  0.00    +0.000 A 
ATOM     22  C   UNL     1       2.786   1.686  19.461  0.00  0.00    +0.000 A 
ATOM     23  C   UNL     1       3.798   1.395  18.523  0.00  0.00    +0.000 A 
ATOM     24  C   UNL     1       4.324   2.399  17.708  0.00  0.00    +0.000 A 
ATOM     25  C   UNL     1       3.817   3.671  17.872  0.00  0.00    +0.000 A 
ATOM     26  C   UNL     1       2.823   3.975  18.808  0.00  0.00    +0.000 A 
ATOM     27  O   UNL     1       2.488   5.306  18.811  0.00  0.00    +0.000 OA
ATOM     28  C   UNL     1       3.284   5.911  17.850  0.00  0.00    +0.000 C 
ATOM     29  C   UNL     1       3.278   7.217  17.569  0.00  0.00    +0.000 C 
ATOM     30  C   UNL     1       4.162   4.914  17.188  0.00  0.00    +0.000 C 
ATOM     31  O   UNL     1       4.970   5.075  16.306  0.00  0.00    +0.000 OA
BRANCH  21  33
ATOM     32  N   UNL     1       0.286   4.220  20.318  0.00  0.00    +0.000 N 
ATOM     33  C   UNL     1       1.201   3.245  20.599  0.00  0.00    +0.000 C 
ATOM     34  O   UNL     1       1.126   2.600  21.638  0.00  0.00    +0.000 OA
ATOM     35  H   UNL     1      -0.433   4.407  21.004  0.00  0.00    +0.000 HD
ATOM     36  H   UNL     1       0.318   4.792  19.485  0.00  0.00    +0.000 HD
ENDBRANCH  21  33
ENDBRANCH   1  29
TORSDOF 3
ENDMDL
MODEL 9
REMARK VINA RESULT:      -8.4      6.610      9.000
REMARK  Name = 
REMARK  3 active torsions:
REMARK  status: ('A' for Active; 'I' for Inactive)
REMARK    1  A    between atoms: C_2  and  C_4
REMARK    2  A    between atoms: C_12  and  C_13
REMARK    3  A    between atoms: C_16  and  C_17
REMARK                            x       y       z     vdW  Elec       q    Type
REMARK                         _______ _______ _______ _____ _____    ______ ____
ROOT
ATOM      1  C   UNL     1      -0.472  12.627  18.589  0.00  0.00    +0.000 A 
ATOM      2  C   UNL     1      -0.437  14.019  18.727  0.00  0.00    +0.000 A 
ATOM      3  C   UNL     1       0.549  14.629  19.512  0.00  0.00    +0.000 A 
ATOM      4  C   UNL     1       1.497  13.845  20.180  0.00  0.00    +0.000 A 
ATOM      5  C   UNL     1       1.429  12.451  20.060  0.00  0.00    +0.000 A 
ATOM      6  C   UNL     1       0.487  11.846  19.231  0.00  0.00    +0.000 A 
ENDROOT
BRANCH   4   7
ATOM      7  C   UNL     1       2.461  14.501  21.109  0.00  0.00    +0.000 C 
ATOM      8  O   UNL     1       2.151  14.574  22.298  0.00  0.00    +0.000 OA
ATOM      9  N   UNL     1       3.686  14.949  20.629  0.00  0.00    +0.000 N 
ATOM     10  C   UNL     1       4.760  15.286  21.585  0.00  0.00    +0.000 C 
ATOM     11  C   UNL     1       6.104  14.645  21.154  0.00  0.00    +0.000 C 
ATOM     12  N   UNL     1       6.358  15.040  19.765  0.00  0.00    +0.000 N 
ATOM     13  C   UNL     1       7.620  15.366  19.336  0.00  0.00    +0.000 A 
ATOM     14  C   UNL     1       7.766  16.274  18.282  0.00  0.00    +0.000 A 
ATOM     15  C   UNL     1       9.026  16.656  17.850  0.00  0.00    +0.000 A 
ATOM     16  C   UNL     1      10.135  16.114  18.475  0.00  0.00    +0.000 A 
ATOM     17  C   UNL     1       9.923  15.225  19.516  0.00  0.00    +0.000 A 
ATOM     18  N   UNL     1       8.699  14.859  19.965  0.00  0.00    +0.000 NA
ATOM     19  C   UNL     1       5.329  14.658  18.798  0.00  0.00    +0.000 C 
ATOM     20  C   UNL     1       4.004  15.304  19.234  0.00  0.00    +0.000 C 
ENDBRANCH   4   7
BRANCH   1  29
ATOM     21  C   UNL     1      -5.400  12.263  20.642  0.00  0.00    +0.000 A 
ATOM     22  C   UNL     1      -6.717  11.785  20.545  0.00  0.00    +0.000 A 
ATOM     23  C   UNL     1      -7.157  11.066  19.414  0.00  0.00    +0.000 A 
ATOM     24  C   UNL     1      -6.291  10.812  18.349  0.00  0.00    +0.000 A 
ATOM     25  C   UNL     1      -5.000  11.286  18.464  0.00  0.00    +0.000 A 
ATOM     26  C   UNL     1      -4.547  11.988  19.586  0.00  0.00    +0.000 A 
ATOM     27  O   UNL     1      -3.225  12.342  19.492  0.00  0.00    +0.000 OA
ATOM     28  C   UNL     1      -2.778  11.860  18.271  0.00  0.00    +0.000 C 
ATOM     29  C   UNL     1      -1.527  11.976  17.818  0.00  0.00    +0.000 C 
ATOM     30  C   UNL     1      -3.875  11.176  17.540  0.00  0.00    +0.000 C 
ATOM     31  O   UNL     1      -3.856  10.649  16.455  0.00  0.00    +0.000 OA
BRANCH  21  33
ATOM     32  N   UNL     1      -4.334  14.216  21.661  0.00  0.00    +0.000 N 
ATOM     33  C   UNL     1      -4.985  13.028  21.844  0.00  0.00    +0.000 C 
ATOM     34  O   UNL     1      -5.220  12.615  22.972  0.00  0.00    +0.000 OA
ATOM     35  H   UNL     1      -4.034  14.724  22.482  0.00  0.00    +0.000 HD
ATOM     36  H   UNL     1      -4.099  14.589  20.750  0.00  0.00    +0.000 HD
ENDBRANCH  21  33
ENDBRANCH   1  29
TORSDOF 3
ENDMDL
