MODEL 1
REMARK VINA RESULT:      -6.5      0.000      0.000
REMARK  Name = 
REMARK  1 active torsions:
REMARK  status: ('A' for Active; 'I' for Inactive)
REMARK    1  A    between atoms: C_7  and  C_8
REMARK                            x       y       z     vdW  Elec       q    Type
REMARK                         _______ _______ _______ _____ _____    ______ ____
ROOT
ATOM      1  O   UNL     1       1.464   2.275  22.310  0.00  0.00    +0.000 OA
ATOM      2  C   UNL     1       1.992   2.856  21.381  0.00  0.00    +0.000 C 
ATOM      3  N   UNL     1       3.289   2.743  21.005  0.00  0.00    +0.000 N 
ATOM      4  C   UNL     1       3.703   3.409  19.889  0.00  0.00    +0.000 C 
ATOM      5  O   UNL     1       4.826   3.307  19.425  0.00  0.00    +0.000 OA
ATOM      6  C   UNL     1       2.575   4.217  19.337  0.00  0.00    +0.000 C 
ATOM      7  C   UNL     1       2.586   5.020  18.266  0.00  0.00    +0.000 C 
ATOM      8  S   UNL     1       1.160   3.960  20.306  0.00  0.00    +0.000 S 
ATOM      9  H   UNL     1       3.917   2.127  21.496  0.00  0.00    +0.000 HD
ENDROOT
BRANCH   7  10
ATOM     10  C   UNL     1       3.756   5.219  17.494  0.00  0.00    +0.000 A 
ATOM     11  C   UNL     1       4.661   6.272  17.529  0.00  0.00    +0.000 A 
ATOM     12  C   UNL     1       5.625   6.041  16.519  0.00  0.00    +0.000 A 
ATOM     13  C   UNL     1       5.279   4.847  15.935  0.00  0.00    +0.000 A 
ATOM     14 BR   UNL     1       6.189   4.039  14.522  0.00  0.00    +0.000 Br
ATOM     15  O   UNL     1       4.171   4.336  16.527  0.00  0.00    +0.000 OA
ENDBRANCH   7  10
TORSDOF 1
ENDMDL
MODEL 2
REMARK VINA RESULT:      -6.4      3.646      5.569
REMARK  Name = 
REMARK  1 active torsions:
REMARK  status: ('A' for Active; 'I' for Inactive)
REMARK    1  A    between atoms: C_7  and  C_8
REMARK                            x       y       z     vdW  Elec       q    Type
REMARK                         _______ _______ _______ _____ _____    ______ ____
ROOT
ATOM      1  O   UNL     1       7.515   5.396  14.968  0.00  0.00    +0.000 OA
ATOM      2  C   UNL     1       6.513   5.176  15.624  0.00  0.00    +0.000 C 
ATOM      3  N   UNL     1       6.089   3.960  16.045  0.00  0.00    +0.000 N 
ATOM      4  C   UNL     1       4.983   3.897  16.840  0.00  0.00    +0.000 C 
ATOM      5  O   UNL     1       4.570   2.861  17.335  0.00  0.00    +0.000 OA
ATOM      6  C   UNL     1       4.414   5.266  17.020  0.00  0.00    +0.000 C 
ATOM      7  C   UNL     1       3.323   5.618  17.712  0.00  0.00    +0.000 C 
ATOM      8  S   UNL     1       5.410   6.414  16.186  0.00  0.00    +0.000 S 
ATOM      9  H   UNL     1       6.618   3.129  15.836  0.00  0.00    +0.000 HD
ENDROOT
BRANCH   7  10
ATOM     10  C   UNL     1       2.521   4.661  18.381  0.00  0.00    +0.000 A 
ATOM     11  C   UNL     1       1.418   3.961  17.911  0.00  0.00    +0.000 A 
ATOM     12  C   UNL     1       0.926   3.172  18.979  0.00  0.00    +0.000 A 
ATOM     13  C   UNL     1       1.767   3.408  20.038  0.00  0.00    +0.000 A 
ATOM     14 BR   UNL     1       1.601   2.647  21.732  0.00  0.00    +0.000 Br
ATOM     15  O   UNL     1       2.740   4.284  19.682  0.00  0.00    +0.000 OA
ENDBRANCH   7  10
TORSDOF 1
ENDMDL
MODEL 3
REMARK VINA RESULT:      -6.4      3.616      5.344
REMARK  Name = 
REMARK  1 active torsions:
REMARK  status: ('A' for Active; 'I' for Inactive)
REMARK    1  A    between atoms: C_7  and  C_8
REMARK                            x       y       z     vdW  Elec       q    Type
REMARK                         _______ _______ _______ _____ _____    ______ ____
ROOT
ATOM      1  O   UNL     1       7.873   4.637  15.424  0.00  0.00    +0.000 OA
ATOM      2  C   UNL     1       6.891   4.671  16.141  0.00  0.00    +0.000 C 
ATOM      3  N   UNL     1       6.843   4.301  17.444  0.00  0.00    +0.000 N 
ATOM      4  C   UNL     1       5.676   4.475  18.127  0.00  0.00    +0.000 C 
ATOM      5  O   UNL     1       5.556   4.248  19.320  0.00  0.00    +0.000 OA
ATOM      6  C   UNL     1       4.628   5.007  17.206  0.00  0.00    +0.000 C 
ATOM      7  C   UNL     1       3.351   5.290  17.490  0.00  0.00    +0.000 C 
ATOM      8  S   UNL     1       5.315   5.241  15.631  0.00  0.00    +0.000 S 
ATOM      9  H   UNL     1       7.668   3.970  17.916  0.00  0.00    +0.000 HD
ENDROOT
BRANCH   7  10
ATOM     10  C   UNL     1       2.810   5.085  18.782  0.00  0.00    +0.000 A 
ATOM     11  C   UNL     1       2.541   6.016  19.777  0.00  0.00    +0.000 A 
ATOM     12  C   UNL     1       2.067   5.308  20.907  0.00  0.00    +0.000 A 
ATOM     13  C   UNL     1       2.043   3.985  20.540  0.00  0.00    +0.000 A 
ATOM     14 BR   UNL     1       1.515   2.574  21.638  0.00  0.00    +0.000 Br
ATOM     15  O   UNL     1       2.467   3.844  19.259  0.00  0.00    +0.000 OA
ENDBRANCH   7  10
TORSDOF 1
ENDMDL
MODEL 4
REMARK VINA RESULT:      -6.3      3.792      5.574
REMARK  Name = 
REMARK  1 active torsions:
REMARK  status: ('A' for Active; 'I' for Inactive)
REMARK    1  A    between atoms: C_7  and  C_8
REMARK                            x       y       z     vdW  Elec       q    Type
REMARK                         _______ _______ _______ _____ _____    ______ ____
ROOT
ATOM      1  O   UNL     1       7.835   6.791  16.365  0.00  0.00    +0.000 OA
ATOM      2  C   UNL     1       6.893   6.133  16.767  0.00  0.00    +0.000 C 
ATOM      3  N   UNL     1       6.011   6.508  17.725  0.00  0.00    +0.000 N 
ATOM      4  C   UNL     1       4.964   5.680  18.004  0.00  0.00    +0.000 C 
ATOM      5  O   UNL     1       4.075   5.964  18.789  0.00  0.00    +0.000 OA
ATOM      6  C   UNL     1       5.073   4.437  17.185  0.00  0.00    +0.000 C 
ATOM      7  C   UNL     1       4.254   3.377  17.186  0.00  0.00    +0.000 C 
ATOM      8  S   UNL     1       6.467   4.547  16.160  0.00  0.00    +0.000 S 
ATOM      9  H   UNL     1       6.085   7.408  18.171  0.00  0.00    +0.000 HD
ENDROOT
BRANCH   7  10
ATOM     10  C   UNL     1       3.125   3.307  18.037  0.00  0.00    +0.000 A 
ATOM     11  C   UNL     1       1.799   3.617  17.761  0.00  0.00    +0.000 A 
ATOM     12  C   UNL     1       1.062   3.443  18.957  0.00  0.00    +0.000 A 
ATOM     13  C   UNL     1       1.966   3.011  19.896  0.00  0.00    +0.000 A 
ATOM     14 BR   UNL     1       1.565   2.628  21.676  0.00  0.00    +0.000 Br
ATOM     15  O   UNL     1       3.202   2.906  19.347  0.00  0.00    +0.000 OA
ENDBRANCH   7  10
TORSDOF 1
ENDMDL
MODEL 5
REMARK VINA RESULT:      -6.3      1.405      1.558
REMARK  Name = 
REMARK  1 active torsions:
REMARK  status: ('A' for Active; 'I' for Inactive)
REMARK    1  A    between atoms: C_7  and  C_8
REMARK                            x       y       z     vdW  Elec       q    Type
REMARK                         _______ _______ _______ _____ _____    ______ ____
ROOT
ATOM      1  O   UNL     1       1.245   2.189  22.267  0.00  0.00    +0.000 OA
ATOM      2  C   UNL     1       1.851   2.758  21.378  0.00  0.00    +0.000 C 
ATOM      3  N   UNL     1       3.186   2.694  21.157  0.00  0.00    +0.000 N 
ATOM      4  C   UNL     1       3.696   3.334  20.065  0.00  0.00    +0.000 C 
ATOM      5  O   UNL     1       4.869   3.269  19.736  0.00  0.00    +0.000 OA
ATOM      6  C   UNL     1       2.604   4.063  19.354  0.00  0.00    +0.000 C 
ATOM      7  C   UNL     1       2.703   4.822  18.256  0.00  0.00    +0.000 C 
ATOM      8  S   UNL     1       1.100   3.776  20.167  0.00  0.00    +0.000 S 
ATOM      9  H   UNL     1       3.780   2.129  21.743  0.00  0.00    +0.000 HD
ENDROOT
BRANCH   7  10
ATOM     10  C   UNL     1       3.944   5.047  17.612  0.00  0.00    +0.000 A 
ATOM     11  C   UNL     1       4.502   4.384  16.527  0.00  0.00    +0.000 A 
ATOM     12  C   UNL     1       5.785   4.938  16.302  0.00  0.00    +0.000 A 
ATOM     13  C   UNL     1       5.937   5.928  17.240  0.00  0.00    +0.000 A 
ATOM     14 BR   UNL     1       7.451   7.000  17.435  0.00  0.00    +0.000 Br
ATOM     15  O   UNL     1       4.829   6.015  18.018  0.00  0.00    +0.000 OA
ENDBRANCH   7  10
TORSDOF 1
ENDMDL
MODEL 6
REMARK VINA RESULT:      -6.3      3.711      5.452
REMARK  Name = 
REMARK  1 active torsions:
REMARK  status: ('A' for Active; 'I' for Inactive)
REMARK    1  A    between atoms: C_7  and  C_8
REMARK                            x       y       z     vdW  Elec       q    Type
REMARK                         _______ _______ _______ _____ _____    ______ ____
ROOT
ATOM      1  O   UNL     1       7.824   6.952  16.647  0.00  0.00    +0.000 OA
ATOM      2  C   UNL     1       6.872   6.277  16.991  0.00  0.00    +0.000 C 
ATOM      3  N   UNL     1       6.901   5.249  17.873  0.00  0.00    +0.000 N 
ATOM      4  C   UNL     1       5.725   4.645  18.207  0.00  0.00    +0.000 C 
ATOM      5  O   UNL     1       5.637   3.768  19.050  0.00  0.00    +0.000 OA
ATOM      6  C   UNL     1       4.608   5.248  17.421  0.00  0.00    +0.000 C 
ATOM      7  C   UNL     1       3.311   4.917  17.448  0.00  0.00    +0.000 C 
ATOM      8  S   UNL     1       5.234   6.518  16.420  0.00  0.00    +0.000 S 
ATOM      9  H   UNL     1       7.760   4.983  18.326  0.00  0.00    +0.000 HD
ENDROOT
BRANCH   7  10
ATOM     10  C   UNL     1       2.824   3.872  18.270  0.00  0.00    +0.000 A 
ATOM     11  C   UNL     1       2.536   2.555  17.934  0.00  0.00    +0.000 A 
ATOM     12  C   UNL     1       2.016   1.925  19.089  0.00  0.00    +0.000 A 
ATOM     13  C   UNL     1       2.036   2.876  20.079  0.00  0.00    +0.000 A 
ATOM     14 BR   UNL     1       1.450   2.618  21.830  0.00  0.00    +0.000 Br
ATOM     15  O   UNL     1       2.540   4.042  19.602  0.00  0.00    +0.000 OA
ENDBRANCH   7  10
TORSDOF 1
ENDMDL
MODEL 7
REMARK VINA RESULT:      -6.1      3.725      5.668
REMARK  Name = 
REMARK  1 active torsions:
REMARK  status: ('A' for Active; 'I' for Inactive)
REMARK    1  A    between atoms: C_7  and  C_8
REMARK                            x       y       z     vdW  Elec       q    Type
REMARK                         _______ _______ _______ _____ _____    ______ ____
ROOT
ATOM      1  O   UNL     1       7.496   5.128  14.677  0.00  0.00    +0.000 OA
ATOM      2  C   UNL     1       6.720   5.157  15.614  0.00  0.00    +0.000 C 
ATOM      3  N   UNL     1       5.453   4.676  15.614  0.00  0.00    +0.000 N 
ATOM      4  C   UNL     1       4.741   4.720  16.777  0.00  0.00    +0.000 C 
ATOM      5  O   UNL     1       3.627   4.240  16.899  0.00  0.00    +0.000 OA
ATOM      6  C   UNL     1       5.549   5.394  17.836  0.00  0.00    +0.000 C 
ATOM      7  C   UNL     1       5.195   5.648  19.102  0.00  0.00    +0.000 C 
ATOM      8  S   UNL     1       7.100   5.820  17.190  0.00  0.00    +0.000 S 
ATOM      9  H   UNL     1       5.070   4.232  14.796  0.00  0.00    +0.000 HD
ENDROOT
BRANCH   7  10
ATOM     10  C   UNL     1       3.920   5.296  19.607  0.00  0.00    +0.000 A 
ATOM     11  C   UNL     1       2.761   6.060  19.670  0.00  0.00    +0.000 A 
ATOM     12  C   UNL     1       1.772   5.282  20.318  0.00  0.00    +0.000 A 
ATOM     13  C   UNL     1       2.364   4.074  20.594  0.00  0.00    +0.000 A 
ATOM     14 BR   UNL     1       1.538   2.645  21.460  0.00  0.00    +0.000 Br
ATOM     15  O   UNL     1       3.647   4.066  20.152  0.00  0.00    +0.000 OA
ENDBRANCH   7  10
TORSDOF 1
ENDMDL
MODEL 8
REMARK VINA RESULT:      -6.0      2.242      2.432
REMARK  Name = 
REMARK  1 active torsions:
REMARK  status: ('A' for Active; 'I' for Inactive)
REMARK    1  A    between atoms: C_7  and  C_8
REMARK                            x       y       z     vdW  Elec       q    Type
REMARK                         _______ _______ _______ _____ _____    ______ ____
ROOT
ATOM      1  O   UNL     1       1.424   2.814  22.196  0.00  0.00    +0.000 OA
ATOM      2  C   UNL     1       2.126   3.300  21.329  0.00  0.00    +0.000 C 
ATOM      3  N   UNL     1       2.158   4.607  20.971  0.00  0.00    +0.000 N 
ATOM      4  C   UNL     1       3.062   5.000  20.028  0.00  0.00    +0.000 C 
ATOM      5  O   UNL     1       3.223   6.163  19.698  0.00  0.00    +0.000 OA
ATOM      6  C   UNL     1       3.812   3.812  19.524  0.00  0.00    +0.000 C 
ATOM      7  C   UNL     1       4.766   3.781  18.584  0.00  0.00    +0.000 C 
ATOM      8  S   UNL     1       3.276   2.396  20.367  0.00  0.00    +0.000 S 
ATOM      9  H   UNL     1       1.578   5.284  21.439  0.00  0.00    +0.000 HD
ENDROOT
BRANCH   7  10
ATOM     10  C   UNL     1       5.184   4.950  17.905  0.00  0.00    +0.000 A 
ATOM     11  C   UNL     1       4.715   5.485  16.711  0.00  0.00    +0.000 A 
ATOM     12  C   UNL     1       5.498   6.627  16.419  0.00  0.00    +0.000 A 
ATOM     13  C   UNL     1       6.387   6.751  17.458  0.00  0.00    +0.000 A 
ATOM     14 BR   UNL     1       7.687   8.079  17.608  0.00  0.00    +0.000 Br
ATOM     15  O   UNL     1       6.192   5.761  18.365  0.00  0.00    +0.000 OA
ENDBRANCH   7  10
TORSDOF 1
ENDMDL
MODEL 9
REMARK VINA RESULT:      -6.0      3.789      5.714
REMARK  Name = 
REMARK  1 active torsions:
REMARK  status: ('A' for Active; 'I' for Inactive)
REMARK    1  A    between atoms: C_7  and  C_8
REMARK                            x       y       z     vdW  Elec       q    Type
REMARK                         _______ _______ _______ _____ _____    ______ ____
ROOT
ATOM      1  O   UNL     1       7.831   5.671  14.710  0.00  0.00    +0.000 OA
ATOM      2  C   UNL     1       6.901   5.270  15.385  0.00  0.00    +0.000 C 
ATOM      3  N   UNL     1       6.420   5.858  16.506  0.00  0.00    +0.000 N 
ATOM      4  C   UNL     1       5.318   5.318  17.102  0.00  0.00    +0.000 C 
ATOM      5  O   UNL     1       4.763   5.819  18.066  0.00  0.00    +0.000 OA
ATOM      6  C   UNL     1       4.907   4.082  16.373  0.00  0.00    +0.000 C 
ATOM      7  C   UNL     1       3.890   3.259  16.658  0.00  0.00    +0.000 C 
ATOM      8  S   UNL     1       5.964   3.837  15.021  0.00  0.00    +0.000 S 
ATOM      9  H   UNL     1       6.822   6.714  16.854  0.00  0.00    +0.000 HD
ENDROOT
BRANCH   7  10
ATOM     10  C   UNL     1       3.043   3.477  17.771  0.00  0.00    +0.000 A 
ATOM     11  C   UNL     1       1.916   4.282  17.871  0.00  0.00    +0.000 A 
ATOM     12  C   UNL     1       1.457   4.211  19.208  0.00  0.00    +0.000 A 
ATOM     13  C   UNL     1       2.308   3.347  19.852  0.00  0.00    +0.000 A 
ATOM     14 BR   UNL     1       2.200   2.875  21.653  0.00  0.00    +0.000 Br
ATOM     15  O   UNL     1       3.250   2.885  18.993  0.00  0.00    +0.000 OA
ENDBRANCH   7  10
TORSDOF 1
ENDMDL
