MODEL 1
REMARK VINA RESULT:      -6.7      0.000      0.000
REMARK  Name = 
REMARK  7 active torsions:
REMARK  status: ('A' for Active; 'I' for Inactive)
REMARK    1  A    between atoms: C_1  and  N_2
REMARK    2  A    between atoms: N_2  and  C_3
REMARK    3  A    between atoms: N_2  and  C_4
REMARK    4  A    between atoms: C_9  and  C_10
REMARK    5  A    between atoms: C_10  and  S_11
REMARK    6  A    between atoms: S_11  and  C_13
REMARK    7  A    between atoms: N_17  and  C_18
REMARK                            x       y       z     vdW  Elec       q    Type
REMARK                         _______ _______ _______ _____ _____    ______ ____
ROOT
ATOM      1  S   UNL     1       4.591   3.772  17.755  0.00  0.00    +0.000 S 
ATOM      2  O   UNL     1       4.165   2.264  17.851  0.00  0.00    +0.000 OA
ENDROOT
BRANCH   1   3
ATOM      3  C   UNL     1       5.526   3.945  16.300  0.00  0.00    +0.000 A 
ATOM      4  N   UNL     1       5.261   3.330  15.163  0.00  0.00    +0.000 NA
ATOM      5  C   UNL     1       6.105   3.888  14.242  0.00  0.00    +0.000 A 
ATOM      6  C   UNL     1       6.841   4.906  14.804  0.00  0.00    +0.000 A 
ATOM      7  N   UNL     1       6.534   4.889  16.148  0.00  0.00    +0.000 N 
BRANCH   7   8
ATOM      8  C   UNL     1       7.030   5.769  17.138  0.00  0.00    +0.000 A 
ATOM      9  C   UNL     1       7.119   7.145  16.908  0.00  0.00    +0.000 A 
ATOM     10  C   UNL     1       7.800   7.946  17.818  0.00  0.00    +0.000 A 
ATOM     11  C   UNL     1       8.348   7.343  18.937  0.00  0.00    +0.000 A 
ATOM     12  N   UNL     1       8.219   6.026  19.220  0.00  0.00    +0.000 NA
ATOM     13  C   UNL     1       7.551   5.264  18.322  0.00  0.00    +0.000 A 
ENDBRANCH   7   8
ENDBRANCH   1   3
BRANCH   1  14
ATOM     14  C   UNL     1       3.130   4.790  17.367  0.00  0.00    +0.000 C 
BRANCH  14  20
ATOM     15  C   UNL     1       2.082   5.029  19.732  0.00  0.00    +0.000 A 
ATOM     16  C   UNL     1       1.610   5.927  20.727  0.00  0.00    +0.000 A 
ATOM     17  C   UNL     1       1.626   7.315  20.592  0.00  0.00    +0.000 A 
ATOM     18  C   UNL     1       2.113   7.874  19.436  0.00  0.00    +0.000 A 
ATOM     19  C   UNL     1       2.581   7.038  18.428  0.00  0.00    +0.000 A 
ATOM     20  C   UNL     1       2.574   5.615  18.532  0.00  0.00    +0.000 A 
BRANCH  15  22
ATOM     21  C   UNL     1       2.531   3.051  21.222  0.00  0.00    +0.000 C 
ATOM     22  N   UNL     1       1.977   3.665  20.027  0.00  0.00    +0.000 N 
ATOM     23  C   UNL     1       0.863   2.925  19.417  0.00  0.00    +0.000 C 
ENDBRANCH  15  22
ENDBRANCH  14  20
ENDBRANCH   1  14
TORSDOF 5
ENDMDL
MODEL 2
REMARK VINA RESULT:      -6.4      1.519      6.208
REMARK  Name = 
REMARK  7 active torsions:
REMARK  status: ('A' for Active; 'I' for Inactive)
REMARK    1  A    between atoms: C_1  and  N_2
REMARK    2  A    between atoms: N_2  and  C_3
REMARK    3  A    between atoms: N_2  and  C_4
REMARK    4  A    between atoms: C_9  and  C_10
REMARK    5  A    between atoms: C_10  and  S_11
REMARK    6  A    between atoms: S_11  and  C_13
REMARK    7  A    between atoms: N_17  and  C_18
REMARK                            x       y       z     vdW  Elec       q    Type
REMARK                         _______ _______ _______ _____ _____    ______ ____
ROOT
ATOM      1  S   UNL     1       3.054   4.232  17.747  0.00  0.00    +0.000 S 
ATOM      2  O   UNL     1       2.392   3.112  16.868  0.00  0.00    +0.000 OA
ENDROOT
BRANCH   1   3
ATOM      3  C   UNL     1       2.566   3.944  19.390  0.00  0.00    +0.000 A 
ATOM      4  N   UNL     1       2.628   2.772  19.995  0.00  0.00    +0.000 NA
ATOM      5  C   UNL     1       2.342   3.025  21.309  0.00  0.00    +0.000 A 
ATOM      6  C   UNL     1       2.179   4.374  21.525  0.00  0.00    +0.000 A 
ATOM      7  N   UNL     1       2.237   4.960  20.279  0.00  0.00    +0.000 N 
BRANCH   7   8
ATOM      8  C   UNL     1       2.142   6.342  19.991  0.00  0.00    +0.000 A 
ATOM      9  C   UNL     1       1.486   7.221  20.858  0.00  0.00    +0.000 A 
ATOM     10  C   UNL     1       1.233   8.524  20.445  0.00  0.00    +0.000 A 
ATOM     11  C   UNL     1       1.666   8.907  19.187  0.00  0.00    +0.000 A 
ATOM     12  N   UNL     1       2.363   8.099  18.355  0.00  0.00    +0.000 NA
ATOM     13  C   UNL     1       2.600   6.835  18.777  0.00  0.00    +0.000 A 
ENDBRANCH   7   8
ENDBRANCH   1   3
BRANCH   1  14
ATOM     14  C   UNL     1       4.850   3.941  17.848  0.00  0.00    +0.000 C 
BRANCH  14  20
ATOM     15  C   UNL     1       6.695   5.292  16.618  0.00  0.00    +0.000 A 
ATOM     16  C   UNL     1       7.355   5.533  15.383  0.00  0.00    +0.000 A 
ATOM     17  C   UNL     1       7.048   4.870  14.195  0.00  0.00    +0.000 A 
ATOM     18  C   UNL     1       6.047   3.929  14.188  0.00  0.00    +0.000 A 
ATOM     19  C   UNL     1       5.366   3.662  15.370  0.00  0.00    +0.000 A 
ATOM     20  C   UNL     1       5.651   4.326  16.600  0.00  0.00    +0.000 A 
BRANCH  15  22
ATOM     21  C   UNL     1       7.809   5.511  18.865  0.00  0.00    +0.000 C 
ATOM     22  N   UNL     1       7.121   6.060  17.709  0.00  0.00    +0.000 N 
ATOM     23  C   UNL     1       7.358   7.492  17.476  0.00  0.00    +0.000 C 
ENDBRANCH  15  22
ENDBRANCH  14  20
ENDBRANCH   1  14
TORSDOF 5
ENDMDL
MODEL 3
REMARK VINA RESULT:      -6.3      1.748      6.717
REMARK  Name = 
REMARK  7 active torsions:
REMARK  status: ('A' for Active; 'I' for Inactive)
REMARK    1  A    between atoms: C_1  and  N_2
REMARK    2  A    between atoms: N_2  and  C_3
REMARK    3  A    between atoms: N_2  and  C_4
REMARK    4  A    between atoms: C_9  and  C_10
REMARK    5  A    between atoms: C_10  and  S_11
REMARK    6  A    between atoms: S_11  and  C_13
REMARK    7  A    between atoms: N_17  and  C_18
REMARK                            x       y       z     vdW  Elec       q    Type
REMARK                         _______ _______ _______ _____ _____    ______ ____
ROOT
ATOM      1  S   UNL     1       3.124   5.573  17.783  0.00  0.00    +0.000 S 
ATOM      2  O   UNL     1       3.944   4.428  18.479  0.00  0.00    +0.000 OA
ENDROOT
BRANCH   1   3
ATOM      3  C   UNL     1       2.543   6.620  19.042  0.00  0.00    +0.000 A 
ATOM      4  N   UNL     1       2.442   7.932  18.938  0.00  0.00    +0.000 NA
ATOM      5  C   UNL     1       1.769   8.335  20.059  0.00  0.00    +0.000 A 
ATOM      6  C   UNL     1       1.388   7.253  20.818  0.00  0.00    +0.000 A 
ATOM      7  N   UNL     1       1.958   6.154  20.213  0.00  0.00    +0.000 N 
BRANCH   7   8
ATOM      8  C   UNL     1       1.829   4.805  20.620  0.00  0.00    +0.000 A 
ATOM      9  C   UNL     1       0.845   3.973  20.078  0.00  0.00    +0.000 A 
ATOM     10  C   UNL     1       0.617   2.726  20.649  0.00  0.00    +0.000 A 
ATOM     11  C   UNL     1       1.397   2.348  21.727  0.00  0.00    +0.000 A 
ATOM     12  N   UNL     1       2.402   3.103  22.229  0.00  0.00    +0.000 NA
ATOM     13  C   UNL     1       2.608   4.313  21.659  0.00  0.00    +0.000 A 
ENDBRANCH   7   8
ENDBRANCH   1   3
BRANCH   1  14
ATOM     14  C   UNL     1       4.266   6.679  16.892  0.00  0.00    +0.000 C 
BRANCH  14  20
ATOM     15  C   UNL     1       6.740   5.946  16.599  0.00  0.00    +0.000 A 
ATOM     16  C   UNL     1       7.675   5.251  15.786  0.00  0.00    +0.000 A 
ATOM     17  C   UNL     1       7.342   4.606  14.596  0.00  0.00    +0.000 A 
ATOM     18  C   UNL     1       6.042   4.635  14.154  0.00  0.00    +0.000 A 
ATOM     19  C   UNL     1       5.089   5.308  14.911  0.00  0.00    +0.000 A 
ATOM     20  C   UNL     1       5.397   5.983  16.129  0.00  0.00    +0.000 A 
BRANCH  15  22
ATOM     21  C   UNL     1       7.748   5.809  18.902  0.00  0.00    +0.000 C 
ATOM     22  N   UNL     1       7.250   6.550  17.755  0.00  0.00    +0.000 N 
ATOM     23  C   UNL     1       7.784   7.913  17.625  0.00  0.00    +0.000 C 
ENDBRANCH  15  22
ENDBRANCH  14  20
ENDBRANCH   1  14
TORSDOF 5
ENDMDL
MODEL 4
REMARK VINA RESULT:      -6.3      0.635      1.292
REMARK  Name = 
REMARK  7 active torsions:
REMARK  status: ('A' for Active; 'I' for Inactive)
REMARK    1  A    between atoms: C_1  and  N_2
REMARK    2  A    between atoms: N_2  and  C_3
REMARK    3  A    between atoms: N_2  and  C_4
REMARK    4  A    between atoms: C_9  and  C_10
REMARK    5  A    between atoms: C_10  and  S_11
REMARK    6  A    between atoms: S_11  and  C_13
REMARK    7  A    between atoms: N_17  and  C_18
REMARK                            x       y       z     vdW  Elec       q    Type
REMARK                         _______ _______ _______ _____ _____    ______ ____
ROOT
ATOM      1  S   UNL     1       4.544   3.669  17.521  0.00  0.00    +0.000 S 
ATOM      2  O   UNL     1       4.218   2.135  17.618  0.00  0.00    +0.000 OA
ENDROOT
BRANCH   1   3
ATOM      3  C   UNL     1       5.379   3.917  16.017  0.00  0.00    +0.000 A 
ATOM      4  N   UNL     1       4.946   3.499  14.843  0.00  0.00    +0.000 NA
ATOM      5  C   UNL     1       5.784   4.065  13.922  0.00  0.00    +0.000 A 
ATOM      6  C   UNL     1       6.692   4.899  14.534  0.00  0.00    +0.000 A 
ATOM      7  N   UNL     1       6.490   4.741  15.888  0.00  0.00    +0.000 N 
BRANCH   7   8
ATOM      8  C   UNL     1       7.176   5.412  16.928  0.00  0.00    +0.000 A 
ATOM      9  C   UNL     1       7.663   4.721  18.041  0.00  0.00    +0.000 A 
ATOM     10  C   UNL     1       8.142   5.437  19.131  0.00  0.00    +0.000 A 
ATOM     11  C   UNL     1       8.138   6.819  19.059  0.00  0.00    +0.000 A 
ATOM     12  N   UNL     1       7.738   7.513  17.969  0.00  0.00    +0.000 NA
ATOM     13  C   UNL     1       7.275   6.797  16.917  0.00  0.00    +0.000 A 
ENDBRANCH   7   8
ENDBRANCH   1   3
BRANCH   1  14
ATOM     14  C   UNL     1       3.004   4.599  17.237  0.00  0.00    +0.000 C 
BRANCH  14  20
ATOM     15  C   UNL     1       1.997   4.900  19.612  0.00  0.00    +0.000 A 
ATOM     16  C   UNL     1       1.606   5.823  20.619  0.00  0.00    +0.000 A 
ATOM     17  C   UNL     1       1.731   7.207  20.495  0.00  0.00    +0.000 A 
ATOM     18  C   UNL     1       2.251   7.736  19.339  0.00  0.00    +0.000 A 
ATOM     19  C   UNL     1       2.644   6.874  18.321  0.00  0.00    +0.000 A 
ATOM     20  C   UNL     1       2.524   5.456  18.413  0.00  0.00    +0.000 A 
BRANCH  15  22
ATOM     21  C   UNL     1       0.992   2.658  19.065  0.00  0.00    +0.000 C 
ATOM     22  N   UNL     1       1.787   3.546  19.897  0.00  0.00    +0.000 N 
ATOM     23  C   UNL     1       2.784   2.869  20.738  0.00  0.00    +0.000 C 
ENDBRANCH  15  22
ENDBRANCH  14  20
ENDBRANCH   1  14
TORSDOF 5
ENDMDL
MODEL 5
REMARK VINA RESULT:      -6.2      1.630      5.837
REMARK  Name = 
REMARK  7 active torsions:
REMARK  status: ('A' for Active; 'I' for Inactive)
REMARK    1  A    between atoms: C_1  and  N_2
REMARK    2  A    between atoms: N_2  and  C_3
REMARK    3  A    between atoms: N_2  and  C_4
REMARK    4  A    between atoms: C_9  and  C_10
REMARK    5  A    between atoms: C_10  and  S_11
REMARK    6  A    between atoms: S_11  and  C_13
REMARK    7  A    between atoms: N_17  and  C_18
REMARK                            x       y       z     vdW  Elec       q    Type
REMARK                         _______ _______ _______ _____ _____    ______ ____
ROOT
ATOM      1  S   UNL     1       3.088   4.176  17.617  0.00  0.00    +0.000 S 
ATOM      2  O   UNL     1       2.178   3.233  16.752  0.00  0.00    +0.000 OA
ENDROOT
BRANCH   1   3
ATOM      3  C   UNL     1       2.655   3.916  19.280  0.00  0.00    +0.000 A 
ATOM      4  N   UNL     1       2.736   2.755  19.902  0.00  0.00    +0.000 NA
ATOM      5  C   UNL     1       2.494   3.030  21.220  0.00  0.00    +0.000 A 
ATOM      6  C   UNL     1       2.338   4.383  21.418  0.00  0.00    +0.000 A 
ATOM      7  N   UNL     1       2.355   4.948  20.161  0.00  0.00    +0.000 N 
BRANCH   7   8
ATOM      8  C   UNL     1       2.251   6.325  19.853  0.00  0.00    +0.000 A 
ATOM      9  C   UNL     1       1.599   7.214  20.713  0.00  0.00    +0.000 A 
ATOM     10  C   UNL     1       1.336   8.509  20.282  0.00  0.00    +0.000 A 
ATOM     11  C   UNL     1       1.754   8.874  19.014  0.00  0.00    +0.000 A 
ATOM     12  N   UNL     1       2.446   8.057  18.187  0.00  0.00    +0.000 NA
ATOM     13  C   UNL     1       2.693   6.800  18.626  0.00  0.00    +0.000 A 
ENDBRANCH   7   8
ENDBRANCH   1   3
BRANCH   1  14
ATOM     14  C   UNL     1       4.801   3.555  17.590  0.00  0.00    +0.000 C 
BRANCH  14  20
ATOM     15  C   UNL     1       6.453   5.435  16.895  0.00  0.00    +0.000 A 
ATOM     16  C   UNL     1       7.439   6.359  17.332  0.00  0.00    +0.000 A 
ATOM     17  C   UNL     1       7.847   6.490  18.660  0.00  0.00    +0.000 A 
ATOM     18  C   UNL     1       7.286   5.684  19.620  0.00  0.00    +0.000 A 
ATOM     19  C   UNL     1       6.320   4.758  19.242  0.00  0.00    +0.000 A 
ATOM     20  C   UNL     1       5.884   4.595  17.893  0.00  0.00    +0.000 A 
BRANCH  15  22
ATOM     21  C   UNL     1       6.505   4.322  14.638  0.00  0.00    +0.000 C 
ATOM     22  N   UNL     1       6.176   5.427  15.522  0.00  0.00    +0.000 N 
ATOM     23  C   UNL     1       5.085   6.289  15.048  0.00  0.00    +0.000 C 
ENDBRANCH  15  22
ENDBRANCH  14  20
ENDBRANCH   1  14
TORSDOF 5
ENDMDL
MODEL 6
REMARK VINA RESULT:      -6.2      2.587      4.469
REMARK  Name = 
REMARK  7 active torsions:
REMARK  status: ('A' for Active; 'I' for Inactive)
REMARK    1  A    between atoms: C_1  and  N_2
REMARK    2  A    between atoms: N_2  and  C_3
REMARK    3  A    between atoms: N_2  and  C_4
REMARK    4  A    between atoms: C_9  and  C_10
REMARK    5  A    between atoms: C_10  and  S_11
REMARK    6  A    between atoms: S_11  and  C_13
REMARK    7  A    between atoms: N_17  and  C_18
REMARK                            x       y       z     vdW  Elec       q    Type
REMARK                         _______ _______ _______ _____ _____    ______ ____
ROOT
ATOM      1  S   UNL     1       2.985   6.326  18.376  0.00  0.00    +0.000 S 
ATOM      2  O   UNL     1       4.293   7.048  17.893  0.00  0.00    +0.000 OA
ENDROOT
BRANCH   1   3
ATOM      3  C   UNL     1       3.471   4.821  19.097  0.00  0.00    +0.000 A 
ATOM      4  N   UNL     1       2.842   4.232  20.096  0.00  0.00    +0.000 NA
ATOM      5  C   UNL     1       3.426   3.001  20.219  0.00  0.00    +0.000 A 
ATOM      6  C   UNL     1       4.369   2.805  19.237  0.00  0.00    +0.000 A 
ATOM      7  N   UNL     1       4.462   4.005  18.565  0.00  0.00    +0.000 N 
BRANCH   7   8
ATOM      8  C   UNL     1       5.290   4.288  17.453  0.00  0.00    +0.000 A 
ATOM      9  C   UNL     1       4.831   4.113  16.144  0.00  0.00    +0.000 A 
ATOM     10  C   UNL     1       5.733   4.200  15.089  0.00  0.00    +0.000 A 
ATOM     11  C   UNL     1       7.056   4.481  15.381  0.00  0.00    +0.000 A 
ATOM     12  N   UNL     1       7.514   4.722  16.631  0.00  0.00    +0.000 NA
ATOM     13  C   UNL     1       6.620   4.634  17.644  0.00  0.00    +0.000 A 
ENDBRANCH   7   8
ENDBRANCH   1   3
BRANCH   1  14
ATOM     14  C   UNL     1       2.300   7.210  19.814  0.00  0.00    +0.000 C 
BRANCH  14  20
ATOM     15  C   UNL     1       0.857   9.263  20.484  0.00  0.00    +0.000 A 
ATOM     16  C   UNL     1       0.200  10.439  20.034  0.00  0.00    +0.000 A 
ATOM     17  C   UNL     1       0.206  10.875  18.709  0.00  0.00    +0.000 A 
ATOM     18  C   UNL     1       0.872  10.137  17.760  0.00  0.00    +0.000 A 
ATOM     19  C   UNL     1       1.525   8.973  18.148  0.00  0.00    +0.000 A 
ATOM     20  C   UNL     1       1.533   8.497  19.493  0.00  0.00    +0.000 A 
BRANCH  15  22
ATOM     21  C   UNL     1       1.771   9.235  22.829  0.00  0.00    +0.000 C 
ATOM     22  N   UNL     1       0.735   8.966  21.846  0.00  0.00    +0.000 N 
ATOM     23  C   UNL     1      -0.624   8.873  22.399  0.00  0.00    +0.000 C 
ENDBRANCH  15  22
ENDBRANCH  14  20
ENDBRANCH   1  14
TORSDOF 5
ENDMDL
MODEL 7
REMARK VINA RESULT:      -6.2      4.286      7.378
REMARK  Name = 
REMARK  7 active torsions:
REMARK  status: ('A' for Active; 'I' for Inactive)
REMARK    1  A    between atoms: C_1  and  N_2
REMARK    2  A    between atoms: N_2  and  C_3
REMARK    3  A    between atoms: N_2  and  C_4
REMARK    4  A    between atoms: C_9  and  C_10
REMARK    5  A    between atoms: C_10  and  S_11
REMARK    6  A    between atoms: S_11  and  C_13
REMARK    7  A    between atoms: N_17  and  C_18
REMARK                            x       y       z     vdW  Elec       q    Type
REMARK                         _______ _______ _______ _____ _____    ______ ____
ROOT
ATOM      1  S   UNL     1       2.022   8.671  18.904  0.00  0.00    +0.000 S 
ATOM      2  O   UNL     1       1.012   8.811  17.709  0.00  0.00    +0.000 OA
ENDROOT
BRANCH   1   3
ATOM      3  C   UNL     1       1.145   9.043  20.357  0.00  0.00    +0.000 A 
ATOM      4  N   UNL     1       1.141   8.293  21.442  0.00  0.00    +0.000 NA
ATOM      5  C   UNL     1       0.501   9.035  22.396  0.00  0.00    +0.000 A 
ATOM      6  C   UNL     1       0.177  10.281  21.912  0.00  0.00    +0.000 A 
ATOM      7  N   UNL     1       0.512  10.261  20.576  0.00  0.00    +0.000 N 
BRANCH   7   8
ATOM      8  C   UNL     1       0.383  11.328  19.657  0.00  0.00    +0.000 A 
ATOM      9  C   UNL     1       1.380  12.300  19.527  0.00  0.00    +0.000 A 
ATOM     10  C   UNL     1       1.128  13.439  18.771  0.00  0.00    +0.000 A 
ATOM     11  C   UNL     1      -0.105  13.554  18.154  0.00  0.00    +0.000 A 
ATOM     12  N   UNL     1      -1.063  12.600  18.205  0.00  0.00    +0.000 NA
ATOM     13  C   UNL     1      -0.797  11.498  18.946  0.00  0.00    +0.000 A 
ENDBRANCH   7   8
ENDBRANCH   1   3
BRANCH   1  14
ATOM     14  C   UNL     1       2.415   6.910  19.161  0.00  0.00    +0.000 C 
BRANCH  14  20
ATOM     15  C   UNL     1       3.464   4.882  17.924  0.00  0.00    +0.000 A 
ATOM     16  C   UNL     1       4.371   4.455  16.917  0.00  0.00    +0.000 A 
ATOM     17  C   UNL     1       5.120   5.326  16.126  0.00  0.00    +0.000 A 
ATOM     18  C   UNL     1       5.001   6.681  16.317  0.00  0.00    +0.000 A 
ATOM     19  C   UNL     1       4.131   7.149  17.295  0.00  0.00    +0.000 A 
ATOM     20  C   UNL     1       3.355   6.286  18.125  0.00  0.00    +0.000 A 
BRANCH  15  22
ATOM     21  C   UNL     1       1.492   3.359  18.281  0.00  0.00    +0.000 C 
ATOM     22  N   UNL     1       2.805   3.871  18.634  0.00  0.00    +0.000 N 
ATOM     23  C   UNL     1       3.634   2.945  19.418  0.00  0.00    +0.000 C 
ENDBRANCH  15  22
ENDBRANCH  14  20
ENDBRANCH   1  14
TORSDOF 5
ENDMDL
MODEL 8
REMARK VINA RESULT:      -6.2      2.752      4.224
REMARK  Name = 
REMARK  7 active torsions:
REMARK  status: ('A' for Active; 'I' for Inactive)
REMARK    1  A    between atoms: C_1  and  N_2
REMARK    2  A    between atoms: N_2  and  C_3
REMARK    3  A    between atoms: N_2  and  C_4
REMARK    4  A    between atoms: C_9  and  C_10
REMARK    5  A    between atoms: C_10  and  S_11
REMARK    6  A    between atoms: S_11  and  C_13
REMARK    7  A    between atoms: N_17  and  C_18
REMARK                            x       y       z     vdW  Elec       q    Type
REMARK                         _______ _______ _______ _____ _____    ______ ____
ROOT
ATOM      1  S   UNL     1       2.782   5.843  20.142  0.00  0.00    +0.000 S 
ATOM      2  O   UNL     1       1.615   5.254  21.013  0.00  0.00    +0.000 OA
ENDROOT
BRANCH   1   3
ATOM      3  C   UNL     1       3.000   4.770  18.792  0.00  0.00    +0.000 A 
ATOM      4  N   UNL     1       2.047   4.025  18.267  0.00  0.00    +0.000 NA
ATOM      5  C   UNL     1       2.585   3.496  17.126  0.00  0.00    +0.000 A 
ATOM      6  C   UNL     1       3.854   3.983  16.911  0.00  0.00    +0.000 A 
ATOM      7  N   UNL     1       4.157   4.736  18.025  0.00  0.00    +0.000 N 
BRANCH   7   8
ATOM      8  C   UNL     1       5.352   5.458  18.255  0.00  0.00    +0.000 A 
ATOM      9  C   UNL     1       5.763   6.476  17.390  0.00  0.00    +0.000 A 
ATOM     10  C   UNL     1       7.036   7.017  17.530  0.00  0.00    +0.000 A 
ATOM     11  C   UNL     1       7.843   6.536  18.547  0.00  0.00    +0.000 A 
ATOM     12  N   UNL     1       7.447   5.600  19.441  0.00  0.00    +0.000 NA
ATOM     13  C   UNL     1       6.203   5.087  19.287  0.00  0.00    +0.000 A 
ENDBRANCH   7   8
ENDBRANCH   1   3
BRANCH   1  14
ATOM     14  C   UNL     1       2.210   7.359  19.309  0.00  0.00    +0.000 C 
BRANCH  14  20
ATOM     15  C   UNL     1       0.804   9.507  19.700  0.00  0.00    +0.000 A 
ATOM     16  C   UNL     1       0.198  10.362  20.660  0.00  0.00    +0.000 A 
ATOM     17  C   UNL     1       0.247  10.142  22.036  0.00  0.00    +0.000 A 
ATOM     18  C   UNL     1       0.921   9.048  22.521  0.00  0.00    +0.000 A 
ATOM     19  C   UNL     1       1.537   8.184  21.622  0.00  0.00    +0.000 A 
ATOM     20  C   UNL     1       1.512   8.383  20.209  0.00  0.00    +0.000 A 
BRANCH  15  22
ATOM     21  C   UNL     1      -0.610  10.061  17.692  0.00  0.00    +0.000 C 
ATOM     22  N   UNL     1       0.670   9.887  18.359  0.00  0.00    +0.000 N 
ATOM     23  C   UNL     1       1.784  10.628  17.751  0.00  0.00    +0.000 C 
ENDBRANCH  15  22
ENDBRANCH  14  20
ENDBRANCH   1  14
TORSDOF 5
ENDMDL
MODEL 9
REMARK VINA RESULT:      -6.2      1.512      6.163
REMARK  Name = 
REMARK  7 active torsions:
REMARK  status: ('A' for Active; 'I' for Inactive)
REMARK    1  A    between atoms: C_1  and  N_2
REMARK    2  A    between atoms: N_2  and  C_3
REMARK    3  A    between atoms: N_2  and  C_4
REMARK    4  A    between atoms: C_9  and  C_10
REMARK    5  A    between atoms: C_10  and  S_11
REMARK    6  A    between atoms: S_11  and  C_13
REMARK    7  A    between atoms: N_17  and  C_18
REMARK                            x       y       z     vdW  Elec       q    Type
REMARK                         _______ _______ _______ _____ _____    ______ ____
ROOT
ATOM      1  S   UNL     1       3.070   4.096  17.652  0.00  0.00    +0.000 S 
ATOM      2  O   UNL     1       2.352   2.964  16.834  0.00  0.00    +0.000 OA
ENDROOT
BRANCH   1   3
ATOM      3  C   UNL     1       2.632   3.876  19.319  0.00  0.00    +0.000 A 
ATOM      4  N   UNL     1       2.818   2.763  20.002  0.00  0.00    +0.000 NA
ATOM      5  C   UNL     1       2.522   3.077  21.300  0.00  0.00    +0.000 A 
ATOM      6  C   UNL     1       2.225   4.414  21.425  0.00  0.00    +0.000 A 
ATOM      7  N   UNL     1       2.210   4.914  20.141  0.00  0.00    +0.000 N 
BRANCH   7   8
ATOM      8  C   UNL     1       1.972   6.256  19.761  0.00  0.00    +0.000 A 
ATOM      9  C   UNL     1       2.369   6.738  18.510  0.00  0.00    +0.000 A 
ATOM     10  C   UNL     1       2.307   8.103  18.254  0.00  0.00    +0.000 A 
ATOM     11  C   UNL     1       1.828   8.934  19.252  0.00  0.00    +0.000 A 
ATOM     12  N   UNL     1       1.373   8.489  20.446  0.00  0.00    +0.000 NA
ATOM     13  C   UNL     1       1.441   7.156  20.674  0.00  0.00    +0.000 A 
ENDBRANCH   7   8
ENDBRANCH   1   3
BRANCH   1  14
ATOM     14  C   UNL     1       4.861   3.763  17.703  0.00  0.00    +0.000 C 
BRANCH  14  20
ATOM     15  C   UNL     1       6.656   5.221  16.522  0.00  0.00    +0.000 A 
ATOM     16  C   UNL     1       7.311   5.523  15.298  0.00  0.00    +0.000 A 
ATOM     17  C   UNL     1       7.036   4.883  14.090  0.00  0.00    +0.000 A 
ATOM     18  C   UNL     1       6.073   3.904  14.051  0.00  0.00    +0.000 A 
ATOM     19  C   UNL     1       5.398   3.575  15.221  0.00  0.00    +0.000 A 
ATOM     20  C   UNL     1       5.651   4.215  16.471  0.00  0.00    +0.000 A 
BRANCH  15  22
ATOM     21  C   UNL     1       7.730   5.414  18.791  0.00  0.00    +0.000 C 
ATOM     22  N   UNL     1       7.046   5.973  17.637  0.00  0.00    +0.000 N 
ATOM     23  C   UNL     1       7.253   7.415  17.441  0.00  0.00    +0.000 C 
ENDBRANCH  15  22
ENDBRANCH  14  20
ENDBRANCH   1  14
TORSDOF 5
ENDMDL
