MODEL 1
REMARK VINA RESULT:      -7.8      0.000      0.000
REMARK  Name = 
REMARK  7 active torsions:
REMARK  status: ('A' for Active; 'I' for Inactive)
REMARK    1  A    between atoms: C_1  and  C_2
REMARK    2  A    between atoms: C_5  and  S_6
REMARK    3  A    between atoms: S_6  and  C_7
REMARK    4  A    between atoms: C_11  and  C_12
REMARK    5  A    between atoms: C_12  and  O_14
REMARK    6  A    between atoms: O_14  and  C_15
REMARK    7  A    between atoms: C_15  and  C_16
REMARK                            x       y       z     vdW  Elec       q    Type
REMARK                         _______ _______ _______ _____ _____    ______ ____
ROOT
ATOM      1  C   UNL     1       2.510   5.806  20.025  0.00  0.00    +0.000 C 
ATOM      2  O   UNL     1       2.038   5.231  20.991  0.00  0.00    +0.000 OA
ENDROOT
BRANCH   1   9
ATOM      3  C   UNL     1       1.427   4.158  17.726  0.00  0.00    +0.000 C 
ATOM      4  C   UNL     1       2.892   4.446  17.907  0.00  0.00    +0.000 A 
ATOM      5  C   UNL     1       3.795   3.960  16.940  0.00  0.00    +0.000 A 
ATOM      6  C   UNL     1       5.165   4.203  17.040  0.00  0.00    +0.000 A 
ATOM      7  C   UNL     1       5.651   4.936  18.120  0.00  0.00    +0.000 A 
ATOM      8  C   UNL     1       4.783   5.410  19.102  0.00  0.00    +0.000 A 
ATOM      9  C   UNL     1       3.400   5.177  19.004  0.00  0.00    +0.000 A 
BRANCH   7  10
ATOM     10  S   UNL     1       7.386   5.282  18.262  0.00  0.00    +0.000 S 
ATOM     11  C   UNL     1       7.561   6.936  17.643  0.00  0.00    +0.000 C 
ATOM     12  O   UNL     1       7.698   5.284  19.676  0.00  0.00    +0.000 OA
ATOM     13  O   UNL     1       8.084   4.401  17.344  0.00  0.00    +0.000 OA
ENDBRANCH   7  10
ENDBRANCH   1   9
BRANCH   1  14
ATOM     14  O   UNL     1       2.242   7.082  19.651  0.00  0.00    +0.000 OA
BRANCH  14  15
ATOM     15  C   UNL     1       1.590   7.895  20.639  0.00  0.00    +0.000 C 
BRANCH  15  16
ATOM     16  C   UNL     1       1.067   9.176  19.973  0.00  0.00    +0.000 C 
ATOM     17  O   UNL     1       1.264   9.414  18.775  0.00  0.00    +0.000 OA
ATOM     18  N   UNL     1       0.370  10.074  20.773  0.00  0.00    +0.000 N 
ATOM     19  C   UNL     1      -0.286  11.219  20.187  0.00  0.00    +0.000 C 
ATOM     20  C   UNL     1      -0.605  12.124  21.357  0.00  0.00    +0.000 C 
ATOM     21  C   UNL     1      -0.752  11.169  22.529  0.00  0.00    +0.000 C 
ATOM     22  C   UNL     1       0.143  10.014  22.152  0.00  0.00    +0.000 C 
ATOM     23  O   UNL     1       0.558   9.176  22.935  0.00  0.00    +0.000 OA
ENDBRANCH  15  16
ENDBRANCH  14  15
ENDBRANCH   1  14
TORSDOF 5
ENDMDL
MODEL 2
REMARK VINA RESULT:      -7.3      1.524      1.829
REMARK  Name = 
REMARK  7 active torsions:
REMARK  status: ('A' for Active; 'I' for Inactive)
REMARK    1  A    between atoms: C_1  and  C_2
REMARK    2  A    between atoms: C_5  and  S_6
REMARK    3  A    between atoms: S_6  and  C_7
REMARK    4  A    between atoms: C_11  and  C_12
REMARK    5  A    between atoms: C_12  and  O_14
REMARK    6  A    between atoms: O_14  and  C_15
REMARK    7  A    between atoms: C_15  and  C_16
REMARK                            x       y       z     vdW  Elec       q    Type
REMARK                         _______ _______ _______ _____ _____    ______ ____
ROOT
ATOM      1  C   UNL     1       2.608   7.091  18.685  0.00  0.00    +0.000 C 
ATOM      2  O   UNL     1       2.283   7.176  19.857  0.00  0.00    +0.000 OA
ENDROOT
BRANCH   1   9
ATOM      3  C   UNL     1       1.328   4.451  17.932  0.00  0.00    +0.000 C 
ATOM      4  C   UNL     1       2.783   4.749  17.700  0.00  0.00    +0.000 A 
ATOM      5  C   UNL     1       3.576   3.770  17.067  0.00  0.00    +0.000 A 
ATOM      6  C   UNL     1       4.928   3.987  16.810  0.00  0.00    +0.000 A 
ATOM      7  C   UNL     1       5.511   5.194  17.191  0.00  0.00    +0.000 A 
ATOM      8  C   UNL     1       4.756   6.172  17.838  0.00  0.00    +0.000 A 
ATOM      9  C   UNL     1       3.389   5.964  18.092  0.00  0.00    +0.000 A 
BRANCH   7  10
ATOM     10  S   UNL     1       7.225   5.510  16.855  0.00  0.00    +0.000 S 
ATOM     11  C   UNL     1       7.586   6.998  17.751  0.00  0.00    +0.000 C 
ATOM     12  O   UNL     1       7.975   4.422  17.447  0.00  0.00    +0.000 OA
ATOM     13  O   UNL     1       7.343   5.817  15.441  0.00  0.00    +0.000 OA
ENDBRANCH   7  10
ENDBRANCH   1   9
BRANCH   1  14
ATOM     14  O   UNL     1       2.246   7.945  17.695  0.00  0.00    +0.000 OA
BRANCH  14  15
ATOM     15  C   UNL     1       1.163   8.834  18.009  0.00  0.00    +0.000 C 
BRANCH  15  16
ATOM     16  C   UNL     1       1.718  10.250  18.223  0.00  0.00    +0.000 C 
ATOM     17  O   UNL     1       2.612  10.714  17.504  0.00  0.00    +0.000 OA
ATOM     18  N   UNL     1       1.186  10.994  19.268  0.00  0.00    +0.000 N 
ATOM     19  C   UNL     1       1.543  12.384  19.433  0.00  0.00    +0.000 C 
ATOM     20  C   UNL     1       1.084  12.739  20.830  0.00  0.00    +0.000 C 
ATOM     21  C   UNL     1      -0.078  11.795  21.086  0.00  0.00    +0.000 C 
ATOM     22  C   UNL     1       0.253  10.596  20.231  0.00  0.00    +0.000 C 
ATOM     23  O   UNL     1      -0.247   9.492  20.366  0.00  0.00    +0.000 OA
ENDBRANCH  15  16
ENDBRANCH  14  15
ENDBRANCH   1  14
TORSDOF 5
ENDMDL
MODEL 3
REMARK VINA RESULT:      -7.3      4.753      8.136
REMARK  Name = 
REMARK  7 active torsions:
REMARK  status: ('A' for Active; 'I' for Inactive)
REMARK    1  A    between atoms: C_1  and  C_2
REMARK    2  A    between atoms: C_5  and  S_6
REMARK    3  A    between atoms: S_6  and  C_7
REMARK    4  A    between atoms: C_11  and  C_12
REMARK    5  A    between atoms: C_12  and  O_14
REMARK    6  A    between atoms: O_14  and  C_15
REMARK    7  A    between atoms: C_15  and  C_16
REMARK                            x       y       z     vdW  Elec       q    Type
REMARK                         _______ _______ _______ _____ _____    ______ ____
ROOT
ATOM      1  C   UNL     1       6.413   5.169  18.800  0.00  0.00    +0.000 C 
ATOM      2  O   UNL     1       7.103   5.864  19.525  0.00  0.00    +0.000 OA
ENDROOT
BRANCH   1   9
ATOM      3  C   UNL     1       4.967   7.384  17.325  0.00  0.00    +0.000 C 
ATOM      4  C   UNL     1       4.250   6.242  17.990  0.00  0.00    +0.000 A 
ATOM      5  C   UNL     1       2.846   6.180  17.888  0.00  0.00    +0.000 A 
ATOM      6  C   UNL     1       2.121   5.142  18.470  0.00  0.00    +0.000 A 
ATOM      7  C   UNL     1       2.797   4.147  19.172  0.00  0.00    +0.000 A 
ATOM      8  C   UNL     1       4.184   4.195  19.308  0.00  0.00    +0.000 A 
ATOM      9  C   UNL     1       4.923   5.234  18.716  0.00  0.00    +0.000 A 
BRANCH   7  10
ATOM     10  S   UNL     1       1.904   2.799  19.904  0.00  0.00    +0.000 S 
ATOM     11  C   UNL     1       2.590   2.644  21.533  0.00  0.00    +0.000 C 
ATOM     12  O   UNL     1       0.525   3.225  20.023  0.00  0.00    +0.000 OA
ATOM     13  O   UNL     1       2.253   1.596  19.171  0.00  0.00    +0.000 OA
ENDBRANCH   7  10
ENDBRANCH   1   9
BRANCH   1  14
ATOM     14  O   UNL     1       6.868   4.284  17.878  0.00  0.00    +0.000 OA
BRANCH  14  15
ATOM     15  C   UNL     1       7.062   4.809  16.556  0.00  0.00    +0.000 C 
BRANCH  15  16
ATOM     16  C   UNL     1       6.285   3.946  15.551  0.00  0.00    +0.000 C 
ATOM     17  O   UNL     1       5.459   3.101  15.921  0.00  0.00    +0.000 OA
ATOM     18  N   UNL     1       6.552   4.139  14.201  0.00  0.00    +0.000 N 
ATOM     19  C   UNL     1       5.752   3.481  13.196  0.00  0.00    +0.000 C 
ATOM     20  C   UNL     1       6.542   3.627  11.914  0.00  0.00    +0.000 C 
ATOM     21  C   UNL     1       7.338   4.905  12.119  0.00  0.00    +0.000 C 
ATOM     22  C   UNL     1       7.513   4.970  13.616  0.00  0.00    +0.000 C 
ATOM     23  O   UNL     1       8.342   5.659  14.186  0.00  0.00    +0.000 OA
ENDBRANCH  15  16
ENDBRANCH  14  15
ENDBRANCH   1  14
TORSDOF 5
ENDMDL
MODEL 4
REMARK VINA RESULT:      -7.3      1.040      1.095
REMARK  Name = 
REMARK  7 active torsions:
REMARK  status: ('A' for Active; 'I' for Inactive)
REMARK    1  A    between atoms: C_1  and  C_2
REMARK    2  A    between atoms: C_5  and  S_6
REMARK    3  A    between atoms: S_6  and  C_7
REMARK    4  A    between atoms: C_11  and  C_12
REMARK    5  A    between atoms: C_12  and  O_14
REMARK    6  A    between atoms: O_14  and  C_15
REMARK    7  A    between atoms: C_15  and  C_16
REMARK                            x       y       z     vdW  Elec       q    Type
REMARK                         _______ _______ _______ _____ _____    ______ ____
ROOT
ATOM      1  C   UNL     1       2.554   6.290  19.634  0.00  0.00    +0.000 C 
ATOM      2  O   UNL     1       1.822   5.884  20.521  0.00  0.00    +0.000 OA
ENDROOT
BRANCH   1   9
ATOM      3  C   UNL     1       1.406   4.241  17.721  0.00  0.00    +0.000 C 
ATOM      4  C   UNL     1       2.881   4.503  17.850  0.00  0.00    +0.000 A 
ATOM      5  C   UNL     1       3.765   3.791  17.014  0.00  0.00    +0.000 A 
ATOM      6  C   UNL     1       5.143   3.995  17.073  0.00  0.00    +0.000 A 
ATOM      7  C   UNL     1       5.658   4.918  17.980  0.00  0.00    +0.000 A 
ATOM      8  C   UNL     1       4.809   5.620  18.834  0.00  0.00    +0.000 A 
ATOM      9  C   UNL     1       3.418   5.426  18.775  0.00  0.00    +0.000 A 
BRANCH   7  10
ATOM     10  S   UNL     1       7.405   5.218  18.062  0.00  0.00    +0.000 S 
ATOM     11  C   UNL     1       7.589   6.911  17.562  0.00  0.00    +0.000 C 
ATOM     12  O   UNL     1       7.785   5.106  19.455  0.00  0.00    +0.000 OA
ATOM     13  O   UNL     1       8.038   4.396  17.047  0.00  0.00    +0.000 OA
ENDBRANCH   7  10
ENDBRANCH   1   9
BRANCH   1  14
ATOM     14  O   UNL     1       2.648   7.574  19.206  0.00  0.00    +0.000 OA
BRANCH  14  15
ATOM     15  C   UNL     1       1.479   8.100  18.559  0.00  0.00    +0.000 C 
BRANCH  15  16
ATOM     16  C   UNL     1       1.608   9.626  18.447  0.00  0.00    +0.000 C 
ATOM     17  O   UNL     1       2.224  10.160  17.517  0.00  0.00    +0.000 OA
ATOM     18  N   UNL     1       1.013  10.392  19.442  0.00  0.00    +0.000 N 
ATOM     19  C   UNL     1       0.955  11.830  19.322  0.00  0.00    +0.000 C 
ATOM     20  C   UNL     1       0.591  12.320  20.706  0.00  0.00    +0.000 C 
ATOM     21  C   UNL     1      -0.195  11.168  21.308  0.00  0.00    +0.000 C 
ATOM     22  C   UNL     1       0.370   9.958  20.606  0.00  0.00    +0.000 C 
ATOM     23  O   UNL     1       0.245   8.810  20.998  0.00  0.00    +0.000 OA
ENDBRANCH  15  16
ENDBRANCH  14  15
ENDBRANCH   1  14
TORSDOF 5
ENDMDL
MODEL 5
REMARK VINA RESULT:      -7.3      1.691      2.005
REMARK  Name = 
REMARK  7 active torsions:
REMARK  status: ('A' for Active; 'I' for Inactive)
REMARK    1  A    between atoms: C_1  and  C_2
REMARK    2  A    between atoms: C_5  and  S_6
REMARK    3  A    between atoms: S_6  and  C_7
REMARK    4  A    between atoms: C_11  and  C_12
REMARK    5  A    between atoms: C_12  and  O_14
REMARK    6  A    between atoms: O_14  and  C_15
REMARK    7  A    between atoms: C_15  and  C_16
REMARK                            x       y       z     vdW  Elec       q    Type
REMARK                         _______ _______ _______ _____ _____    ______ ____
ROOT
ATOM      1  C   UNL     1       2.760   7.026  18.668  0.00  0.00    +0.000 C 
ATOM      2  O   UNL     1       2.438   7.092  19.842  0.00  0.00    +0.000 OA
ENDROOT
BRANCH   1   9
ATOM      3  C   UNL     1       1.367   4.383  18.169  0.00  0.00    +0.000 C 
ATOM      4  C   UNL     1       2.790   4.647  17.761  0.00  0.00    +0.000 A 
ATOM      5  C   UNL     1       3.492   3.632  17.080  0.00  0.00    +0.000 A 
ATOM      6  C   UNL     1       4.809   3.815  16.661  0.00  0.00    +0.000 A 
ATOM      7  C   UNL     1       5.446   5.025  16.927  0.00  0.00    +0.000 A 
ATOM      8  C   UNL     1       4.784   6.039  17.617  0.00  0.00    +0.000 A 
ATOM      9  C   UNL     1       3.452   5.864  18.034  0.00  0.00    +0.000 A 
BRANCH   7  10
ATOM     10  S   UNL     1       7.115   5.299  16.385  0.00  0.00    +0.000 S 
ATOM     11  C   UNL     1       7.112   4.819  14.677  0.00  0.00    +0.000 C 
ATOM     12  O   UNL     1       7.351   6.726  16.462  0.00  0.00    +0.000 OA
ATOM     13  O   UNL     1       7.964   4.362  17.096  0.00  0.00    +0.000 OA
ENDBRANCH   7  10
ENDBRANCH   1   9
BRANCH   1  14
ATOM     14  O   UNL     1       2.469   7.942  17.711  0.00  0.00    +0.000 OA
BRANCH  14  15
ATOM     15  C   UNL     1       1.322   8.767  17.970  0.00  0.00    +0.000 C 
BRANCH  15  16
ATOM     16  C   UNL     1       1.783  10.215  18.192  0.00  0.00    +0.000 C 
ATOM     17  O   UNL     1       2.624  10.751  17.458  0.00  0.00    +0.000 OA
ATOM     18  N   UNL     1       1.228  10.906  19.262  0.00  0.00    +0.000 N 
ATOM     19  C   UNL     1       1.491  12.315  19.439  0.00  0.00    +0.000 C 
ATOM     20  C   UNL     1       1.046  12.618  20.853  0.00  0.00    +0.000 C 
ATOM     21  C   UNL     1      -0.041  11.592  21.123  0.00  0.00    +0.000 C 
ATOM     22  C   UNL     1       0.350  10.431  20.242  0.00  0.00    +0.000 C 
ATOM     23  O   UNL     1      -0.067   9.292  20.372  0.00  0.00    +0.000 OA
ENDBRANCH  15  16
ENDBRANCH  14  15
ENDBRANCH   1  14
TORSDOF 5
ENDMDL
MODEL 6
REMARK VINA RESULT:      -7.3      4.829      8.179
REMARK  Name = 
REMARK  7 active torsions:
REMARK  status: ('A' for Active; 'I' for Inactive)
REMARK    1  A    between atoms: C_1  and  C_2
REMARK    2  A    between atoms: C_5  and  S_6
REMARK    3  A    between atoms: S_6  and  C_7
REMARK    4  A    between atoms: C_11  and  C_12
REMARK    5  A    between atoms: C_12  and  O_14
REMARK    6  A    between atoms: O_14  and  C_15
REMARK    7  A    between atoms: C_15  and  C_16
REMARK                            x       y       z     vdW  Elec       q    Type
REMARK                         _______ _______ _______ _____ _____    ______ ____
ROOT
ATOM      1  C   UNL     1       6.597   5.269  18.678  0.00  0.00    +0.000 C 
ATOM      2  O   UNL     1       7.255   5.960  19.437  0.00  0.00    +0.000 OA
ENDROOT
BRANCH   1   9
ATOM      3  C   UNL     1       4.912   7.524  17.557  0.00  0.00    +0.000 C 
ATOM      4  C   UNL     1       4.321   6.245  18.083  0.00  0.00    +0.000 A 
ATOM      5  C   UNL     1       2.924   6.073  18.014  0.00  0.00    +0.000 A 
ATOM      6  C   UNL     1       2.313   4.906  18.471  0.00  0.00    +0.000 A 
ATOM      7  C   UNL     1       3.098   3.892  19.013  0.00  0.00    +0.000 A 
ATOM      8  C   UNL     1       4.480   4.043  19.114  0.00  0.00    +0.000 A 
ATOM      9  C   UNL     1       5.105   5.213  18.647  0.00  0.00    +0.000 A 
BRANCH   7  10
ATOM     10  S   UNL     1       2.352   2.385  19.581  0.00  0.00    +0.000 S 
ATOM     11  C   UNL     1       0.764   2.349  18.790  0.00  0.00    +0.000 C 
ATOM     12  O   UNL     1       3.152   1.297  19.057  0.00  0.00    +0.000 OA
ATOM     13  O   UNL     1       2.122   2.522  21.007  0.00  0.00    +0.000 OA
ENDBRANCH   7  10
ENDBRANCH   1   9
BRANCH   1  14
ATOM     14  O   UNL     1       7.089   4.505  17.670  0.00  0.00    +0.000 OA
BRANCH  14  15
ATOM     15  C   UNL     1       7.028   5.091  16.360  0.00  0.00    +0.000 C 
BRANCH  15  16
ATOM     16  C   UNL     1       6.276   4.142  15.417  0.00  0.00    +0.000 C 
ATOM     17  O   UNL     1       5.443   3.330  15.840  0.00  0.00    +0.000 OA
ATOM     18  N   UNL     1       6.572   4.219  14.062  0.00  0.00    +0.000 N 
ATOM     19  C   UNL     1       5.796   3.473  13.100  0.00  0.00    +0.000 C 
ATOM     20  C   UNL     1       6.614   3.512  11.828  0.00  0.00    +0.000 C 
ATOM     21  C   UNL     1       7.404   4.804  11.939  0.00  0.00    +0.000 C 
ATOM     22  C   UNL     1       7.545   4.999  13.429  0.00  0.00    +0.000 C 
ATOM     23  O   UNL     1       8.360   5.737  13.955  0.00  0.00    +0.000 OA
ENDBRANCH  15  16
ENDBRANCH  14  15
ENDBRANCH   1  14
TORSDOF 5
ENDMDL
MODEL 7
REMARK VINA RESULT:      -7.3      1.388      2.092
REMARK  Name = 
REMARK  7 active torsions:
REMARK  status: ('A' for Active; 'I' for Inactive)
REMARK    1  A    between atoms: C_1  and  C_2
REMARK    2  A    between atoms: C_5  and  S_6
REMARK    3  A    between atoms: S_6  and  C_7
REMARK    4  A    between atoms: C_11  and  C_12
REMARK    5  A    between atoms: C_12  and  O_14
REMARK    6  A    between atoms: O_14  and  C_15
REMARK    7  A    between atoms: C_15  and  C_16
REMARK                            x       y       z     vdW  Elec       q    Type
REMARK                         _______ _______ _______ _____ _____    ______ ____
ROOT
ATOM      1  C   UNL     1       2.606   7.568  18.026  0.00  0.00    +0.000 C 
ATOM      2  O   UNL     1       2.370   8.399  17.166  0.00  0.00    +0.000 OA
ENDROOT
BRANCH   1   9
ATOM      3  C   UNL     1       1.346   4.817  17.893  0.00  0.00    +0.000 C 
ATOM      4  C   UNL     1       2.821   5.050  17.715  0.00  0.00    +0.000 A 
ATOM      5  C   UNL     1       3.646   3.943  17.434  0.00  0.00    +0.000 A 
ATOM      6  C   UNL     1       5.019   4.090  17.244  0.00  0.00    +0.000 A 
ATOM      7  C   UNL     1       5.589   5.358  17.340  0.00  0.00    +0.000 A 
ATOM      8  C   UNL     1       4.800   6.468  17.638  0.00  0.00    +0.000 A 
ATOM      9  C   UNL     1       3.413   6.328  17.822  0.00  0.00    +0.000 A 
BRANCH   7  10
ATOM     10  S   UNL     1       7.330   5.583  17.079  0.00  0.00    +0.000 S 
ATOM     11  C   UNL     1       7.745   7.006  18.055  0.00  0.00    +0.000 C 
ATOM     12  O   UNL     1       7.991   4.426  17.648  0.00  0.00    +0.000 OA
ATOM     13  O   UNL     1       7.521   5.942  15.687  0.00  0.00    +0.000 OA
ENDBRANCH   7  10
ENDBRANCH   1   9
BRANCH   1  14
ATOM     14  O   UNL     1       2.263   7.661  19.336  0.00  0.00    +0.000 OA
BRANCH  14  15
ATOM     15  C   UNL     1       1.518   8.833  19.701  0.00  0.00    +0.000 C 
BRANCH  15  16
ATOM     16  C   UNL     1       0.881   8.616  21.081  0.00  0.00    +0.000 C 
ATOM     17  O   UNL     1       0.926   7.520  21.654  0.00  0.00    +0.000 OA
ATOM     18  N   UNL     1       0.237   9.700  21.666  0.00  0.00    +0.000 N 
ATOM     19  C   UNL     1      -0.246   9.618  23.024  0.00  0.00    +0.000 C 
ATOM     20  C   UNL     1      -1.179  10.799  23.176  0.00  0.00    +0.000 C 
ATOM     21  C   UNL     1      -0.641  11.821  22.189  0.00  0.00    +0.000 C 
ATOM     22  C   UNL     1       0.007  10.969  21.125  0.00  0.00    +0.000 C 
ATOM     23  O   UNL     1       0.292  11.359  20.005  0.00  0.00    +0.000 OA
ENDBRANCH  15  16
ENDBRANCH  14  15
ENDBRANCH   1  14
TORSDOF 5
ENDMDL
MODEL 8
REMARK VINA RESULT:      -7.2      4.222      8.057
REMARK  Name = 
REMARK  7 active torsions:
REMARK  status: ('A' for Active; 'I' for Inactive)
REMARK    1  A    between atoms: C_1  and  C_2
REMARK    2  A    between atoms: C_5  and  S_6
REMARK    3  A    between atoms: S_6  and  C_7
REMARK    4  A    between atoms: C_11  and  C_12
REMARK    5  A    between atoms: C_12  and  O_14
REMARK    6  A    between atoms: O_14  and  C_15
REMARK    7  A    between atoms: C_15  and  C_16
REMARK                            x       y       z     vdW  Elec       q    Type
REMARK                         _______ _______ _______ _____ _____    ______ ____
ROOT
ATOM      1  C   UNL     1       4.893   6.197  17.316  0.00  0.00    +0.000 C 
ATOM      2  O   UNL     1       4.761   6.936  16.356  0.00  0.00    +0.000 OA
ENDROOT
BRANCH   1   9
ATOM      3  C   UNL     1       2.823   8.282  18.051  0.00  0.00    +0.000 C 
ATOM      4  C   UNL     1       2.862   6.914  18.674  0.00  0.00    +0.000 A 
ATOM      5  C   UNL     1       1.867   6.575  19.612  0.00  0.00    +0.000 A 
ATOM      6  C   UNL     1       1.837   5.319  20.217  0.00  0.00    +0.000 A 
ATOM      7  C   UNL     1       2.815   4.382  19.892  0.00  0.00    +0.000 A 
ATOM      8  C   UNL     1       3.824   4.697  18.984  0.00  0.00    +0.000 A 
ATOM      9  C   UNL     1       3.855   5.958  18.363  0.00  0.00    +0.000 A 
BRANCH   7  10
ATOM     10  S   UNL     1       2.790   2.766  20.627  0.00  0.00    +0.000 S 
ATOM     11  C   UNL     1       4.397   2.097  20.283  0.00  0.00    +0.000 C 
ATOM     12  O   UNL     1       2.667   2.958  22.058  0.00  0.00    +0.000 OA
ATOM     13  O   UNL     1       1.823   1.968  19.896  0.00  0.00    +0.000 OA
ENDBRANCH   7  10
ENDBRANCH   1   9
BRANCH   1  14
ATOM     14  O   UNL     1       5.958   5.391  17.558  0.00  0.00    +0.000 OA
BRANCH  14  15
ATOM     15  C   UNL     1       6.806   5.126  16.430  0.00  0.00    +0.000 C 
BRANCH  15  16
ATOM     16  C   UNL     1       6.103   4.134  15.493  0.00  0.00    +0.000 C 
ATOM     17  O   UNL     1       5.262   3.328  15.910  0.00  0.00    +0.000 OA
ATOM     18  N   UNL     1       6.455   4.164  14.149  0.00  0.00    +0.000 N 
ATOM     19  C   UNL     1       5.728   3.374  13.183  0.00  0.00    +0.000 C 
ATOM     20  C   UNL     1       6.598   3.375  11.946  0.00  0.00    +0.000 C 
ATOM     21  C   UNL     1       7.369   4.681  12.041  0.00  0.00    +0.000 C 
ATOM     22  C   UNL     1       7.446   4.932  13.527  0.00  0.00    +0.000 C 
ATOM     23  O   UNL     1       8.230   5.699  14.059  0.00  0.00    +0.000 OA
ENDBRANCH  15  16
ENDBRANCH  14  15
ENDBRANCH   1  14
TORSDOF 5
ENDMDL
MODEL 9
REMARK VINA RESULT:      -7.2      1.482      1.788
REMARK  Name = 
REMARK  7 active torsions:
REMARK  status: ('A' for Active; 'I' for Inactive)
REMARK    1  A    between atoms: C_1  and  C_2
REMARK    2  A    between atoms: C_5  and  S_6
REMARK    3  A    between atoms: S_6  and  C_7
REMARK    4  A    between atoms: C_11  and  C_12
REMARK    5  A    between atoms: C_12  and  O_14
REMARK    6  A    between atoms: O_14  and  C_15
REMARK    7  A    between atoms: C_15  and  C_16
REMARK                            x       y       z     vdW  Elec       q    Type
REMARK                         _______ _______ _______ _____ _____    ______ ____
ROOT
ATOM      1  C   UNL     1       2.184   4.510  20.687  0.00  0.00    +0.000 C 
ATOM      2  O   UNL     1       2.254   4.004  21.794  0.00  0.00    +0.000 OA
ENDROOT
BRANCH   1   9
ATOM      3  C   UNL     1       0.856   2.526  18.824  0.00  0.00    +0.000 C 
ATOM      4  C   UNL     1       2.222   3.098  18.569  0.00  0.00    +0.000 A 
ATOM      5  C   UNL     1       2.897   2.724  17.389  0.00  0.00    +0.000 A 
ATOM      6  C   UNL     1       4.161   3.227  17.085  0.00  0.00    +0.000 A 
ATOM      7  C   UNL     1       4.772   4.115  17.968  0.00  0.00    +0.000 A 
ATOM      8  C   UNL     1       4.138   4.486  19.152  0.00  0.00    +0.000 A 
ATOM      9  C   UNL     1       2.859   3.989  19.461  0.00  0.00    +0.000 A 
BRANCH   7  10
ATOM     10  S   UNL     1       6.371   4.792  17.597  0.00  0.00    +0.000 S 
ATOM     11  C   UNL     1       6.079   6.531  17.392  0.00  0.00    +0.000 C 
ATOM     12  O   UNL     1       7.191   4.599  18.775  0.00  0.00    +0.000 OA
ATOM     13  O   UNL     1       6.779   4.267  16.308  0.00  0.00    +0.000 OA
ENDBRANCH   7  10
ENDBRANCH   1   9
BRANCH   1  14
ATOM     14  O   UNL     1       1.412   5.574  20.347  0.00  0.00    +0.000 OA
BRANCH  14  15
ATOM     15  C   UNL     1       1.905   6.857  20.765  0.00  0.00    +0.000 C 
BRANCH  15  16
ATOM     16  C   UNL     1       2.011   7.779  19.542  0.00  0.00    +0.000 C 
ATOM     17  O   UNL     1       2.756   7.514  18.590  0.00  0.00    +0.000 OA
ATOM     18  N   UNL     1       1.245   8.938  19.547  0.00  0.00    +0.000 N 
ATOM     19  C   UNL     1       1.171   9.771  18.370  0.00  0.00    +0.000 C 
ATOM     20  C   UNL     1       0.576  11.075  18.854  0.00  0.00    +0.000 C 
ATOM     21  C   UNL     1      -0.267  10.671  20.052  0.00  0.00    +0.000 C 
ATOM     22  C   UNL     1       0.434   9.439  20.571  0.00  0.00    +0.000 C 
ATOM     23  O   UNL     1       0.276   8.972  21.686  0.00  0.00    +0.000 OA
ENDBRANCH  15  16
ENDBRANCH  14  15
ENDBRANCH   1  14
TORSDOF 5
ENDMDL
