MODEL 1
REMARK VINA RESULT:      -6.5      0.000      0.000
REMARK  Name = 
REMARK  3 active torsions:
REMARK  status: ('A' for Active; 'I' for Inactive)
REMARK    1  A    between atoms: C_1  and  C_2
REMARK    2  A    between atoms: C_2  and  C_3
REMARK    3  A    between atoms: C_3  and  N_4
REMARK                            x       y       z     vdW  Elec       q    Type
REMARK                         _______ _______ _______ _____ _____    ______ ____
ROOT
ATOM      1  N   UNL     1       5.927   5.023  16.252  0.00  0.00    +0.000 N 
ATOM      2  C   UNL     1       7.044   5.742  16.669  0.00  0.00    +0.000 A 
ATOM      3  O   UNL     1       7.771   6.340  15.874  0.00  0.00    +0.000 OA
ATOM      4  O   UNL     1       7.350   5.787  17.990  0.00  0.00    +0.000 OA
ATOM      5  C   UNL     1       6.597   5.206  18.935  0.00  0.00    +0.000 A 
ATOM      6  O   UNL     1       6.915   5.245  20.119  0.00  0.00    +0.000 OA
ATOM      7  C   UNL     1       5.365   4.524  18.533  0.00  0.00    +0.000 A 
ATOM      8  C   UNL     1       4.522   3.986  19.519  0.00  0.00    +0.000 A 
ATOM      9  C   UNL     1       3.349   3.334  19.153  0.00  0.00    +0.000 A 
ATOM     10  C   UNL     1       3.034   3.205  17.805  0.00  0.00    +0.000 A 
ATOM     11  C   UNL     1       3.881   3.740  16.826  0.00  0.00    +0.000 A 
ATOM     12  C   UNL     1       5.054   4.422  17.185  0.00  0.00    +0.000 A 
ENDROOT
BRANCH   1  13
ATOM     13  C   UNL     1       5.631   5.024  14.817  0.00  0.00    +0.000 C 
BRANCH  13  15
ATOM     14  C   UNL     1       5.621   3.552  12.769  0.00  0.00    +0.000 C 
ATOM     15  C   UNL     1       6.312   3.862  14.088  0.00  0.00    +0.000 C 
ENDBRANCH  13  15
ENDBRANCH   1  13
TORSDOF 2
ENDMDL
MODEL 2
REMARK VINA RESULT:      -6.4      1.779      4.130
REMARK  Name = 
REMARK  3 active torsions:
REMARK  status: ('A' for Active; 'I' for Inactive)
REMARK    1  A    between atoms: C_1  and  C_2
REMARK    2  A    between atoms: C_2  and  C_3
REMARK    3  A    between atoms: C_3  and  N_4
REMARK                            x       y       z     vdW  Elec       q    Type
REMARK                         _______ _______ _______ _____ _____    ______ ____
ROOT
ATOM      1  N   UNL     1       3.701   4.574  18.165  0.00  0.00    +0.000 N 
ATOM      2  C   UNL     1       3.823   4.879  19.517  0.00  0.00    +0.000 A 
ATOM      3  O   UNL     1       2.857   4.859  20.282  0.00  0.00    +0.000 OA
ATOM      4  O   UNL     1       5.040   5.214  20.016  0.00  0.00    +0.000 OA
ATOM      5  C   UNL     1       6.157   5.221  19.275  0.00  0.00    +0.000 A 
ATOM      6  O   UNL     1       7.238   5.552  19.751  0.00  0.00    +0.000 OA
ATOM      7  C   UNL     1       6.073   4.811  17.871  0.00  0.00    +0.000 A 
ATOM      8  C   UNL     1       7.248   4.731  17.106  0.00  0.00    +0.000 A 
ATOM      9  C   UNL     1       7.185   4.346  15.771  0.00  0.00    +0.000 A 
ATOM     10  C   UNL     1       5.948   4.062  15.202  0.00  0.00    +0.000 A 
ATOM     11  C   UNL     1       4.779   4.147  15.969  0.00  0.00    +0.000 A 
ATOM     12  C   UNL     1       4.834   4.511  17.324  0.00  0.00    +0.000 A 
ENDROOT
BRANCH   1  13
ATOM     13  C   UNL     1       2.369   4.200  17.683  0.00  0.00    +0.000 C 
BRANCH  13  15
ATOM     14  C   UNL     1       0.888   2.446  18.727  0.00  0.00    +0.000 C 
ATOM     15  C   UNL     1       2.098   2.702  17.841  0.00  0.00    +0.000 C 
ENDBRANCH  13  15
ENDBRANCH   1  13
TORSDOF 2
ENDMDL
MODEL 3
REMARK VINA RESULT:      -6.4      2.215      2.499
REMARK  Name = 
REMARK  3 active torsions:
REMARK  status: ('A' for Active; 'I' for Inactive)
REMARK    1  A    between atoms: C_1  and  C_2
REMARK    2  A    between atoms: C_2  and  C_3
REMARK    3  A    between atoms: C_3  and  N_4
REMARK                            x       y       z     vdW  Elec       q    Type
REMARK                         _______ _______ _______ _____ _____    ______ ____
ROOT
ATOM      1  N   UNL     1       5.160   5.061  16.912  0.00  0.00    +0.000 N 
ATOM      2  C   UNL     1       5.297   6.446  16.933  0.00  0.00    +0.000 A 
ATOM      3  O   UNL     1       6.287   7.013  16.468  0.00  0.00    +0.000 OA
ATOM      4  O   UNL     1       4.315   7.203  17.485  0.00  0.00    +0.000 OA
ATOM      5  C   UNL     1       3.181   6.684  17.977  0.00  0.00    +0.000 A 
ATOM      6  O   UNL     1       2.323   7.393  18.491  0.00  0.00    +0.000 OA
ATOM      7  C   UNL     1       2.969   5.238  17.882  0.00  0.00    +0.000 A 
ATOM      8  C   UNL     1       1.751   4.690  18.314  0.00  0.00    +0.000 A 
ATOM      9  C   UNL     1       1.535   3.318  18.231  0.00  0.00    +0.000 A 
ATOM     10  C   UNL     1       2.544   2.499  17.736  0.00  0.00    +0.000 A 
ATOM     11  C   UNL     1       3.759   3.051  17.310  0.00  0.00    +0.000 A 
ATOM     12  C   UNL     1       3.978   4.436  17.366  0.00  0.00    +0.000 A 
ENDROOT
BRANCH   1  13
ATOM     13  C   UNL     1       6.240   4.294  16.287  0.00  0.00    +0.000 C 
BRANCH  13  15
ATOM     14  C   UNL     1       6.985   4.741  13.920  0.00  0.00    +0.000 C 
ATOM     15  C   UNL     1       5.974   4.027  14.803  0.00  0.00    +0.000 C 
ENDBRANCH  13  15
ENDBRANCH   1  13
TORSDOF 2
ENDMDL
MODEL 4
REMARK VINA RESULT:      -6.3      1.615      4.202
REMARK  Name = 
REMARK  3 active torsions:
REMARK  status: ('A' for Active; 'I' for Inactive)
REMARK    1  A    between atoms: C_1  and  C_2
REMARK    2  A    between atoms: C_2  and  C_3
REMARK    3  A    between atoms: C_3  and  N_4
REMARK                            x       y       z     vdW  Elec       q    Type
REMARK                         _______ _______ _______ _____ _____    ______ ____
ROOT
ATOM      1  N   UNL     1       4.364   3.536  17.801  0.00  0.00    +0.000 N 
ATOM      2  C   UNL     1       4.779   3.579  19.129  0.00  0.00    +0.000 A 
ATOM      3  O   UNL     1       4.105   3.096  20.041  0.00  0.00    +0.000 OA
ATOM      4  O   UNL     1       5.959   4.173  19.438  0.00  0.00    +0.000 OA
ATOM      5  C   UNL     1       6.783   4.687  18.513  0.00  0.00    +0.000 A 
ATOM      6  O   UNL     1       7.832   5.238  18.828  0.00  0.00    +0.000 OA
ATOM      7  C   UNL     1       6.416   4.570  17.100  0.00  0.00    +0.000 A 
ATOM      8  C   UNL     1       7.308   5.027  16.117  0.00  0.00    +0.000 A 
ATOM      9  C   UNL     1       6.973   4.925  14.771  0.00  0.00    +0.000 A 
ATOM     10  C   UNL     1       5.742   4.387  14.414  0.00  0.00    +0.000 A 
ATOM     11  C   UNL     1       4.854   3.936  15.400  0.00  0.00    +0.000 A 
ATOM     12  C   UNL     1       5.192   4.012  16.760  0.00  0.00    +0.000 A 
ENDROOT
BRANCH   1  13
ATOM     13  C   UNL     1       3.091   2.866  17.521  0.00  0.00    +0.000 C 
BRANCH  13  15
ATOM     14  C   UNL     1       0.876   3.180  18.683  0.00  0.00    +0.000 C 
ATOM     15  C   UNL     1       1.893   3.795  17.735  0.00  0.00    +0.000 C 
ENDBRANCH  13  15
ENDBRANCH   1  13
TORSDOF 2
ENDMDL
MODEL 5
REMARK VINA RESULT:      -6.3      3.166      5.345
REMARK  Name = 
REMARK  3 active torsions:
REMARK  status: ('A' for Active; 'I' for Inactive)
REMARK    1  A    between atoms: C_1  and  C_2
REMARK    2  A    between atoms: C_2  and  C_3
REMARK    3  A    between atoms: C_3  and  N_4
REMARK                            x       y       z     vdW  Elec       q    Type
REMARK                         _______ _______ _______ _____ _____    ______ ____
ROOT
ATOM      1  N   UNL     1       2.457   3.890  18.552  0.00  0.00    +0.000 N 
ATOM      2  C   UNL     1       3.057   2.707  18.128  0.00  0.00    +0.000 A 
ATOM      3  O   UNL     1       2.592   1.601  18.408  0.00  0.00    +0.000 OA
ATOM      4  O   UNL     1       4.193   2.766  17.387  0.00  0.00    +0.000 OA
ATOM      5  C   UNL     1       4.751   3.921  16.995  0.00  0.00    +0.000 A 
ATOM      6  O   UNL     1       5.791   3.940  16.346  0.00  0.00    +0.000 OA
ATOM      7  C   UNL     1       4.087   5.179  17.347  0.00  0.00    +0.000 A 
ATOM      8  C   UNL     1       4.613   6.390  16.870  0.00  0.00    +0.000 A 
ATOM      9  C   UNL     1       3.995   7.593  17.197  0.00  0.00    +0.000 A 
ATOM     10  C   UNL     1       2.869   7.582  18.012  0.00  0.00    +0.000 A 
ATOM     11  C   UNL     1       2.352   6.370  18.488  0.00  0.00    +0.000 A 
ATOM     12  C   UNL     1       2.953   5.148  18.144  0.00  0.00    +0.000 A 
ENDROOT
BRANCH   1  13
ATOM     13  C   UNL     1       1.223   3.770  19.332  0.00  0.00    +0.000 C 
BRANCH  13  15
ATOM     14  C   UNL     1       1.502   2.660  21.580  0.00  0.00    +0.000 C 
ATOM     15  C   UNL     1       1.465   3.982  20.829  0.00  0.00    +0.000 C 
ENDBRANCH  13  15
ENDBRANCH   1  13
TORSDOF 2
ENDMDL
MODEL 6
REMARK VINA RESULT:      -6.2      2.806      3.822
REMARK  Name = 
REMARK  3 active torsions:
REMARK  status: ('A' for Active; 'I' for Inactive)
REMARK    1  A    between atoms: C_1  and  C_2
REMARK    2  A    between atoms: C_2  and  C_3
REMARK    3  A    between atoms: C_3  and  N_4
REMARK                            x       y       z     vdW  Elec       q    Type
REMARK                         _______ _______ _______ _____ _____    ______ ____
ROOT
ATOM      1  N   UNL     1       4.013   5.164  18.296  0.00  0.00    +0.000 N 
ATOM      2  C   UNL     1       5.278   4.987  18.850  0.00  0.00    +0.000 A 
ATOM      3  O   UNL     1       6.153   5.851  18.771  0.00  0.00    +0.000 OA
ATOM      4  O   UNL     1       5.566   3.828  19.495  0.00  0.00    +0.000 OA
ATOM      5  C   UNL     1       4.668   2.848  19.672  0.00  0.00    +0.000 A 
ATOM      6  O   UNL     1       4.967   1.802  20.239  0.00  0.00    +0.000 OA
ATOM      7  C   UNL     1       3.302   3.047  19.183  0.00  0.00    +0.000 A 
ATOM      8  C   UNL     1       2.330   2.067  19.436  0.00  0.00    +0.000 A 
ATOM      9  C   UNL     1       1.028   2.240  18.977  0.00  0.00    +0.000 A 
ATOM     10  C   UNL     1       0.709   3.382  18.250  0.00  0.00    +0.000 A 
ATOM     11  C   UNL     1       1.685   4.355  17.997  0.00  0.00    +0.000 A 
ATOM     12  C   UNL     1       2.995   4.202  18.477  0.00  0.00    +0.000 A 
ENDROOT
BRANCH   1  13
ATOM     13  C   UNL     1       3.750   6.440  17.628  0.00  0.00    +0.000 C 
BRANCH  13  15
ATOM     14  C   UNL     1       2.319   8.515  17.689  0.00  0.00    +0.000 C 
ATOM     15  C   UNL     1       2.941   7.396  18.509  0.00  0.00    +0.000 C 
ENDBRANCH  13  15
ENDBRANCH   1  13
TORSDOF 2
ENDMDL
MODEL 7
REMARK VINA RESULT:      -6.2      2.777      3.956
REMARK  Name = 
REMARK  3 active torsions:
REMARK  status: ('A' for Active; 'I' for Inactive)
REMARK    1  A    between atoms: C_1  and  C_2
REMARK    2  A    between atoms: C_2  and  C_3
REMARK    3  A    between atoms: C_3  and  N_4
REMARK                            x       y       z     vdW  Elec       q    Type
REMARK                         _______ _______ _______ _____ _____    ______ ____
ROOT
ATOM      1  N   UNL     1       3.758   4.862  18.434  0.00  0.00    +0.000 N 
ATOM      2  C   UNL     1       5.108   4.525  18.383  0.00  0.00    +0.000 A 
ATOM      3  O   UNL     1       5.910   5.141  17.679  0.00  0.00    +0.000 OA
ATOM      4  O   UNL     1       5.562   3.483  19.126  0.00  0.00    +0.000 OA
ATOM      5  C   UNL     1       4.777   2.780  19.955  0.00  0.00    +0.000 A 
ATOM      6  O   UNL     1       5.213   1.829  20.595  0.00  0.00    +0.000 OA
ATOM      7  C   UNL     1       3.374   3.174  20.100  0.00  0.00    +0.000 A 
ATOM      8  C   UNL     1       2.562   2.502  21.028  0.00  0.00    +0.000 A 
ATOM      9  C   UNL     1       1.227   2.863  21.176  0.00  0.00    +0.000 A 
ATOM     10  C   UNL     1       0.704   3.879  20.383  0.00  0.00    +0.000 A 
ATOM     11  C   UNL     1       1.518   4.543  19.456  0.00  0.00    +0.000 A 
ATOM     12  C   UNL     1       2.873   4.203  19.316  0.00  0.00    +0.000 A 
ENDROOT
BRANCH   1  13
ATOM     13  C   UNL     1       3.326   6.005  17.628  0.00  0.00    +0.000 C 
BRANCH  13  15
ATOM     14  C   UNL     1       2.270   8.291  17.769  0.00  0.00    +0.000 C 
ATOM     15  C   UNL     1       3.157   7.273  18.469  0.00  0.00    +0.000 C 
ENDBRANCH  13  15
ENDBRANCH   1  13
TORSDOF 2
ENDMDL
MODEL 8
REMARK VINA RESULT:      -6.1      2.820      5.005
REMARK  Name = 
REMARK  3 active torsions:
REMARK  status: ('A' for Active; 'I' for Inactive)
REMARK    1  A    between atoms: C_1  and  C_2
REMARK    2  A    between atoms: C_2  and  C_3
REMARK    3  A    between atoms: C_3  and  N_4
REMARK                            x       y       z     vdW  Elec       q    Type
REMARK                         _______ _______ _______ _____ _____    ______ ____
ROOT
ATOM      1  N   UNL     1       3.367   4.232  19.972  0.00  0.00    +0.000 N 
ATOM      2  C   UNL     1       4.318   3.234  19.775  0.00  0.00    +0.000 A 
ATOM      3  O   UNL     1       4.278   2.163  20.383  0.00  0.00    +0.000 OA
ATOM      4  O   UNL     1       5.325   3.441  18.890  0.00  0.00    +0.000 OA
ATOM      5  C   UNL     1       5.430   4.553  18.148  0.00  0.00    +0.000 A 
ATOM      6  O   UNL     1       6.366   4.719  17.374  0.00  0.00    +0.000 OA
ATOM      7  C   UNL     1       4.391   5.579  18.266  0.00  0.00    +0.000 A 
ATOM      8  C   UNL     1       4.441   6.709  17.435  0.00  0.00    +0.000 A 
ATOM      9  C   UNL     1       3.462   7.692  17.536  0.00  0.00    +0.000 A 
ATOM     10  C   UNL     1       2.451   7.552  18.480  0.00  0.00    +0.000 A 
ATOM     11  C   UNL     1       2.409   6.424  19.310  0.00  0.00    +0.000 A 
ATOM     12  C   UNL     1       3.377   5.414  19.199  0.00  0.00    +0.000 A 
ENDROOT
BRANCH   1  13
ATOM     13  C   UNL     1       2.291   3.949  20.925  0.00  0.00    +0.000 C 
BRANCH  13  15
ATOM     14  C   UNL     1       0.899   2.641  19.279  0.00  0.00    +0.000 C 
ATOM     15  C   UNL     1       0.930   3.823  20.236  0.00  0.00    +0.000 C 
ENDBRANCH  13  15
ENDBRANCH   1  13
TORSDOF 2
ENDMDL
MODEL 9
REMARK VINA RESULT:      -6.1      2.561      3.740
REMARK  Name = 
REMARK  3 active torsions:
REMARK  status: ('A' for Active; 'I' for Inactive)
REMARK    1  A    between atoms: C_1  and  C_2
REMARK    2  A    between atoms: C_2  and  C_3
REMARK    3  A    between atoms: C_3  and  N_4
REMARK                            x       y       z     vdW  Elec       q    Type
REMARK                         _______ _______ _______ _____ _____    ______ ____
ROOT
ATOM      1  N   UNL     1       6.152   5.830  17.776  0.00  0.00    +0.000 N 
ATOM      2  C   UNL     1       6.636   4.664  18.364  0.00  0.00    +0.000 A 
ATOM      3  O   UNL     1       7.826   4.349  18.311  0.00  0.00    +0.000 OA
ATOM      4  O   UNL     1       5.774   3.841  19.014  0.00  0.00    +0.000 OA
ATOM      5  C   UNL     1       4.471   4.117  19.164  0.00  0.00    +0.000 A 
ATOM      6  O   UNL     1       3.714   3.341  19.737  0.00  0.00    +0.000 OA
ATOM      7  C   UNL     1       3.955   5.383  18.638  0.00  0.00    +0.000 A 
ATOM      8  C   UNL     1       2.612   5.726  18.862  0.00  0.00    +0.000 A 
ATOM      9  C   UNL     1       2.106   6.923  18.368  0.00  0.00    +0.000 A 
ATOM     10  C   UNL     1       2.937   7.763  17.635  0.00  0.00    +0.000 A 
ATOM     11  C   UNL     1       4.276   7.414  17.411  0.00  0.00    +0.000 A 
ATOM     12  C   UNL     1       4.803   6.219  17.927  0.00  0.00    +0.000 A 
ENDROOT
BRANCH   1  13
ATOM     13  C   UNL     1       7.127   6.691  17.104  0.00  0.00    +0.000 C 
BRANCH  13  15
ATOM     14  C   UNL     1       7.941   8.989  17.749  0.00  0.00    +0.000 C 
ATOM     15  C   UNL     1       7.956   7.509  18.098  0.00  0.00    +0.000 C 
ENDBRANCH  13  15
ENDBRANCH   1  13
TORSDOF 2
ENDMDL
