MODEL 1
REMARK VINA RESULT:      -7.5      0.000      0.000
REMARK  Name = 
REMARK  10 active torsions:
REMARK  status: ('A' for Active; 'I' for Inactive)
REMARK    1  A    between atoms: C_1  and  O_2
REMARK    2  A    between atoms: O_2  and  C_3
REMARK    3  A    between atoms: C_6  and  S_7
REMARK    4  A    between atoms: S_7  and  N_10
REMARK    5  A    between atoms: N_10  and  C_11
REMARK    6  A    between atoms: C_11  and  C_12
REMARK    7  A    between atoms: C_12  and  C_13
REMARK    8  A    between atoms: C_13  and  N_14
REMARK    9  A    between atoms: C_19  and  O_20
REMARK   10  A    between atoms: O_20  and  C_21
REMARK                            x       y       z     vdW  Elec       q    Type
REMARK                         _______ _______ _______ _____ _____    ______ ____
ROOT
ATOM      1  C   UNL     1       1.490   3.973  19.942  0.00  0.00    +0.000 C 
ENDROOT
BRANCH   1   2
ATOM      2  N   UNL     1       2.721   3.179  19.776  0.00  0.00    +0.000 NA
ATOM      3  H   UNL     1       3.526   3.448  20.337  0.00  0.00    +0.000 HD
BRANCH   2   4
ATOM      4  S   UNL     1       3.168   2.729  18.201  0.00  0.00    +0.000 S 
ATOM      5  O   UNL     1       2.043   2.978  17.325  0.00  0.00    +0.000 OA
ATOM      6  O   UNL     1       3.785   1.426  18.314  0.00  0.00    +0.000 OA
BRANCH   4  10
ATOM      7  C   UNL     1       6.372   5.832  17.141  0.00  0.00    +0.000 A 
ATOM      8  C   UNL     1       5.525   5.319  16.155  0.00  0.00    +0.000 A 
ATOM      9  C   UNL     1       4.556   4.366  16.477  0.00  0.00    +0.000 A 
ATOM     10  C   UNL     1       4.449   3.902  17.790  0.00  0.00    +0.000 A 
ATOM     11  C   UNL     1       5.280   4.423  18.787  0.00  0.00    +0.000 A 
ATOM     12  C   UNL     1       6.250   5.380  18.458  0.00  0.00    +0.000 A 
BRANCH   7  14
ATOM     13  C   UNL     1       7.732   7.711  17.634  0.00  0.00    +0.000 C 
ATOM     14  O   UNL     1       7.295   6.738  16.692  0.00  0.00    +0.000 OA
ENDBRANCH   7  14
ENDBRANCH   4  10
ENDBRANCH   2   4
ENDBRANCH   1   2
BRANCH   1  15
ATOM     15  C   UNL     1       1.776   5.313  20.638  0.00  0.00    +0.000 C 
BRANCH  15  16
ATOM     16  C   UNL     1       2.229   6.328  19.580  0.00  0.00    +0.000 C 
BRANCH  16  17
ATOM     17  N   UNL     1       2.113   7.748  19.933  0.00  0.00    +0.000 NA
ATOM     18  C   UNL     1       1.215   7.884  21.098  0.00  0.00    +0.000 C 
ATOM     19  C   UNL     1       1.147   9.347  21.536  0.00  0.00    +0.000 C 
ATOM     20  C   UNL     1       0.401  10.069  20.454  0.00  0.00    +0.000 A 
ATOM     21  C   UNL     1      -0.571  11.020  20.772  0.00  0.00    +0.000 A 
ATOM     22  C   UNL     1      -1.432  11.512  19.795  0.00  0.00    +0.000 A 
ATOM     23  C   UNL     1      -1.263  11.091  18.475  0.00  0.00    +0.000 A 
ATOM     24  C   UNL     1      -0.229  10.192  18.139  0.00  0.00    +0.000 A 
ATOM     25  C   UNL     1       0.611   9.659  19.127  0.00  0.00    +0.000 A 
ATOM     26  C   UNL     1       1.730   8.658  18.821  0.00  0.00    +0.000 C 
BRANCH  22  27
ATOM     27  O   UNL     1      -2.389  12.345  20.295  0.00  0.00    +0.000 OA
ATOM     28  C   UNL     1      -3.681  12.351  19.714  0.00  0.00    +0.000 C 
ENDBRANCH  22  27
ENDBRANCH  16  17
ENDBRANCH  15  16
ENDBRANCH   1  15
TORSDOF 8
ENDMDL
MODEL 2
REMARK VINA RESULT:      -7.3      0.625      1.172
REMARK  Name = 
REMARK  10 active torsions:
REMARK  status: ('A' for Active; 'I' for Inactive)
REMARK    1  A    between atoms: C_1  and  O_2
REMARK    2  A    between atoms: O_2  and  C_3
REMARK    3  A    between atoms: C_6  and  S_7
REMARK    4  A    between atoms: S_7  and  N_10
REMARK    5  A    between atoms: N_10  and  C_11
REMARK    6  A    between atoms: C_11  and  C_12
REMARK    7  A    between atoms: C_12  and  C_13
REMARK    8  A    between atoms: C_13  and  N_14
REMARK    9  A    between atoms: C_19  and  O_20
REMARK   10  A    between atoms: O_20  and  C_21
REMARK                            x       y       z     vdW  Elec       q    Type
REMARK                         _______ _______ _______ _____ _____    ______ ____
ROOT
ATOM      1  C   UNL     1       1.968   3.865  20.496  0.00  0.00    +0.000 C 
ENDROOT
BRANCH   1   2
ATOM      2  N   UNL     1       2.307   3.484  19.113  0.00  0.00    +0.000 NA
ATOM      3  H   UNL     1       1.573   3.054  18.557  0.00  0.00    +0.000 HD
BRANCH   2   4
ATOM      4  S   UNL     1       3.818   2.760  18.838  0.00  0.00    +0.000 S 
ATOM      5  O   UNL     1       3.655   1.750  17.815  0.00  0.00    +0.000 OA
ATOM      6  O   UNL     1       4.363   2.457  20.142  0.00  0.00    +0.000 OA
BRANCH   4  10
ATOM      7  C   UNL     1       6.395   6.093  17.028  0.00  0.00    +0.000 A 
ATOM      8  C   UNL     1       6.637   5.632  18.325  0.00  0.00    +0.000 A 
ATOM      9  C   UNL     1       5.844   4.624  18.879  0.00  0.00    +0.000 A 
ATOM     10  C   UNL     1       4.786   4.089  18.142  0.00  0.00    +0.000 A 
ATOM     11  C   UNL     1       4.548   4.532  16.837  0.00  0.00    +0.000 A 
ATOM     12  C   UNL     1       5.347   5.544  16.286  0.00  0.00    +0.000 A 
BRANCH   7  14
ATOM     13  C   UNL     1       7.711   7.973  17.626  0.00  0.00    +0.000 C 
ATOM     14  O   UNL     1       7.223   7.101  16.613  0.00  0.00    +0.000 OA
ENDBRANCH   7  14
ENDBRANCH   4  10
ENDBRANCH   2   4
ENDBRANCH   1   2
BRANCH   1  15
ATOM     15  C   UNL     1       1.402   5.292  20.562  0.00  0.00    +0.000 C 
BRANCH  15  16
ATOM     16  C   UNL     1       2.353   6.231  19.807  0.00  0.00    +0.000 C 
BRANCH  16  17
ATOM     17  N   UNL     1       2.177   7.670  20.032  0.00  0.00    +0.000 NA
ATOM     18  C   UNL     1       1.212   7.873  21.131  0.00  0.00    +0.000 C 
ATOM     19  C   UNL     1       1.077   9.365  21.439  0.00  0.00    +0.000 C 
ATOM     20  C   UNL     1       0.374   9.969  20.261  0.00  0.00    +0.000 A 
ATOM     21  C   UNL     1      -0.641  10.911  20.445  0.00  0.00    +0.000 A 
ATOM     22  C   UNL     1      -1.459  11.292  19.384  0.00  0.00    +0.000 A 
ATOM     23  C   UNL     1      -1.204  10.768  18.116  0.00  0.00    +0.000 A 
ATOM     24  C   UNL     1      -0.127   9.878  17.913  0.00  0.00    +0.000 A 
ATOM     25  C   UNL     1       0.670   9.457  18.987  0.00  0.00    +0.000 A 
ATOM     26  C   UNL     1       1.833   8.472  18.828  0.00  0.00    +0.000 C 
BRANCH  22  27
ATOM     27  O   UNL     1      -2.466  12.131  19.760  0.00  0.00    +0.000 OA
ATOM     28  C   UNL     1      -3.743  11.999  19.161  0.00  0.00    +0.000 C 
ENDBRANCH  22  27
ENDBRANCH  16  17
ENDBRANCH  15  16
ENDBRANCH   1  15
TORSDOF 8
ENDMDL
MODEL 3
REMARK VINA RESULT:      -7.3      5.649      9.128
REMARK  Name = 
REMARK  10 active torsions:
REMARK  status: ('A' for Active; 'I' for Inactive)
REMARK    1  A    between atoms: C_1  and  O_2
REMARK    2  A    between atoms: O_2  and  C_3
REMARK    3  A    between atoms: C_6  and  S_7
REMARK    4  A    between atoms: S_7  and  N_10
REMARK    5  A    between atoms: N_10  and  C_11
REMARK    6  A    between atoms: C_11  and  C_12
REMARK    7  A    between atoms: C_12  and  C_13
REMARK    8  A    between atoms: C_13  and  N_14
REMARK    9  A    between atoms: C_19  and  O_20
REMARK   10  A    between atoms: O_20  and  C_21
REMARK                            x       y       z     vdW  Elec       q    Type
REMARK                         _______ _______ _______ _____ _____    ______ ____
ROOT
ATOM      1  C   UNL     1       7.746   7.888  17.529  0.00  0.00    +0.000 C 
ENDROOT
BRANCH   1   2
ATOM      2  N   UNL     1       7.240   6.577  17.975  0.00  0.00    +0.000 NA
ATOM      3  H   UNL     1       7.716   6.138  18.759  0.00  0.00    +0.000 HD
BRANCH   2   4
ATOM      4  S   UNL     1       6.807   5.448  16.783  0.00  0.00    +0.000 S 
ATOM      5  O   UNL     1       7.894   4.503  16.640  0.00  0.00    +0.000 OA
ATOM      6  O   UNL     1       6.299   6.215  15.667  0.00  0.00    +0.000 OA
BRANCH   4  10
ATOM      7  C   UNL     1       3.209   3.343  18.692  0.00  0.00    +0.000 A 
ATOM      8  C   UNL     1       4.144   4.013  19.485  0.00  0.00    +0.000 A 
ATOM      9  C   UNL     1       5.245   4.646  18.903  0.00  0.00    +0.000 A 
ATOM     10  C   UNL     1       5.429   4.586  17.521  0.00  0.00    +0.000 A 
ATOM     11  C   UNL     1       4.489   3.932  16.717  0.00  0.00    +0.000 A 
ATOM     12  C   UNL     1       3.385   3.301  17.306  0.00  0.00    +0.000 A 
BRANCH   7  14
ATOM     13  C   UNL     1       2.286   2.785  20.803  0.00  0.00    +0.000 C 
ATOM     14  O   UNL     1       2.192   2.743  19.384  0.00  0.00    +0.000 OA
ENDBRANCH   7  14
ENDBRANCH   4  10
ENDBRANCH   2   4
ENDBRANCH   1   2
BRANCH   1  15
ATOM     15  C   UNL     1       8.570   8.575  18.629  0.00  0.00    +0.000 C 
BRANCH  15  16
ATOM     16  C   UNL     1       8.669  10.072  18.303  0.00  0.00    +0.000 C 
BRANCH  16  17
ATOM     17  N   UNL     1       9.899  10.758  18.716  0.00  0.00    +0.000 NA
ATOM     18  C   UNL     1       9.618  11.574  19.914  0.00  0.00    +0.000 C 
ATOM     19  C   UNL     1      10.905  12.232  20.412  0.00  0.00    +0.000 C 
ATOM     20  C   UNL     1      11.268  13.262  19.385  0.00  0.00    +0.000 A 
ATOM     21  C   UNL     1      11.712  14.528  19.772  0.00  0.00    +0.000 A 
ATOM     22  C   UNL     1      11.815  15.561  18.844  0.00  0.00    +0.000 A 
ATOM     23  C   UNL     1      11.533  15.292  17.504  0.00  0.00    +0.000 A 
ATOM     24  C   UNL     1      11.163  13.992  17.098  0.00  0.00    +0.000 A 
ATOM     25  C   UNL     1      11.013  12.961  18.036  0.00  0.00    +0.000 A 
ATOM     26  C   UNL     1      10.586  11.540  17.654  0.00  0.00    +0.000 C 
BRANCH  22  27
ATOM     27  O   UNL     1      12.154  16.755  19.409  0.00  0.00    +0.000 OA
ATOM     28  C   UNL     1      11.200  17.800  19.455  0.00  0.00    +0.000 C 
ENDBRANCH  22  27
ENDBRANCH  16  17
ENDBRANCH  15  16
ENDBRANCH   1  15
TORSDOF 8
ENDMDL
MODEL 4
REMARK VINA RESULT:      -7.1      5.270      8.516
REMARK  Name = 
REMARK  10 active torsions:
REMARK  status: ('A' for Active; 'I' for Inactive)
REMARK    1  A    between atoms: C_1  and  O_2
REMARK    2  A    between atoms: O_2  and  C_3
REMARK    3  A    between atoms: C_6  and  S_7
REMARK    4  A    between atoms: S_7  and  N_10
REMARK    5  A    between atoms: N_10  and  C_11
REMARK    6  A    between atoms: C_11  and  C_12
REMARK    7  A    between atoms: C_12  and  C_13
REMARK    8  A    between atoms: C_13  and  N_14
REMARK    9  A    between atoms: C_19  and  O_20
REMARK   10  A    between atoms: O_20  and  C_21
REMARK                            x       y       z     vdW  Elec       q    Type
REMARK                         _______ _______ _______ _____ _____    ______ ____
ROOT
ATOM      1  C   UNL     1       7.157   7.908  17.459  0.00  0.00    +0.000 C 
ENDROOT
BRANCH   1   2
ATOM      2  N   UNL     1       7.720   6.658  18.001  0.00  0.00    +0.000 NA
ATOM      3  H   UNL     1       8.688   6.682  18.313  0.00  0.00    +0.000 HD
BRANCH   2   4
ATOM      4  S   UNL     1       7.347   5.208  17.200  0.00  0.00    +0.000 S 
ATOM      5  O   UNL     1       8.244   4.181  17.685  0.00  0.00    +0.000 OA
ATOM      6  O   UNL     1       7.241   5.539  15.796  0.00  0.00    +0.000 OA
BRANCH   4  10
ATOM      7  C   UNL     1       3.110   4.348  18.726  0.00  0.00    +0.000 A 
ATOM      8  C   UNL     1       4.111   4.770  19.606  0.00  0.00    +0.000 A 
ATOM      9  C   UNL     1       5.405   5.021  19.141  0.00  0.00    +0.000 A 
ATOM     10  C   UNL     1       5.708   4.826  17.792  0.00  0.00    +0.000 A 
ATOM     11  C   UNL     1       4.708   4.421  16.902  0.00  0.00    +0.000 A 
ATOM     12  C   UNL     1       3.412   4.171  17.373  0.00  0.00    +0.000 A 
BRANCH   7  14
ATOM     13  C   UNL     1       1.580   4.896  20.452  0.00  0.00    +0.000 C 
ATOM     14  O   UNL     1       1.895   4.109  19.310  0.00  0.00    +0.000 OA
ENDBRANCH   7  14
ENDBRANCH   4  10
ENDBRANCH   2   4
ENDBRANCH   1   2
BRANCH   1  15
ATOM     15  C   UNL     1       8.184   9.050  17.500  0.00  0.00    +0.000 C 
BRANCH  15  16
ATOM     16  C   UNL     1       8.618   9.266  18.957  0.00  0.00    +0.000 C 
BRANCH  16  17
ATOM     17  N   UNL     1       9.690  10.240  19.190  0.00  0.00    +0.000 NA
ATOM     18  C   UNL     1       9.426  10.956  20.454  0.00  0.00    +0.000 C 
ATOM     19  C   UNL     1      10.575  11.917  20.761  0.00  0.00    +0.000 C 
ATOM     20  C   UNL     1      10.488  13.007  19.735  0.00  0.00    +0.000 A 
ATOM     21  C   UNL     1      10.663  14.343  20.101  0.00  0.00    +0.000 A 
ATOM     22  C   UNL     1      10.344  15.371  19.216  0.00  0.00    +0.000 A 
ATOM     23  C   UNL     1       9.912  15.042  17.931  0.00  0.00    +0.000 A 
ATOM     24  C   UNL     1       9.812  13.692  17.534  0.00  0.00    +0.000 A 
ATOM     25  C   UNL     1      10.087  12.655  18.436  0.00  0.00    +0.000 A 
ATOM     26  C   UNL     1       9.968  11.172  18.066  0.00  0.00    +0.000 C 
BRANCH  22  27
ATOM     27  O   UNL     1      10.468  16.611  19.770  0.00  0.00    +0.000 OA
ATOM     28  C   UNL     1      11.326  16.795  20.882  0.00  0.00    +0.000 C 
ENDBRANCH  22  27
ENDBRANCH  16  17
ENDBRANCH  15  16
ENDBRANCH   1  15
TORSDOF 8
ENDMDL
MODEL 5
REMARK VINA RESULT:      -7.1      5.517      8.286
REMARK  Name = 
REMARK  10 active torsions:
REMARK  status: ('A' for Active; 'I' for Inactive)
REMARK    1  A    between atoms: C_1  and  O_2
REMARK    2  A    between atoms: O_2  and  C_3
REMARK    3  A    between atoms: C_6  and  S_7
REMARK    4  A    between atoms: S_7  and  N_10
REMARK    5  A    between atoms: N_10  and  C_11
REMARK    6  A    between atoms: C_11  and  C_12
REMARK    7  A    between atoms: C_12  and  C_13
REMARK    8  A    between atoms: C_13  and  N_14
REMARK    9  A    between atoms: C_19  and  O_20
REMARK   10  A    between atoms: O_20  and  C_21
REMARK                            x       y       z     vdW  Elec       q    Type
REMARK                         _______ _______ _______ _____ _____    ______ ____
ROOT
ATOM      1  C   UNL     1       8.130   7.676  17.747  0.00  0.00    +0.000 C 
ENDROOT
BRANCH   1   2
ATOM      2  N   UNL     1       7.026   6.936  17.107  0.00  0.00    +0.000 NA
ATOM      3  H   UNL     1       6.098   7.349  17.162  0.00  0.00    +0.000 HD
BRANCH   2   4
ATOM      4  S   UNL     1       6.984   5.250  17.302  0.00  0.00    +0.000 S 
ATOM      5  O   UNL     1       7.579   4.929  18.582  0.00  0.00    +0.000 OA
ATOM      6  O   UNL     1       7.472   4.689  16.062  0.00  0.00    +0.000 OA
BRANCH   4  10
ATOM      7  C   UNL     1       2.521   4.270  17.673  0.00  0.00    +0.000 A 
ATOM      8  C   UNL     1       3.409   3.343  17.121  0.00  0.00    +0.000 A 
ATOM      9  C   UNL     1       4.767   3.647  16.998  0.00  0.00    +0.000 A 
ATOM     10  C   UNL     1       5.238   4.896  17.408  0.00  0.00    +0.000 A 
ATOM     11  C   UNL     1       4.359   5.823  17.979  0.00  0.00    +0.000 A 
ATOM     12  C   UNL     1       2.998   5.512  18.099  0.00  0.00    +0.000 A 
BRANCH   7  14
ATOM     13  C   UNL     1       0.906   2.825  18.635  0.00  0.00    +0.000 C 
ATOM     14  O   UNL     1       1.215   3.862  17.711  0.00  0.00    +0.000 OA
ENDBRANCH   7  14
ENDBRANCH   4  10
ENDBRANCH   2   4
ENDBRANCH   1   2
BRANCH   1  15
ATOM     15  C   UNL     1       7.806   9.173  17.869  0.00  0.00    +0.000 C 
BRANCH  15  16
ATOM     16  C   UNL     1       8.902   9.844  18.707  0.00  0.00    +0.000 C 
BRANCH  16  17
ATOM     17  N   UNL     1       9.501  11.066  18.157  0.00  0.00    +0.000 NA
ATOM     18  C   UNL     1      10.342  11.700  19.191  0.00  0.00    +0.000 C 
ATOM     19  C   UNL     1      11.043  12.930  18.612  0.00  0.00    +0.000 C 
ATOM     20  C   UNL     1       9.968  13.950  18.384  0.00  0.00    +0.000 A 
ATOM     21  C   UNL     1      10.175  15.290  18.721  0.00  0.00    +0.000 A 
ATOM     22  C   UNL     1       9.114  16.190  18.743  0.00  0.00    +0.000 A 
ATOM     23  C   UNL     1       7.848  15.748  18.356  0.00  0.00    +0.000 A 
ATOM     24  C   UNL     1       7.654  14.414  17.938  0.00  0.00    +0.000 A 
ATOM     25  C   UNL     1       8.710  13.493  17.958  0.00  0.00    +0.000 A 
ATOM     26  C   UNL     1       8.548  12.027  17.541  0.00  0.00    +0.000 C 
BRANCH  22  27
ATOM     27  O   UNL     1       9.470  17.425  19.200  0.00  0.00    +0.000 OA
ATOM     28  C   UNL     1       9.766  18.453  18.271  0.00  0.00    +0.000 C 
ENDBRANCH  22  27
ENDBRANCH  16  17
ENDBRANCH  15  16
ENDBRANCH   1  15
TORSDOF 8
ENDMDL
MODEL 6
REMARK VINA RESULT:      -7.0      1.273      1.786
REMARK  Name = 
REMARK  10 active torsions:
REMARK  status: ('A' for Active; 'I' for Inactive)
REMARK    1  A    between atoms: C_1  and  O_2
REMARK    2  A    between atoms: O_2  and  C_3
REMARK    3  A    between atoms: C_6  and  S_7
REMARK    4  A    between atoms: S_7  and  N_10
REMARK    5  A    between atoms: N_10  and  C_11
REMARK    6  A    between atoms: C_11  and  C_12
REMARK    7  A    between atoms: C_12  and  C_13
REMARK    8  A    between atoms: C_13  and  N_14
REMARK    9  A    between atoms: C_19  and  O_20
REMARK   10  A    between atoms: O_20  and  C_21
REMARK                            x       y       z     vdW  Elec       q    Type
REMARK                         _______ _______ _______ _____ _____    ______ ____
ROOT
ATOM      1  C   UNL     1       2.494   5.628  20.194  0.00  0.00    +0.000 C 
ENDROOT
BRANCH   1   2
ATOM      2  N   UNL     1       1.963   4.803  19.092  0.00  0.00    +0.000 NA
ATOM      3  H   UNL     1       1.049   4.379  19.229  0.00  0.00    +0.000 HD
BRANCH   2   4
ATOM      4  S   UNL     1       3.038   3.754  18.299  0.00  0.00    +0.000 S 
ATOM      5  O   UNL     1       2.412   3.311  17.072  0.00  0.00    +0.000 OA
ATOM      6  O   UNL     1       3.510   2.827  19.303  0.00  0.00    +0.000 OA
BRANCH   4  10
ATOM      7  C   UNL     1       6.584   6.403  17.106  0.00  0.00    +0.000 A 
ATOM      8  C   UNL     1       6.738   5.399  18.066  0.00  0.00    +0.000 A 
ATOM      9  C   UNL     1       5.654   4.599  18.436  0.00  0.00    +0.000 A 
ATOM     10  C   UNL     1       4.400   4.821  17.863  0.00  0.00    +0.000 A 
ATOM     11  C   UNL     1       4.242   5.812  16.888  0.00  0.00    +0.000 A 
ATOM     12  C   UNL     1       5.333   6.611  16.520  0.00  0.00    +0.000 A 
BRANCH   7  14
ATOM     13  C   UNL     1       7.899   8.302  17.644  0.00  0.00    +0.000 C 
ATOM     14  O   UNL     1       7.714   7.134  16.852  0.00  0.00    +0.000 OA
ENDBRANCH   7  14
ENDBRANCH   4  10
ENDBRANCH   2   4
ENDBRANCH   1   2
BRANCH   1  15
ATOM     15  C   UNL     1       1.769   6.980  20.282  0.00  0.00    +0.000 C 
BRANCH  15  16
ATOM     16  C   UNL     1       2.189   7.839  19.082  0.00  0.00    +0.000 C 
BRANCH  16  17
ATOM     17  N   UNL     1       1.617   9.188  19.002  0.00  0.00    +0.000 NA
ATOM     18  C   UNL     1       0.910   9.489  20.263  0.00  0.00    +0.000 C 
ATOM     19  C   UNL     1       0.378  10.922  20.235  0.00  0.00    +0.000 C 
ATOM     20  C   UNL     1      -0.728  10.932  19.222  0.00  0.00    +0.000 A 
ATOM     21  C   UNL     1      -1.922  11.608  19.481  0.00  0.00    +0.000 A 
ATOM     22  C   UNL     1      -3.035  11.423  18.665  0.00  0.00    +0.000 A 
ATOM     23  C   UNL     1      -2.918  10.603  17.542  0.00  0.00    +0.000 A 
ATOM     24  C   UNL     1      -1.688   9.984  17.235  0.00  0.00    +0.000 A 
ATOM     25  C   UNL     1      -0.578  10.131  18.079  0.00  0.00    +0.000 A 
ATOM     26  C   UNL     1       0.772   9.458  17.808  0.00  0.00    +0.000 C 
BRANCH  22  27
ATOM     27  O   UNL     1      -4.147  12.069  19.122  0.00  0.00    +0.000 OA
ATOM     28  C   UNL     1      -5.421  11.694  18.632  0.00  0.00    +0.000 C 
ENDBRANCH  22  27
ENDBRANCH  16  17
ENDBRANCH  15  16
ENDBRANCH   1  15
TORSDOF 8
ENDMDL
MODEL 7
REMARK VINA RESULT:      -7.0      2.116      3.980
REMARK  Name = 
REMARK  10 active torsions:
REMARK  status: ('A' for Active; 'I' for Inactive)
REMARK    1  A    between atoms: C_1  and  O_2
REMARK    2  A    between atoms: O_2  and  C_3
REMARK    3  A    between atoms: C_6  and  S_7
REMARK    4  A    between atoms: S_7  and  N_10
REMARK    5  A    between atoms: N_10  and  C_11
REMARK    6  A    between atoms: C_11  and  C_12
REMARK    7  A    between atoms: C_12  and  C_13
REMARK    8  A    between atoms: C_13  and  N_14
REMARK    9  A    between atoms: C_19  and  O_20
REMARK   10  A    between atoms: O_20  and  C_21
REMARK                            x       y       z     vdW  Elec       q    Type
REMARK                         _______ _______ _______ _____ _____    ______ ____
ROOT
ATOM      1  C   UNL     1       5.769   7.008  16.929  0.00  0.00    +0.000 C 
ENDROOT
BRANCH   1   2
ATOM      2  N   UNL     1       6.120   6.073  15.844  0.00  0.00    +0.000 NA
ATOM      3  H   UNL     1       5.573   6.128  14.989  0.00  0.00    +0.000 HD
BRANCH   2   4
ATOM      4  S   UNL     1       6.478   4.468  16.266  0.00  0.00    +0.000 S 
ATOM      5  O   UNL     1       7.672   4.472  17.084  0.00  0.00    +0.000 OA
ATOM      6  O   UNL     1       6.381   3.699  15.045  0.00  0.00    +0.000 OA
BRANCH   4  10
ATOM      7  C   UNL     1       2.966   3.161  18.907  0.00  0.00    +0.000 A 
ATOM      8  C   UNL     1       2.804   3.299  17.526  0.00  0.00    +0.000 A 
ATOM      9  C   UNL     1       3.872   3.707  16.723  0.00  0.00    +0.000 A 
ATOM     10  C   UNL     1       5.104   4.005  17.308  0.00  0.00    +0.000 A 
ATOM     11  C   UNL     1       5.280   3.853  18.688  0.00  0.00    +0.000 A 
ATOM     12  C   UNL     1       4.205   3.442  19.488  0.00  0.00    +0.000 A 
BRANCH   7  14
ATOM     13  C   UNL     1       1.278   3.747  20.466  0.00  0.00    +0.000 C 
ATOM     14  O   UNL     1       1.837   2.782  19.583  0.00  0.00    +0.000 OA
ENDBRANCH   7  14
ENDBRANCH   4  10
ENDBRANCH   2   4
ENDBRANCH   1   2
BRANCH   1  15
ATOM     15  C   UNL     1       4.280   7.388  16.882  0.00  0.00    +0.000 C 
BRANCH  15  16
ATOM     16  C   UNL     1       3.659   7.102  18.256  0.00  0.00    +0.000 C 
BRANCH  16  17
ATOM     17  N   UNL     1       2.305   7.618  18.490  0.00  0.00    +0.000 NA
ATOM     18  C   UNL     1       2.245   9.029  18.060  0.00  0.00    +0.000 C 
ATOM     19  C   UNL     1       0.820   9.562  18.215  0.00  0.00    +0.000 C 
ATOM     20  C   UNL     1       0.570   9.651  19.691  0.00  0.00    +0.000 A 
ATOM     21  C   UNL     1      -0.076  10.763  20.237  0.00  0.00    +0.000 A 
ATOM     22  C   UNL     1      -0.094  10.970  21.614  0.00  0.00    +0.000 A 
ATOM     23  C   UNL     1       0.485  10.012  22.446  0.00  0.00    +0.000 A 
ATOM     24  C   UNL     1       1.067   8.848  21.900  0.00  0.00    +0.000 A 
ATOM     25  C   UNL     1       1.128   8.658  20.512  0.00  0.00    +0.000 A 
ATOM     26  C   UNL     1       1.773   7.428  19.865  0.00  0.00    +0.000 C 
BRANCH  22  27
ATOM     27  O   UNL     1      -0.668  12.156  21.968  0.00  0.00    +0.000 OA
ATOM     28  C   UNL     1      -1.876  12.558  21.349  0.00  0.00    +0.000 C 
ENDBRANCH  22  27
ENDBRANCH  16  17
ENDBRANCH  15  16
ENDBRANCH   1  15
TORSDOF 8
ENDMDL
MODEL 8
REMARK VINA RESULT:      -7.0      1.626      2.182
REMARK  Name = 
REMARK  10 active torsions:
REMARK  status: ('A' for Active; 'I' for Inactive)
REMARK    1  A    between atoms: C_1  and  O_2
REMARK    2  A    between atoms: O_2  and  C_3
REMARK    3  A    between atoms: C_6  and  S_7
REMARK    4  A    between atoms: S_7  and  N_10
REMARK    5  A    between atoms: N_10  and  C_11
REMARK    6  A    between atoms: C_11  and  C_12
REMARK    7  A    between atoms: C_12  and  C_13
REMARK    8  A    between atoms: C_13  and  N_14
REMARK    9  A    between atoms: C_19  and  O_20
REMARK   10  A    between atoms: O_20  and  C_21
REMARK                            x       y       z     vdW  Elec       q    Type
REMARK                         _______ _______ _______ _____ _____    ______ ____
ROOT
ATOM      1  C   UNL     1       2.679   5.927  19.510  0.00  0.00    +0.000 C 
ENDROOT
BRANCH   1   2
ATOM      2  N   UNL     1       2.760   4.871  18.485  0.00  0.00    +0.000 NA
ATOM      3  H   UNL     1       1.935   4.293  18.347  0.00  0.00    +0.000 HD
BRANCH   2   4
ATOM      4  S   UNL     1       4.193   3.965  18.393  0.00  0.00    +0.000 S 
ATOM      5  O   UNL     1       4.100   3.091  17.243  0.00  0.00    +0.000 OA
ATOM      6  O   UNL     1       4.438   3.462  19.727  0.00  0.00    +0.000 OA
BRANCH   4  10
ATOM      7  C   UNL     1       7.309   7.219  17.547  0.00  0.00    +0.000 A 
ATOM      8  C   UNL     1       6.159   7.114  16.759  0.00  0.00    +0.000 A 
ATOM      9  C   UNL     1       5.215   6.115  17.011  0.00  0.00    +0.000 A 
ATOM     10  C   UNL     1       5.434   5.198  18.042  0.00  0.00    +0.000 A 
ATOM     11  C   UNL     1       6.573   5.308  18.847  0.00  0.00    +0.000 A 
ATOM     12  C   UNL     1       7.516   6.313  18.590  0.00  0.00    +0.000 A 
BRANCH   7  14
ATOM     13  C   UNL     1       8.369   9.257  18.134  0.00  0.00    +0.000 C 
ATOM     14  O   UNL     1       8.167   8.221  17.180  0.00  0.00    +0.000 OA
ENDBRANCH   7  14
ENDBRANCH   4  10
ENDBRANCH   2   4
ENDBRANCH   1   2
BRANCH   1  15
ATOM     15  C   UNL     1       2.273   7.276  18.896  0.00  0.00    +0.000 C 
BRANCH  15  16
ATOM     16  C   UNL     1       1.598   8.125  19.982  0.00  0.00    +0.000 C 
BRANCH  16  17
ATOM     17  N   UNL     1       1.060   9.425  19.566  0.00  0.00    +0.000 NA
ATOM     18  C   UNL     1       0.089   9.892  20.576  0.00  0.00    +0.000 C 
ATOM     19  C   UNL     1      -0.421  11.285  20.205  0.00  0.00    +0.000 C 
ATOM     20  C   UNL     1      -1.272  11.103  18.985  0.00  0.00    +0.000 A 
ATOM     21  C   UNL     1      -2.493  11.770  18.862  0.00  0.00    +0.000 A 
ATOM     22  C   UNL     1      -3.396  11.424  17.860  0.00  0.00    +0.000 A 
ATOM     23  C   UNL     1      -3.032  10.445  16.935  0.00  0.00    +0.000 A 
ATOM     24  C   UNL     1      -1.765   9.827  17.009  0.00  0.00    +0.000 A 
ATOM     25  C   UNL     1      -0.872  10.140  18.044  0.00  0.00    +0.000 A 
ATOM     26  C   UNL     1       0.503   9.479  18.187  0.00  0.00    +0.000 C 
BRANCH  22  27
ATOM     27  O   UNL     1      -4.581  12.094  17.953  0.00  0.00    +0.000 OA
ATOM     28  C   UNL     1      -5.501  11.744  18.971  0.00  0.00    +0.000 C 
ENDBRANCH  22  27
ENDBRANCH  16  17
ENDBRANCH  15  16
ENDBRANCH   1  15
TORSDOF 8
ENDMDL
MODEL 9
REMARK VINA RESULT:      -6.9      1.482      2.090
REMARK  Name = 
REMARK  10 active torsions:
REMARK  status: ('A' for Active; 'I' for Inactive)
REMARK    1  A    between atoms: C_1  and  O_2
REMARK    2  A    between atoms: O_2  and  C_3
REMARK    3  A    between atoms: C_6  and  S_7
REMARK    4  A    between atoms: S_7  and  N_10
REMARK    5  A    between atoms: N_10  and  C_11
REMARK    6  A    between atoms: C_11  and  C_12
REMARK    7  A    between atoms: C_12  and  C_13
REMARK    8  A    between atoms: C_13  and  N_14
REMARK    9  A    between atoms: C_19  and  O_20
REMARK   10  A    between atoms: O_20  and  C_21
REMARK                            x       y       z     vdW  Elec       q    Type
REMARK                         _______ _______ _______ _____ _____    ______ ____
ROOT
ATOM      1  C   UNL     1       2.103   5.531  20.723  0.00  0.00    +0.000 C 
ENDROOT
BRANCH   1   2
ATOM      2  N   UNL     1       1.838   4.768  19.489  0.00  0.00    +0.000 NA
ATOM      3  H   UNL     1       0.869   4.688  19.192  0.00  0.00    +0.000 HD
BRANCH   2   4
ATOM      4  S   UNL     1       2.697   3.322  19.252  0.00  0.00    +0.000 S 
ATOM      5  O   UNL     1       1.862   2.423  18.485  0.00  0.00    +0.000 OA
ATOM      6  O   UNL     1       3.239   2.960  20.543  0.00  0.00    +0.000 OA
BRANCH   4  10
ATOM      7  C   UNL     1       6.252   4.500  16.608  0.00  0.00    +0.000 A 
ATOM      8  C   UNL     1       6.342   4.587  18.000  0.00  0.00    +0.000 A 
ATOM      9  C   UNL     1       5.254   4.238  18.804  0.00  0.00    +0.000 A 
ATOM     10  C   UNL     1       4.059   3.823  18.213  0.00  0.00    +0.000 A 
ATOM     11  C   UNL     1       3.966   3.716  16.822  0.00  0.00    +0.000 A 
ATOM     12  C   UNL     1       5.061   4.067  16.019  0.00  0.00    +0.000 A 
BRANCH   7  14
ATOM     13  C   UNL     1       7.264   4.975  14.517  0.00  0.00    +0.000 C 
ATOM     14  O   UNL     1       7.375   4.897  15.933  0.00  0.00    +0.000 OA
ENDBRANCH   7  14
ENDBRANCH   4  10
ENDBRANCH   2   4
ENDBRANCH   1   2
BRANCH   1  15
ATOM     15  C   UNL     1       1.432   6.913  20.683  0.00  0.00    +0.000 C 
BRANCH  15  16
ATOM     16  C   UNL     1       2.044   7.721  19.531  0.00  0.00    +0.000 C 
BRANCH  16  17
ATOM     17  N   UNL     1       1.521   9.076  19.323  0.00  0.00    +0.000 NA
ATOM     18  C   UNL     1       0.688   9.456  20.482  0.00  0.00    +0.000 C 
ATOM     19  C   UNL     1       0.202  10.897  20.326  0.00  0.00    +0.000 C 
ATOM     20  C   UNL     1      -0.785  10.880  19.198  0.00  0.00    +0.000 A 
ATOM     21  C   UNL     1      -1.982  11.595  19.289  0.00  0.00    +0.000 A 
ATOM     22  C   UNL     1      -3.003  11.393  18.364  0.00  0.00    +0.000 A 
ATOM     23  C   UNL     1      -2.785  10.514  17.302  0.00  0.00    +0.000 A 
ATOM     24  C   UNL     1      -1.546   9.853  17.164  0.00  0.00    +0.000 A 
ATOM     25  C   UNL     1      -0.533  10.019  18.118  0.00  0.00    +0.000 A 
ATOM     26  C   UNL     1       0.821   9.304  18.031  0.00  0.00    +0.000 C 
BRANCH  22  27
ATOM     27  O   UNL     1      -4.140  12.084  18.663  0.00  0.00    +0.000 OA
ATOM     28  C   UNL     1      -5.369  11.691  18.079  0.00  0.00    +0.000 C 
ENDBRANCH  22  27
ENDBRANCH  16  17
ENDBRANCH  15  16
ENDBRANCH   1  15
TORSDOF 8
ENDMDL
