MODEL 1
REMARK VINA RESULT:      -8.1      0.000      0.000
REMARK  Name = 
REMARK  15 active torsions:
REMARK  status: ('A' for Active; 'I' for Inactive)
REMARK    1  A    between atoms: C_1  and  C_2
REMARK    2  A    between atoms: C_2  and  C_3
REMARK    3  A    between atoms: C_3  and  C_4
REMARK    4  A    between atoms: C_4  and  C_5
REMARK    5  A    between atoms: C_5  and  N_6
REMARK    6  A    between atoms: N_6  and  C_7
REMARK    7  A    between atoms: C_7  and  C_8
REMARK    8  A    between atoms: C_8  and  C_9
REMARK    9  A    between atoms: C_9  and  C_10
REMARK   10  A    between atoms: C_10  and  C_11
REMARK   11  A    between atoms: C_12  and  C_14
REMARK   12  A    between atoms: C_14  and  C_15
REMARK   13  A    between atoms: C_14  and  N_25
REMARK   14  A    between atoms: C_15  and  C_16
REMARK   15  A    between atoms: C_26  and  C_28
REMARK                            x       y       z     vdW  Elec       q    Type
REMARK                         _______ _______ _______ _____ _____    ______ ____
ROOT
ATOM      1  C   UNL     1       2.928   6.485  17.742  0.00  0.00    +0.000 C 
ENDROOT
BRANCH   1   2
ATOM      2  N   UNL     1       2.332   7.523  18.609  0.00  0.00    +0.000 N 
ATOM      3  C   UNL     1       2.044   8.790  18.177  0.00  0.00    +0.000 C 
ATOM      4  O   UNL     1       2.328   9.189  17.042  0.00  0.00    +0.000 OA
ATOM      5  H   UNL     1       2.027   7.249  19.545  0.00  0.00    +0.000 HD
BRANCH   3   6
ATOM      6  C   UNL     1       1.331   9.696  19.151  0.00  0.00    +0.000 A 
ATOM      7  C   UNL     1       1.189  11.037  18.840  0.00  0.00    +0.000 A 
ATOM      8  C   UNL     1       0.522  11.860  19.740  0.00  0.00    +0.000 A 
ATOM      9  C   UNL     1       0.020  11.320  20.929  0.00  0.00    +0.000 A 
ATOM     10  C   UNL     1      -0.648  12.126  21.868  0.00  0.00    +0.000 A 
ATOM     11  C   UNL     1      -1.132  11.573  23.052  0.00  0.00    +0.000 A 
ATOM     12  C   UNL     1      -0.952  10.217  23.295  0.00  0.00    +0.000 A 
ATOM     13  C   UNL     1      -0.293   9.419  22.352  0.00  0.00    +0.000 A 
ATOM     14  C   UNL     1       0.208   9.938  21.163  0.00  0.00    +0.000 A 
ATOM     15  N   UNL     1       0.850   9.129  20.293  0.00  0.00    +0.000 NA
ENDBRANCH   3   6
ENDBRANCH   1   2
BRANCH   1  17
ATOM     16  N   UNL     1       5.422   5.811  17.541  0.00  0.00    +0.000 N 
ATOM     17  C   UNL     1       4.286   6.028  18.355  0.00  0.00    +0.000 C 
ATOM     18  O   UNL     1       4.371   5.922  19.588  0.00  0.00    +0.000 OA
BRANCH  16  19
ATOM     19  C   UNL     1       6.611   5.318  18.251  0.00  0.00    +0.000 C 
BRANCH  19  20
ATOM     20  C   UNL     1       7.918   6.066  17.960  0.00  0.00    +0.000 C 
BRANCH  20  21
ATOM     21  C   UNL     1       8.198   7.381  18.707  0.00  0.00    +0.000 C 
BRANCH  21  23
ATOM     22  C   UNL     1       8.522   9.875  18.136  0.00  0.00    +0.000 C 
ATOM     23  C   UNL     1       7.924   8.539  17.732  0.00  0.00    +0.000 C 
ENDBRANCH  21  23
ENDBRANCH  20  21
ENDBRANCH  19  20
ENDBRANCH  16  19
BRANCH  16  24
ATOM     24  C   UNL     1       5.353   5.659  16.068  0.00  0.00    +0.000 C 
BRANCH  24  25
ATOM     25  C   UNL     1       5.327   4.243  15.467  0.00  0.00    +0.000 C 
BRANCH  25  26
ATOM     26  C   UNL     1       6.038   4.116  14.097  0.00  0.00    +0.000 C 
BRANCH  26  27
ATOM     27  C   UNL     1       5.129   3.707  12.932  0.00  0.00    +0.000 C 
ATOM     28  C   UNL     1       5.863   2.842  11.910  0.00  0.00    +0.000 C 
ENDBRANCH  26  27
ENDBRANCH  25  26
ENDBRANCH  24  25
ENDBRANCH  16  24
ENDBRANCH   1  17
BRANCH   1  29
ATOM     29  C   UNL     1       1.897   5.386  17.447  0.00  0.00    +0.000 C 
BRANCH  29  30
ATOM     30  C   UNL     1       2.168   4.029  18.024  0.00  0.00    +0.000 A 
ATOM     31  C   UNL     1       2.406   2.867  17.314  0.00  0.00    +0.000 A 
ATOM     32  N   UNL     1       2.460   1.824  18.198  0.00  0.00    +0.000 N 
ATOM     33  C   UNL     1       2.197   2.267  19.472  0.00  0.00    +0.000 A 
ATOM     34  C   UNL     1       2.038   1.545  20.661  0.00  0.00    +0.000 A 
ATOM     35  C   UNL     1       1.678   2.260  21.806  0.00  0.00    +0.000 A 
ATOM     36  C   UNL     1       1.555   3.647  21.777  0.00  0.00    +0.000 A 
ATOM     37  C   UNL     1       1.769   4.358  20.591  0.00  0.00    +0.000 A 
ATOM     38  C   UNL     1       2.056   3.654  19.403  0.00  0.00    +0.000 A 
ATOM     39  H   UNL     1       2.580   0.853  17.947  0.00  0.00    +0.000 HD
ENDBRANCH  29  30
ENDBRANCH   1  29
TORSDOF 13
ENDMDL
MODEL 2
REMARK VINA RESULT:      -7.9      1.064      1.449
REMARK  Name = 
REMARK  15 active torsions:
REMARK  status: ('A' for Active; 'I' for Inactive)
REMARK    1  A    between atoms: C_1  and  C_2
REMARK    2  A    between atoms: C_2  and  C_3
REMARK    3  A    between atoms: C_3  and  C_4
REMARK    4  A    between atoms: C_4  and  C_5
REMARK    5  A    between atoms: C_5  and  N_6
REMARK    6  A    between atoms: N_6  and  C_7
REMARK    7  A    between atoms: C_7  and  C_8
REMARK    8  A    between atoms: C_8  and  C_9
REMARK    9  A    between atoms: C_9  and  C_10
REMARK   10  A    between atoms: C_10  and  C_11
REMARK   11  A    between atoms: C_12  and  C_14
REMARK   12  A    between atoms: C_14  and  C_15
REMARK   13  A    between atoms: C_14  and  N_25
REMARK   14  A    between atoms: C_15  and  C_16
REMARK   15  A    between atoms: C_26  and  C_28
REMARK                            x       y       z     vdW  Elec       q    Type
REMARK                         _______ _______ _______ _____ _____    ______ ____
ROOT
ATOM      1  C   UNL     1       2.913   6.215  17.735  0.00  0.00    +0.000 C 
ENDROOT
BRANCH   1   2
ATOM      2  N   UNL     1       2.310   7.262  18.586  0.00  0.00    +0.000 N 
ATOM      3  C   UNL     1       2.089   8.544  18.160  0.00  0.00    +0.000 C 
ATOM      4  O   UNL     1       2.443   8.947  17.047  0.00  0.00    +0.000 OA
ATOM      5  H   UNL     1       1.950   6.987  19.502  0.00  0.00    +0.000 HD
BRANCH   3   6
ATOM      6  C   UNL     1       1.359   9.462  19.110  0.00  0.00    +0.000 A 
ATOM      7  C   UNL     1       1.143  10.777  18.740  0.00  0.00    +0.000 A 
ATOM      8  C   UNL     1       0.462  11.611  19.619  0.00  0.00    +0.000 A 
ATOM      9  C   UNL     1       0.018  11.107  20.846  0.00  0.00    +0.000 A 
ATOM     10  C   UNL     1      -0.662  11.925  21.766  0.00  0.00    +0.000 A 
ATOM     11  C   UNL     1      -1.087  11.408  22.988  0.00  0.00    +0.000 A 
ATOM     12  C   UNL     1      -0.834  10.076  23.289  0.00  0.00    +0.000 A 
ATOM     13  C   UNL     1      -0.163   9.265  22.366  0.00  0.00    +0.000 A 
ATOM     14  C   UNL     1       0.280   9.749  21.140  0.00  0.00    +0.000 A 
ATOM     15  N   UNL     1       0.937   8.929  20.291  0.00  0.00    +0.000 NA
ENDBRANCH   3   6
ENDBRANCH   1   2
BRANCH   1  17
ATOM     16  N   UNL     1       5.442   5.992  17.215  0.00  0.00    +0.000 N 
ATOM     17  C   UNL     1       4.395   6.000  18.167  0.00  0.00    +0.000 C 
ATOM     18  O   UNL     1       4.650   5.901  19.376  0.00  0.00    +0.000 OA
BRANCH  16  19
ATOM     19  C   UNL     1       6.778   5.710  17.761  0.00  0.00    +0.000 C 
BRANCH  19  20
ATOM     20  C   UNL     1       7.762   6.886  17.752  0.00  0.00    +0.000 C 
BRANCH  20  21
ATOM     21  C   UNL     1       7.201   8.318  17.737  0.00  0.00    +0.000 C 
BRANCH  21  23
ATOM     22  C   UNL     1       8.900   9.830  18.955  0.00  0.00    +0.000 C 
ATOM     23  C   UNL     1       8.394   9.285  17.631  0.00  0.00    +0.000 C 
ENDBRANCH  21  23
ENDBRANCH  20  21
ENDBRANCH  19  20
ENDBRANCH  16  19
BRANCH  16  24
ATOM     24  C   UNL     1       5.219   5.841  15.758  0.00  0.00    +0.000 C 
BRANCH  24  25
ATOM     25  C   UNL     1       5.441   4.463  15.110  0.00  0.00    +0.000 C 
BRANCH  25  26
ATOM     26  C   UNL     1       6.662   4.391  14.160  0.00  0.00    +0.000 C 
BRANCH  26  27
ATOM     27  C   UNL     1       6.408   3.664  12.834  0.00  0.00    +0.000 C 
ATOM     28  C   UNL     1       4.921   3.596  12.495  0.00  0.00    +0.000 C 
ENDBRANCH  26  27
ENDBRANCH  25  26
ENDBRANCH  24  25
ENDBRANCH  16  24
ENDBRANCH   1  17
BRANCH   1  29
ATOM     29  C   UNL     1       2.013   4.972  17.708  0.00  0.00    +0.000 C 
BRANCH  29  30
ATOM     30  C   UNL     1       1.873   4.207  18.990  0.00  0.00    +0.000 A 
ATOM     31  C   UNL     1       0.948   4.440  19.989  0.00  0.00    +0.000 A 
ATOM     32  N   UNL     1       1.243   3.626  21.050  0.00  0.00    +0.000 N 
ATOM     33  C   UNL     1       2.385   2.907  20.793  0.00  0.00    +0.000 A 
ATOM     34  C   UNL     1       3.113   2.047  21.624  0.00  0.00    +0.000 A 
ATOM     35  C   UNL     1       4.304   1.519  21.120  0.00  0.00    +0.000 A 
ATOM     36  C   UNL     1       4.712   1.784  19.816  0.00  0.00    +0.000 A 
ATOM     37  C   UNL     1       3.946   2.605  18.982  0.00  0.00    +0.000 A 
ATOM     38  C   UNL     1       2.779   3.214  19.490  0.00  0.00    +0.000 A 
ATOM     39  H   UNL     1       0.753   3.620  21.933  0.00  0.00    +0.000 HD
ENDBRANCH  29  30
ENDBRANCH   1  29
TORSDOF 13
ENDMDL
MODEL 3
REMARK VINA RESULT:      -7.9      1.365      1.785
REMARK  Name = 
REMARK  15 active torsions:
REMARK  status: ('A' for Active; 'I' for Inactive)
REMARK    1  A    between atoms: C_1  and  C_2
REMARK    2  A    between atoms: C_2  and  C_3
REMARK    3  A    between atoms: C_3  and  C_4
REMARK    4  A    between atoms: C_4  and  C_5
REMARK    5  A    between atoms: C_5  and  N_6
REMARK    6  A    between atoms: N_6  and  C_7
REMARK    7  A    between atoms: C_7  and  C_8
REMARK    8  A    between atoms: C_8  and  C_9
REMARK    9  A    between atoms: C_9  and  C_10
REMARK   10  A    between atoms: C_10  and  C_11
REMARK   11  A    between atoms: C_12  and  C_14
REMARK   12  A    between atoms: C_14  and  C_15
REMARK   13  A    between atoms: C_14  and  N_25
REMARK   14  A    between atoms: C_15  and  C_16
REMARK   15  A    between atoms: C_26  and  C_28
REMARK                            x       y       z     vdW  Elec       q    Type
REMARK                         _______ _______ _______ _____ _____    ______ ____
ROOT
ATOM      1  C   UNL     1       3.784   4.713  17.086  0.00  0.00    +0.000 C 
ENDROOT
BRANCH   1   2
ATOM      2  N   UNL     1       3.031   5.746  17.826  0.00  0.00    +0.000 N 
ATOM      3  C   UNL     1       3.265   7.088  17.694  0.00  0.00    +0.000 C 
ATOM      4  O   UNL     1       4.179   7.540  16.995  0.00  0.00    +0.000 OA
ATOM      5  H   UNL     1       2.230   5.447  18.386  0.00  0.00    +0.000 HD
BRANCH   3   6
ATOM      6  C   UNL     1       2.333   8.018  18.432  0.00  0.00    +0.000 A 
ATOM      7  C   UNL     1       1.715   9.042  17.735  0.00  0.00    +0.000 A 
ATOM      8  C   UNL     1       0.851   9.886  18.422  0.00  0.00    +0.000 A 
ATOM      9  C   UNL     1       0.632   9.687  19.789  0.00  0.00    +0.000 A 
ATOM     10  C   UNL     1      -0.225  10.530  20.519  0.00  0.00    +0.000 A 
ATOM     11  C   UNL     1      -0.422  10.322  21.883  0.00  0.00    +0.000 A 
ATOM     12  C   UNL     1       0.232   9.272  22.514  0.00  0.00    +0.000 A 
ATOM     13  C   UNL     1       1.078   8.432  21.780  0.00  0.00    +0.000 A 
ATOM     14  C   UNL     1       1.303   8.614  20.420  0.00  0.00    +0.000 A 
ATOM     15  N   UNL     1       2.141   7.784  19.760  0.00  0.00    +0.000 NA
ENDBRANCH   3   6
ENDBRANCH   1   2
BRANCH   1  17
ATOM     16  N   UNL     1       6.363   4.901  16.907  0.00  0.00    +0.000 N 
ATOM     17  C   UNL     1       5.219   4.603  17.684  0.00  0.00    +0.000 C 
ATOM     18  O   UNL     1       5.338   4.310  18.883  0.00  0.00    +0.000 OA
BRANCH  16  19
ATOM     19  C   UNL     1       7.650   4.687  17.585  0.00  0.00    +0.000 C 
BRANCH  19  20
ATOM     20  C   UNL     1       8.190   5.881  18.381  0.00  0.00    +0.000 C 
BRANCH  20  21
ATOM     21  C   UNL     1       7.353   7.170  18.437  0.00  0.00    +0.000 C 
BRANCH  21  23
ATOM     22  C   UNL     1       8.539   9.456  18.286  0.00  0.00    +0.000 C 
ATOM     23  C   UNL     1       8.051   8.219  17.553  0.00  0.00    +0.000 C 
ENDBRANCH  21  23
ENDBRANCH  20  21
ENDBRANCH  19  20
ENDBRANCH  16  19
BRANCH  16  24
ATOM     24  C   UNL     1       6.341   5.001  15.429  0.00  0.00    +0.000 C 
BRANCH  24  25
ATOM     25  C   UNL     1       6.094   3.728  14.601  0.00  0.00    +0.000 C 
BRANCH  25  26
ATOM     26  C   UNL     1       6.421   3.870  13.094  0.00  0.00    +0.000 C 
BRANCH  26  27
ATOM     27  C   UNL     1       5.339   3.341  12.144  0.00  0.00    +0.000 C 
ATOM     28  C   UNL     1       5.744   2.019  11.497  0.00  0.00    +0.000 C 
ENDBRANCH  26  27
ENDBRANCH  25  26
ENDBRANCH  24  25
ENDBRANCH  16  24
ENDBRANCH   1  17
BRANCH   1  29
ATOM     29  C   UNL     1       2.966   3.417  17.006  0.00  0.00    +0.000 C 
BRANCH  29  30
ATOM     30  C   UNL     1       1.985   3.165  18.112  0.00  0.00    +0.000 A 
ATOM     31  C   UNL     1       0.634   3.453  18.092  0.00  0.00    +0.000 A 
ATOM     32  N   UNL     1       0.121   3.209  19.338  0.00  0.00    +0.000 N 
ATOM     33  C   UNL     1       1.124   2.827  20.197  0.00  0.00    +0.000 A 
ATOM     34  C   UNL     1       1.085   2.589  21.575  0.00  0.00    +0.000 A 
ATOM     35  C   UNL     1       2.294   2.300  22.214  0.00  0.00    +0.000 A 
ATOM     36  C   UNL     1       3.478   2.184  21.491  0.00  0.00    +0.000 A 
ATOM     37  C   UNL     1       3.489   2.375  20.105  0.00  0.00    +0.000 A 
ATOM     38  C   UNL     1       2.297   2.744  19.446  0.00  0.00    +0.000 A 
ATOM     39  H   UNL     1      -0.835   3.376  19.617  0.00  0.00    +0.000 HD
ENDBRANCH  29  30
ENDBRANCH   1  29
TORSDOF 13
ENDMDL
MODEL 4
REMARK VINA RESULT:      -7.8      0.790      1.373
REMARK  Name = 
REMARK  15 active torsions:
REMARK  status: ('A' for Active; 'I' for Inactive)
REMARK    1  A    between atoms: C_1  and  C_2
REMARK    2  A    between atoms: C_2  and  C_3
REMARK    3  A    between atoms: C_3  and  C_4
REMARK    4  A    between atoms: C_4  and  C_5
REMARK    5  A    between atoms: C_5  and  N_6
REMARK    6  A    between atoms: N_6  and  C_7
REMARK    7  A    between atoms: C_7  and  C_8
REMARK    8  A    between atoms: C_8  and  C_9
REMARK    9  A    between atoms: C_9  and  C_10
REMARK   10  A    between atoms: C_10  and  C_11
REMARK   11  A    between atoms: C_12  and  C_14
REMARK   12  A    between atoms: C_14  and  C_15
REMARK   13  A    between atoms: C_14  and  N_25
REMARK   14  A    between atoms: C_15  and  C_16
REMARK   15  A    between atoms: C_26  and  C_28
REMARK                            x       y       z     vdW  Elec       q    Type
REMARK                         _______ _______ _______ _____ _____    ______ ____
ROOT
ATOM      1  C   UNL     1       2.941   6.554  17.808  0.00  0.00    +0.000 C 
ENDROOT
BRANCH   1   2
ATOM      2  N   UNL     1       2.285   7.321  18.888  0.00  0.00    +0.000 N 
ATOM      3  C   UNL     1       1.758   8.571  18.710  0.00  0.00    +0.000 C 
ATOM      4  O   UNL     1       1.853   9.190  17.644  0.00  0.00    +0.000 OA
ATOM      5  H   UNL     1       2.129   6.852  19.783  0.00  0.00    +0.000 HD
BRANCH   3   6
ATOM      6  C   UNL     1       1.020   9.173  19.882  0.00  0.00    +0.000 A 
ATOM      7  C   UNL     1       0.895   8.436  21.046  0.00  0.00    +0.000 A 
ATOM      8  C   UNL     1       0.222   9.003  22.122  0.00  0.00    +0.000 A 
ATOM      9  C   UNL     1      -0.310  10.291  22.003  0.00  0.00    +0.000 A 
ATOM     10  C   UNL     1      -1.008  10.891  23.066  0.00  0.00    +0.000 A 
ATOM     11  C   UNL     1      -1.542  12.171  22.924  0.00  0.00    +0.000 A 
ATOM     12  C   UNL     1      -1.374  12.850  21.724  0.00  0.00    +0.000 A 
ATOM     13  C   UNL     1      -0.672  12.250  20.672  0.00  0.00    +0.000 A 
ATOM     14  C   UNL     1      -0.132  10.973  20.776  0.00  0.00    +0.000 A 
ATOM     15  N   UNL     1       0.525  10.432  19.727  0.00  0.00    +0.000 NA
ENDBRANCH   3   6
ENDBRANCH   1   2
BRANCH   1  17
ATOM     16  N   UNL     1       5.376   5.832  17.296  0.00  0.00    +0.000 N 
ATOM     17  C   UNL     1       4.395   6.202  18.245  0.00  0.00    +0.000 C 
ATOM     18  O   UNL     1       4.696   6.318  19.442  0.00  0.00    +0.000 OA
BRANCH  16  19
ATOM     19  C   UNL     1       6.682   5.462  17.861  0.00  0.00    +0.000 C 
BRANCH  19  20
ATOM     20  C   UNL     1       7.667   6.618  18.071  0.00  0.00    +0.000 C 
BRANCH  20  21
ATOM     21  C   UNL     1       7.642   7.798  17.084  0.00  0.00    +0.000 C 
BRANCH  21  23
ATOM     22  C   UNL     1       8.925   8.913  19.024  0.00  0.00    +0.000 C 
ATOM     23  C   UNL     1       7.939   9.080  17.881  0.00  0.00    +0.000 C 
ENDBRANCH  21  23
ENDBRANCH  20  21
ENDBRANCH  19  20
ENDBRANCH  16  19
BRANCH  16  24
ATOM     24  C   UNL     1       5.055   5.418  15.909  0.00  0.00    +0.000 C 
BRANCH  24  25
ATOM     25  C   UNL     1       6.206   5.201  14.911  0.00  0.00    +0.000 C 
BRANCH  25  26
ATOM     26  C   UNL     1       6.278   3.772  14.319  0.00  0.00    +0.000 C 
BRANCH  26  27
ATOM     27  C   UNL     1       6.314   3.708  12.787  0.00  0.00    +0.000 C 
ATOM     28  C   UNL     1       4.913   3.655  12.184  0.00  0.00    +0.000 C 
ENDBRANCH  26  27
ENDBRANCH  25  26
ENDBRANCH  24  25
ENDBRANCH  16  24
ENDBRANCH   1  17
BRANCH   1  29
ATOM     29  C   UNL     1       2.047   5.385  17.372  0.00  0.00    +0.000 C 
BRANCH  29  30
ATOM     30  C   UNL     1       2.323   4.050  17.996  0.00  0.00    +0.000 A 
ATOM     31  C   UNL     1       2.559   2.864  17.328  0.00  0.00    +0.000 A 
ATOM     32  N   UNL     1       2.620   1.853  18.248  0.00  0.00    +0.000 N 
ATOM     33  C   UNL     1       2.363   2.341  19.507  0.00  0.00    +0.000 A 
ATOM     34  C   UNL     1       2.210   1.663  20.721  0.00  0.00    +0.000 A 
ATOM     35  C   UNL     1       1.855   2.418  21.842  0.00  0.00    +0.000 A 
ATOM     36  C   UNL     1       1.729   3.802  21.764  0.00  0.00    +0.000 A 
ATOM     37  C   UNL     1       1.936   4.470  20.552  0.00  0.00    +0.000 A 
ATOM     38  C   UNL     1       2.218   3.724  19.389  0.00  0.00    +0.000 A 
ATOM     39  H   UNL     1       2.740   0.874  18.032  0.00  0.00    +0.000 HD
ENDBRANCH  29  30
ENDBRANCH   1  29
TORSDOF 13
ENDMDL
MODEL 5
REMARK VINA RESULT:      -7.6      1.310      1.947
REMARK  Name = 
REMARK  15 active torsions:
REMARK  status: ('A' for Active; 'I' for Inactive)
REMARK    1  A    between atoms: C_1  and  C_2
REMARK    2  A    between atoms: C_2  and  C_3
REMARK    3  A    between atoms: C_3  and  C_4
REMARK    4  A    between atoms: C_4  and  C_5
REMARK    5  A    between atoms: C_5  and  N_6
REMARK    6  A    between atoms: N_6  and  C_7
REMARK    7  A    between atoms: C_7  and  C_8
REMARK    8  A    between atoms: C_8  and  C_9
REMARK    9  A    between atoms: C_9  and  C_10
REMARK   10  A    between atoms: C_10  and  C_11
REMARK   11  A    between atoms: C_12  and  C_14
REMARK   12  A    between atoms: C_14  and  C_15
REMARK   13  A    between atoms: C_14  and  N_25
REMARK   14  A    between atoms: C_15  and  C_16
REMARK   15  A    between atoms: C_26  and  C_28
REMARK                            x       y       z     vdW  Elec       q    Type
REMARK                         _______ _______ _______ _____ _____    ______ ____
ROOT
ATOM      1  C   UNL     1       2.753   6.336  17.929  0.00  0.00    +0.000 C 
ENDROOT
BRANCH   1   2
ATOM      2  N   UNL     1       2.089   7.222  18.908  0.00  0.00    +0.000 N 
ATOM      3  C   UNL     1       1.756   8.523  18.641  0.00  0.00    +0.000 C 
ATOM      4  O   UNL     1       2.052   9.082  17.579  0.00  0.00    +0.000 OA
ATOM      5  H   UNL     1       1.773   6.813  19.789  0.00  0.00    +0.000 HD
BRANCH   3   6
ATOM      6  C   UNL     1       0.979   9.259  19.704  0.00  0.00    +0.000 A 
ATOM      7  C   UNL     1       1.119   8.874  21.026  0.00  0.00    +0.000 A 
ATOM      8  C   UNL     1       0.406   9.566  21.998  0.00  0.00    +0.000 A 
ATOM      9  C   UNL     1      -0.431  10.622  21.621  0.00  0.00    +0.000 A 
ATOM     10  C   UNL     1      -1.177  11.336  22.577  0.00  0.00    +0.000 A 
ATOM     11  C   UNL     1      -2.014  12.377  22.180  0.00  0.00    +0.000 A 
ATOM     12  C   UNL     1      -2.101  12.707  20.834  0.00  0.00    +0.000 A 
ATOM     13  C   UNL     1      -1.350  11.998  19.890  0.00  0.00    +0.000 A 
ATOM     14  C   UNL     1      -0.510  10.950  20.248  0.00  0.00    +0.000 A 
ATOM     15  N   UNL     1       0.183  10.287  19.296  0.00  0.00    +0.000 NA
ENDBRANCH   3   6
ENDBRANCH   1   2
BRANCH   1  17
ATOM     16  N   UNL     1       5.270   6.120  17.350  0.00  0.00    +0.000 N 
ATOM     17  C   UNL     1       4.250   6.168  18.329  0.00  0.00    +0.000 C 
ATOM     18  O   UNL     1       4.540   6.144  19.534  0.00  0.00    +0.000 OA
BRANCH  16  19
ATOM     19  C   UNL     1       6.624   5.891  17.872  0.00  0.00    +0.000 C 
BRANCH  19  20
ATOM     20  C   UNL     1       7.693   6.889  17.410  0.00  0.00    +0.000 C 
BRANCH  20  21
ATOM     21  C   UNL     1       8.323   7.829  18.452  0.00  0.00    +0.000 C 
BRANCH  21  23
ATOM     22  C   UNL     1       9.105  10.286  18.541  0.00  0.00    +0.000 C 
ATOM     23  C   UNL     1       8.144   9.272  17.947  0.00  0.00    +0.000 C 
ENDBRANCH  21  23
ENDBRANCH  20  21
ENDBRANCH  19  20
ENDBRANCH  16  19
BRANCH  16  24
ATOM     24  C   UNL     1       5.007   5.881  15.910  0.00  0.00    +0.000 C 
BRANCH  24  25
ATOM     25  C   UNL     1       4.940   4.432  15.397  0.00  0.00    +0.000 C 
BRANCH  25  26
ATOM     26  C   UNL     1       6.167   3.990  14.563  0.00  0.00    +0.000 C 
BRANCH  26  27
ATOM     27  C   UNL     1       7.126   5.122  14.174  0.00  0.00    +0.000 C 
ATOM     28  C   UNL     1       7.656   4.959  12.752  0.00  0.00    +0.000 C 
ENDBRANCH  26  27
ENDBRANCH  25  26
ENDBRANCH  24  25
ENDBRANCH  16  24
ENDBRANCH   1  17
BRANCH   1  29
ATOM     29  C   UNL     1       1.938   5.048  17.744  0.00  0.00    +0.000 C 
BRANCH  29  30
ATOM     30  C   UNL     1       1.747   4.185  18.955  0.00  0.00    +0.000 A 
ATOM     31  C   UNL     1       0.694   4.242  19.847  0.00  0.00    +0.000 A 
ATOM     32  N   UNL     1       0.962   3.395  20.889  0.00  0.00    +0.000 N 
ATOM     33  C   UNL     1       2.204   2.829  20.731  0.00  0.00    +0.000 A 
ATOM     34  C   UNL     1       2.931   2.001  21.594  0.00  0.00    +0.000 A 
ATOM     35  C   UNL     1       4.226   1.646  21.209  0.00  0.00    +0.000 A 
ATOM     36  C   UNL     1       4.744   2.045  19.980  0.00  0.00    +0.000 A 
ATOM     37  C   UNL     1       3.984   2.831  19.107  0.00  0.00    +0.000 A 
ATOM     38  C   UNL     1       2.703   3.268  19.504  0.00  0.00    +0.000 A 
ATOM     39  H   UNL     1       0.380   3.273  21.704  0.00  0.00    +0.000 HD
ENDBRANCH  29  30
ENDBRANCH   1  29
TORSDOF 13
ENDMDL
MODEL 6
REMARK VINA RESULT:      -7.4      0.953      1.556
REMARK  Name = 
REMARK  15 active torsions:
REMARK  status: ('A' for Active; 'I' for Inactive)
REMARK    1  A    between atoms: C_1  and  C_2
REMARK    2  A    between atoms: C_2  and  C_3
REMARK    3  A    between atoms: C_3  and  C_4
REMARK    4  A    between atoms: C_4  and  C_5
REMARK    5  A    between atoms: C_5  and  N_6
REMARK    6  A    between atoms: N_6  and  C_7
REMARK    7  A    between atoms: C_7  and  C_8
REMARK    8  A    between atoms: C_8  and  C_9
REMARK    9  A    between atoms: C_9  and  C_10
REMARK   10  A    between atoms: C_10  and  C_11
REMARK   11  A    between atoms: C_12  and  C_14
REMARK   12  A    between atoms: C_14  and  C_15
REMARK   13  A    between atoms: C_14  and  N_25
REMARK   14  A    between atoms: C_15  and  C_16
REMARK   15  A    between atoms: C_26  and  C_28
REMARK                            x       y       z     vdW  Elec       q    Type
REMARK                         _______ _______ _______ _____ _____    ______ ____
ROOT
ATOM      1  C   UNL     1       2.662   6.743  18.064  0.00  0.00    +0.000 C 
ENDROOT
BRANCH   1   2
ATOM      2  N   UNL     1       2.192   7.896  18.861  0.00  0.00    +0.000 N 
ATOM      3  C   UNL     1       1.797   9.083  18.306  0.00  0.00    +0.000 C 
ATOM      4  O   UNL     1       1.871   9.311  17.094  0.00  0.00    +0.000 OA
ATOM      5  H   UNL     1       2.060   7.763  19.865  0.00  0.00    +0.000 HD
BRANCH   3   6
ATOM      6  C   UNL     1       1.235  10.121  19.247  0.00  0.00    +0.000 A 
ATOM      7  C   UNL     1       1.506  11.457  19.013  0.00  0.00    +0.000 A 
ATOM      8  C   UNL     1       0.976  12.405  19.880  0.00  0.00    +0.000 A 
ATOM      9  C   UNL     1       0.190  11.990  20.961  0.00  0.00    +0.000 A 
ATOM     10  C   UNL     1      -0.352  12.920  21.866  0.00  0.00    +0.000 A 
ATOM     11  C   UNL     1      -1.122  12.486  22.943  0.00  0.00    +0.000 A 
ATOM     12  C   UNL     1      -1.353  11.127  23.113  0.00  0.00    +0.000 A 
ATOM     13  C   UNL     1      -0.816  10.207  22.204  0.00  0.00    +0.000 A 
ATOM     14  C   UNL     1      -0.038  10.603  21.122  0.00  0.00    +0.000 A 
ATOM     15  N   UNL     1       0.469   9.675  20.282  0.00  0.00    +0.000 NA
ENDBRANCH   3   6
ENDBRANCH   1   2
BRANCH   1  17
ATOM     16  N   UNL     1       5.119   5.932  17.924  0.00  0.00    +0.000 N 
ATOM     17  C   UNL     1       3.966   6.179  18.705  0.00  0.00    +0.000 C 
ATOM     18  O   UNL     1       3.995   6.012  19.933  0.00  0.00    +0.000 OA
BRANCH  16  19
ATOM     19  C   UNL     1       6.249   5.337  18.653  0.00  0.00    +0.000 C 
BRANCH  19  20
ATOM     20  C   UNL     1       7.643   5.797  18.210  0.00  0.00    +0.000 C 
BRANCH  20  21
ATOM     21  C   UNL     1       8.173   7.145  18.726  0.00  0.00    +0.000 C 
BRANCH  21  23
ATOM     22  C   UNL     1       8.404   9.597  17.956  0.00  0.00    +0.000 C 
ATOM     23  C   UNL     1       7.886   8.204  17.646  0.00  0.00    +0.000 C 
ENDBRANCH  21  23
ENDBRANCH  20  21
ENDBRANCH  19  20
ENDBRANCH  16  19
BRANCH  16  24
ATOM     24  C   UNL     1       5.100   5.851  16.444  0.00  0.00    +0.000 C 
BRANCH  24  25
ATOM     25  C   UNL     1       5.526   4.538  15.765  0.00  0.00    +0.000 C 
BRANCH  25  26
ATOM     26  C   UNL     1       5.231   4.478  14.246  0.00  0.00    +0.000 C 
BRANCH  26  27
ATOM     27  C   UNL     1       6.383   3.948  13.384  0.00  0.00    +0.000 C 
ATOM     28  C   UNL     1       5.878   3.217  12.142  0.00  0.00    +0.000 C 
ENDBRANCH  26  27
ENDBRANCH  25  26
ENDBRANCH  24  25
ENDBRANCH  16  24
ENDBRANCH   1  17
BRANCH   1  29
ATOM     29  C   UNL     1       1.513   5.750  17.843  0.00  0.00    +0.000 C 
BRANCH  29  30
ATOM     30  C   UNL     1       1.490   4.532  18.719  0.00  0.00    +0.000 A 
ATOM     31  C   UNL     1       0.883   4.420  19.954  0.00  0.00    +0.000 A 
ATOM     32  N   UNL     1       1.213   3.205  20.491  0.00  0.00    +0.000 N 
ATOM     33  C   UNL     1       2.082   2.540  19.659  0.00  0.00    +0.000 A 
ATOM     34  C   UNL     1       2.763   1.332  19.849  0.00  0.00    +0.000 A 
ATOM     35  C   UNL     1       3.667   0.938  18.859  0.00  0.00    +0.000 A 
ATOM     36  C   UNL     1       3.828   1.686  17.696  0.00  0.00    +0.000 A 
ATOM     37  C   UNL     1       3.100   2.865  17.499  0.00  0.00    +0.000 A 
ATOM     38  C   UNL     1       2.239   3.326  18.516  0.00  0.00    +0.000 A 
ATOM     39  H   UNL     1       0.940   2.878  21.406  0.00  0.00    +0.000 HD
ENDBRANCH  29  30
ENDBRANCH   1  29
TORSDOF 13
ENDMDL
MODEL 7
REMARK VINA RESULT:      -7.3      1.478      1.968
REMARK  Name = 
REMARK  15 active torsions:
REMARK  status: ('A' for Active; 'I' for Inactive)
REMARK    1  A    between atoms: C_1  and  C_2
REMARK    2  A    between atoms: C_2  and  C_3
REMARK    3  A    between atoms: C_3  and  C_4
REMARK    4  A    between atoms: C_4  and  C_5
REMARK    5  A    between atoms: C_5  and  N_6
REMARK    6  A    between atoms: N_6  and  C_7
REMARK    7  A    between atoms: C_7  and  C_8
REMARK    8  A    between atoms: C_8  and  C_9
REMARK    9  A    between atoms: C_9  and  C_10
REMARK   10  A    between atoms: C_10  and  C_11
REMARK   11  A    between atoms: C_12  and  C_14
REMARK   12  A    between atoms: C_14  and  C_15
REMARK   13  A    between atoms: C_14  and  N_25
REMARK   14  A    between atoms: C_15  and  C_16
REMARK   15  A    between atoms: C_26  and  C_28
REMARK                            x       y       z     vdW  Elec       q    Type
REMARK                         _______ _______ _______ _____ _____    ______ ____
ROOT
ATOM      1  C   UNL     1       2.429   6.225  17.716  0.00  0.00    +0.000 C 
ENDROOT
BRANCH   1   2
ATOM      2  N   UNL     1       1.654   7.355  18.269  0.00  0.00    +0.000 N 
ATOM      3  C   UNL     1       1.821   8.651  17.865  0.00  0.00    +0.000 C 
ATOM      4  O   UNL     1       2.688   8.990  17.052  0.00  0.00    +0.000 OA
ATOM      5  H   UNL     1       0.887   7.142  18.910  0.00  0.00    +0.000 HD
BRANCH   3   6
ATOM      6  C   UNL     1       0.872   9.673  18.443  0.00  0.00    +0.000 A 
ATOM      7  C   UNL     1      -0.435   9.707  17.992  0.00  0.00    +0.000 A 
ATOM      8  C   UNL     1      -1.302  10.646  18.539  0.00  0.00    +0.000 A 
ATOM      9  C   UNL     1      -0.837  11.527  19.520  0.00  0.00    +0.000 A 
ATOM     10  C   UNL     1      -1.683  12.498  20.086  0.00  0.00    +0.000 A 
ATOM     11  C   UNL     1      -1.198  13.375  21.055  0.00  0.00    +0.000 A 
ATOM     12  C   UNL     1       0.127  13.279  21.459  0.00  0.00    +0.000 A 
ATOM     13  C   UNL     1       0.961  12.306  20.897  0.00  0.00    +0.000 A 
ATOM     14  C   UNL     1       0.513  11.419  19.924  0.00  0.00    +0.000 A 
ATOM     15  N   UNL     1       1.363  10.507  19.403  0.00  0.00    +0.000 NA
ENDBRANCH   3   6
ENDBRANCH   1   2
BRANCH   1  17
ATOM     16  N   UNL     1       5.016   6.140  17.600  0.00  0.00    +0.000 N 
ATOM     17  C   UNL     1       3.838   6.200  18.381  0.00  0.00    +0.000 C 
ATOM     18  O   UNL     1       3.910   6.302  19.614  0.00  0.00    +0.000 OA
BRANCH  16  19
ATOM     19  C   UNL     1       6.268   6.054  18.367  0.00  0.00    +0.000 C 
BRANCH  19  20
ATOM     20  C   UNL     1       7.504   6.663  17.693  0.00  0.00    +0.000 C 
BRANCH  20  21
ATOM     21  C   UNL     1       7.571   8.189  17.516  0.00  0.00    +0.000 C 
BRANCH  21  23
ATOM     22  C   UNL     1       8.934  10.205  18.374  0.00  0.00    +0.000 C 
ATOM     23  C   UNL     1       8.603   8.730  18.522  0.00  0.00    +0.000 C 
ENDBRANCH  21  23
ENDBRANCH  20  21
ENDBRANCH  19  20
ENDBRANCH  16  19
BRANCH  16  24
ATOM     24  C   UNL     1       5.027   5.758  16.168  0.00  0.00    +0.000 C 
BRANCH  24  25
ATOM     25  C   UNL     1       5.093   4.266  15.796  0.00  0.00    +0.000 C 
BRANCH  25  26
ATOM     26  C   UNL     1       6.422   3.829  15.133  0.00  0.00    +0.000 C 
BRANCH  26  27
ATOM     27  C   UNL     1       6.631   4.341  13.703  0.00  0.00    +0.000 C 
ATOM     28  C   UNL     1       5.948   3.448  12.670  0.00  0.00    +0.000 C 
ENDBRANCH  26  27
ENDBRANCH  25  26
ENDBRANCH  24  25
ENDBRANCH  16  24
ENDBRANCH   1  17
BRANCH   1  29
ATOM     29  C   UNL     1       1.605   4.932  17.791  0.00  0.00    +0.000 C 
BRANCH  29  30
ATOM     30  C   UNL     1       1.671   4.158  19.074  0.00  0.00    +0.000 A 
ATOM     31  C   UNL     1       0.876   4.346  20.188  0.00  0.00    +0.000 A 
ATOM     32  N   UNL     1       1.345   3.545  21.195  0.00  0.00    +0.000 N 
ATOM     33  C   UNL     1       2.476   2.881  20.784  0.00  0.00    +0.000 A 
ATOM     34  C   UNL     1       3.345   2.055  21.506  0.00  0.00    +0.000 A 
ATOM     35  C   UNL     1       4.484   1.585  20.846  0.00  0.00    +0.000 A 
ATOM     36  C   UNL     1       4.704   1.871  19.502  0.00  0.00    +0.000 A 
ATOM     37  C   UNL     1       3.797   2.657  18.782  0.00  0.00    +0.000 A 
ATOM     38  C   UNL     1       2.680   3.209  19.443  0.00  0.00    +0.000 A 
ATOM     39  H   UNL     1       0.976   3.514  22.134  0.00  0.00    +0.000 HD
ENDBRANCH  29  30
ENDBRANCH   1  29
TORSDOF 13
ENDMDL
MODEL 8
REMARK VINA RESULT:      -7.2      2.945      9.694
REMARK  Name = 
REMARK  15 active torsions:
REMARK  status: ('A' for Active; 'I' for Inactive)
REMARK    1  A    between atoms: C_1  and  C_2
REMARK    2  A    between atoms: C_2  and  C_3
REMARK    3  A    between atoms: C_3  and  C_4
REMARK    4  A    between atoms: C_4  and  C_5
REMARK    5  A    between atoms: C_5  and  N_6
REMARK    6  A    between atoms: N_6  and  C_7
REMARK    7  A    between atoms: C_7  and  C_8
REMARK    8  A    between atoms: C_8  and  C_9
REMARK    9  A    between atoms: C_9  and  C_10
REMARK   10  A    between atoms: C_10  and  C_11
REMARK   11  A    between atoms: C_12  and  C_14
REMARK   12  A    between atoms: C_14  and  C_15
REMARK   13  A    between atoms: C_14  and  N_25
REMARK   14  A    between atoms: C_15  and  C_16
REMARK   15  A    between atoms: C_26  and  C_28
REMARK                            x       y       z     vdW  Elec       q    Type
REMARK                         _______ _______ _______ _____ _____    ______ ____
ROOT
ATOM      1  C   UNL     1       0.892  10.691  19.471  0.00  0.00    +0.000 C 
ENDROOT
BRANCH   1   2
ATOM      2  N   UNL     1       1.348   9.286  19.476  0.00  0.00    +0.000 N 
ATOM      3  C   UNL     1       2.030   8.713  18.436  0.00  0.00    +0.000 C 
ATOM      4  O   UNL     1       2.256   9.309  17.377  0.00  0.00    +0.000 OA
ATOM      5  H   UNL     1       1.238   8.748  20.337  0.00  0.00    +0.000 HD
BRANCH   3   6
ATOM      6  C   UNL     1       2.527   7.303  18.643  0.00  0.00    +0.000 A 
ATOM      7  C   UNL     1       3.456   6.782  17.759  0.00  0.00    +0.000 A 
ATOM      8  C   UNL     1       3.914   5.486  17.964  0.00  0.00    +0.000 A 
ATOM      9  C   UNL     1       3.428   4.745  19.046  0.00  0.00    +0.000 A 
ATOM     10  C   UNL     1       3.860   3.426  19.277  0.00  0.00    +0.000 A 
ATOM     11  C   UNL     1       3.355   2.699  20.353  0.00  0.00    +0.000 A 
ATOM     12  C   UNL     1       2.425   3.290  21.199  0.00  0.00    +0.000 A 
ATOM     13  C   UNL     1       2.006   4.605  20.968  0.00  0.00    +0.000 A 
ATOM     14  C   UNL     1       2.483   5.358  19.901  0.00  0.00    +0.000 A 
ATOM     15  N   UNL     1       2.035   6.618  19.713  0.00  0.00    +0.000 NA
ENDBRANCH   3   6
ENDBRANCH   1   2
BRANCH   1  17
ATOM     16  N   UNL     1      -1.110  11.936  18.394  0.00  0.00    +0.000 N 
ATOM     17  C   UNL     1      -0.574  10.748  18.946  0.00  0.00    +0.000 C 
ATOM     18  O   UNL     1      -1.247   9.707  18.960  0.00  0.00    +0.000 OA
BRANCH  16  19
ATOM     19  C   UNL     1      -2.525  11.858  18.003  0.00  0.00    +0.000 C 
BRANCH  19  20
ATOM     20  C   UNL     1      -3.538  11.944  19.152  0.00  0.00    +0.000 C 
BRANCH  20  21
ATOM     21  C   UNL     1      -5.017  12.194  18.813  0.00  0.00    +0.000 C 
BRANCH  21  23
ATOM     22  C   UNL     1      -6.492  12.317  20.927  0.00  0.00    +0.000 C 
ATOM     23  C   UNL     1      -5.613  13.061  19.937  0.00  0.00    +0.000 C 
ENDBRANCH  21  23
ENDBRANCH  20  21
ENDBRANCH  19  20
ENDBRANCH  16  19
BRANCH  16  24
ATOM     24  C   UNL     1      -0.489  13.270  18.571  0.00  0.00    +0.000 C 
BRANCH  24  25
ATOM     25  C   UNL     1       0.927  13.511  18.018  0.00  0.00    +0.000 C 
BRANCH  25  26
ATOM     26  C   UNL     1       1.820  14.404  18.913  0.00  0.00    +0.000 C 
BRANCH  26  27
ATOM     27  C   UNL     1       1.092  15.565  19.601  0.00  0.00    +0.000 C 
ATOM     28  C   UNL     1       1.477  15.691  21.073  0.00  0.00    +0.000 C 
ENDBRANCH  26  27
ENDBRANCH  25  26
ENDBRANCH  24  25
ENDBRANCH  16  24
ENDBRANCH   1  17
BRANCH   1  29
ATOM     29  C   UNL     1       1.164  11.340  20.836  0.00  0.00    +0.000 C 
BRANCH  29  30
ATOM     30  C   UNL     1       0.114  11.165  21.892  0.00  0.00    +0.000 A 
ATOM     31  C   UNL     1      -0.141  10.015  22.614  0.00  0.00    +0.000 A 
ATOM     32  N   UNL     1      -1.266  10.218  23.368  0.00  0.00    +0.000 N 
ATOM     33  C   UNL     1      -1.794  11.459  23.107  0.00  0.00    +0.000 A 
ATOM     34  C   UNL     1      -2.985  12.042  23.555  0.00  0.00    +0.000 A 
ATOM     35  C   UNL     1      -3.320  13.299  23.046  0.00  0.00    +0.000 A 
ATOM     36  C   UNL     1      -2.463  13.974  22.180  0.00  0.00    +0.000 A 
ATOM     37  C   UNL     1      -1.252  13.397  21.782  0.00  0.00    +0.000 A 
ATOM     38  C   UNL     1      -0.926  12.096  22.220  0.00  0.00    +0.000 A 
ATOM     39  H   UNL     1      -1.703   9.526  23.960  0.00  0.00    +0.000 HD
ENDBRANCH  29  30
ENDBRANCH   1  29
TORSDOF 13
ENDMDL
MODEL 9
REMARK VINA RESULT:      -7.1      1.628      8.493
REMARK  Name = 
REMARK  15 active torsions:
REMARK  status: ('A' for Active; 'I' for Inactive)
REMARK    1  A    between atoms: C_1  and  C_2
REMARK    2  A    between atoms: C_2  and  C_3
REMARK    3  A    between atoms: C_3  and  C_4
REMARK    4  A    between atoms: C_4  and  C_5
REMARK    5  A    between atoms: C_5  and  N_6
REMARK    6  A    between atoms: N_6  and  C_7
REMARK    7  A    between atoms: C_7  and  C_8
REMARK    8  A    between atoms: C_8  and  C_9
REMARK    9  A    between atoms: C_9  and  C_10
REMARK   10  A    between atoms: C_10  and  C_11
REMARK   11  A    between atoms: C_12  and  C_14
REMARK   12  A    between atoms: C_14  and  C_15
REMARK   13  A    between atoms: C_14  and  N_25
REMARK   14  A    between atoms: C_15  and  C_16
REMARK   15  A    between atoms: C_26  and  C_28
REMARK                            x       y       z     vdW  Elec       q    Type
REMARK                         _______ _______ _______ _____ _____    ______ ____
ROOT
ATOM      1  C   UNL     1       2.351   7.011  19.406  0.00  0.00    +0.000 C 
ENDROOT
BRANCH   1   2
ATOM      2  N   UNL     1       3.314   6.712  18.326  0.00  0.00    +0.000 N 
ATOM      3  C   UNL     1       4.520   6.103  18.541  0.00  0.00    +0.000 C 
ATOM      4  O   UNL     1       4.932   5.818  19.670  0.00  0.00    +0.000 OA
ATOM      5  H   UNL     1       3.019   6.876  17.361  0.00  0.00    +0.000 HD
BRANCH   3   6
ATOM      6  C   UNL     1       5.339   5.762  17.319  0.00  0.00    +0.000 A 
ATOM      7  C   UNL     1       6.665   6.155  17.268  0.00  0.00    +0.000 A 
ATOM      8  C   UNL     1       7.411   5.828  16.143  0.00  0.00    +0.000 A 
ATOM      9  C   UNL     1       6.811   5.120  15.096  0.00  0.00    +0.000 A 
ATOM     10  C   UNL     1       7.532   4.783  13.937  0.00  0.00    +0.000 A 
ATOM     11  C   UNL     1       6.913   4.088  12.900  0.00  0.00    +0.000 A 
ATOM     12  C   UNL     1       5.578   3.726  13.024  0.00  0.00    +0.000 A 
ATOM     13  C   UNL     1       4.868   4.058  14.184  0.00  0.00    +0.000 A 
ATOM     14  C   UNL     1       5.451   4.756  15.235  0.00  0.00    +0.000 A 
ATOM     15  N   UNL     1       4.718   5.065  16.327  0.00  0.00    +0.000 NA
ENDBRANCH   3   6
ENDBRANCH   1   2
BRANCH   1  17
ATOM     16  N   UNL     1       1.275   9.215  20.244  0.00  0.00    +0.000 N 
ATOM     17  C   UNL     1       1.742   8.426  19.167  0.00  0.00    +0.000 C 
ATOM     18  O   UNL     1       1.735   8.878  18.012  0.00  0.00    +0.000 OA
BRANCH  16  19
ATOM     19  C   UNL     1       0.665  10.496  19.859  0.00  0.00    +0.000 C 
BRANCH  19  20
ATOM     20  C   UNL     1      -0.796  10.426  19.398  0.00  0.00    +0.000 C 
BRANCH  20  21
ATOM     21  C   UNL     1      -1.499  11.726  18.975  0.00  0.00    +0.000 C 
BRANCH  21  23
ATOM     22  C   UNL     1      -2.342  10.485  16.876  0.00  0.00    +0.000 C 
ATOM     23  C   UNL     1      -2.691  11.342  18.080  0.00  0.00    +0.000 C 
ENDBRANCH  21  23
ENDBRANCH  20  21
ENDBRANCH  19  20
ENDBRANCH  16  19
BRANCH  16  24
ATOM     24  C   UNL     1       1.004   8.671  21.596  0.00  0.00    +0.000 C 
BRANCH  24  25
ATOM     25  C   UNL     1      -0.369   8.932  22.242  0.00  0.00    +0.000 C 
BRANCH  25  26
ATOM     26  C   UNL     1      -0.399  10.134  23.218  0.00  0.00    +0.000 C 
BRANCH  26  27
ATOM     27  C   UNL     1      -1.558  11.114  23.001  0.00  0.00    +0.000 C 
ATOM     28  C   UNL     1      -1.073  12.558  22.890  0.00  0.00    +0.000 C 
ENDBRANCH  26  27
ENDBRANCH  25  26
ENDBRANCH  24  25
ENDBRANCH  16  24
ENDBRANCH   1  17
BRANCH   1  29
ATOM     29  C   UNL     1       1.361   5.850  19.569  0.00  0.00    +0.000 C 
BRANCH  29  30
ATOM     30  C   UNL     1       1.919   4.543  20.049  0.00  0.00    +0.000 A 
ATOM     31  C   UNL     1       2.267   4.226  21.348  0.00  0.00    +0.000 A 
ATOM     32  N   UNL     1       2.871   2.998  21.347  0.00  0.00    +0.000 N 
ATOM     33  C   UNL     1       2.988   2.528  20.060  0.00  0.00    +0.000 A 
ATOM     34  C   UNL     1       3.631   1.384  19.575  0.00  0.00    +0.000 A 
ATOM     35  C   UNL     1       3.670   1.203  18.190  0.00  0.00    +0.000 A 
ATOM     36  C   UNL     1       3.030   2.093  17.333  0.00  0.00    +0.000 A 
ATOM     37  C   UNL     1       2.346   3.205  17.838  0.00  0.00    +0.000 A 
ATOM     38  C   UNL     1       2.358   3.453  19.227  0.00  0.00    +0.000 A 
ATOM     39  H   UNL     1       3.263   2.541  22.157  0.00  0.00    +0.000 HD
ENDBRANCH  29  30
ENDBRANCH   1  29
TORSDOF 13
ENDMDL
