MODEL 1
REMARK VINA RESULT:      -6.7      0.000      0.000
REMARK  Name = 
REMARK  5 active torsions:
REMARK  status: ('A' for Active; 'I' for Inactive)
REMARK    1  A    between atoms: C_2  and  C_3
REMARK    2  A    between atoms: N_5  and  C_6
REMARK    3  A    between atoms: C_8  and  C_9
REMARK    4  A    between atoms: C_9  and  O_10
REMARK    5  A    between atoms: C_11  and  O_12
REMARK                            x       y       z     vdW  Elec       q    Type
REMARK                         _______ _______ _______ _____ _____    ______ ____
ROOT
ATOM      1  C   UNL     1       2.583   5.521  19.907  0.00  0.00    +0.000 A 
ATOM      2  C   UNL     1       3.871   5.887  19.587  0.00  0.00    +0.000 A 
ATOM      3  N   UNL     1       4.486   4.797  19.016  0.00  0.00    +0.000 N 
ATOM      4  C   UNL     1       3.578   3.771  18.902  0.00  0.00    +0.000 A 
ATOM      5  N   UNL     1       3.831   2.572  18.354  0.00  0.00    +0.000 NA
ATOM      6  C   UNL     1       2.770   1.753  18.451  0.00  0.00    +0.000 A 
ATOM      7  N   UNL     1       1.578   2.003  19.026  0.00  0.00    +0.000 NA
ATOM      8  C   UNL     1       1.368   3.217  19.575  0.00  0.00    +0.000 A 
ATOM      9  N   UNL     1       0.156   3.419  20.207  0.00  0.00    +0.000 N 
ATOM     10  C   UNL     1       2.390   4.174  19.497  0.00  0.00    +0.000 A 
ATOM     11  H   UNL     1      -0.524   2.700  19.994  0.00  0.00    +0.000 HD
ATOM     12  H   UNL     1      -0.186   4.360  20.328  0.00  0.00    +0.000 HD
ENDROOT
BRANCH   3  13
ATOM     13  C   UNL     1       5.901   4.654  18.730  0.00  0.00    +0.000 C 
ATOM     14  O   UNL     1       6.627   5.755  19.313  0.00  0.00    +0.000 OA
ATOM     15  C   UNL     1       7.832   5.970  18.555  0.00  0.00    +0.000 C 
ATOM     16  C   UNL     1       7.816   4.972  17.390  0.00  0.00    +0.000 C 
ATOM     17  C   UNL     1       6.365   4.501  17.283  0.00  0.00    +0.000 C 
ATOM     18  I   UNL     1       5.290   5.652  15.822  0.00  0.00    +0.000 I 
BRANCH  16  19
ATOM     19  O   UNL     1       8.651   3.843  17.696  0.00  0.00    +0.000 OA
ATOM     20  H   UNL     1       8.193   3.014  17.466  0.00  0.00    +0.000 HD
ENDBRANCH  16  19
BRANCH  15  21
ATOM     21  C   UNL     1       7.894   7.437  18.110  0.00  0.00    +0.000 C 
BRANCH  21  22
ATOM     22  O   UNL     1       8.748   8.208  18.956  0.00  0.00    +0.000 OA
ATOM     23  H   UNL     1       9.003   7.664  19.719  0.00  0.00    +0.000 HD
ENDBRANCH  21  22
ENDBRANCH  15  21
ENDBRANCH   3  13
BRANCH   1  25
ATOM     24  N   UNL     1       0.862   7.072  21.059  0.00  0.00    +0.000 NA
ATOM     25  C   UNL     1       1.626   6.358  20.557  0.00  0.00    +0.000 C 
ENDBRANCH   1  25
TORSDOF 5
ENDMDL
MODEL 2
REMARK VINA RESULT:      -6.7      3.500      6.369
REMARK  Name = 
REMARK  5 active torsions:
REMARK  status: ('A' for Active; 'I' for Inactive)
REMARK    1  A    between atoms: C_2  and  C_3
REMARK    2  A    between atoms: N_5  and  C_6
REMARK    3  A    between atoms: C_8  and  C_9
REMARK    4  A    between atoms: C_9  and  O_10
REMARK    5  A    between atoms: C_11  and  O_12
REMARK                            x       y       z     vdW  Elec       q    Type
REMARK                         _______ _______ _______ _____ _____    ______ ____
ROOT
ATOM      1  C   UNL     1       5.154   4.228  15.992  0.00  0.00    +0.000 A 
ATOM      2  C   UNL     1       4.196   3.611  16.764  0.00  0.00    +0.000 A 
ATOM      3  N   UNL     1       4.507   3.847  18.083  0.00  0.00    +0.000 N 
ATOM      4  C   UNL     1       5.607   4.669  18.151  0.00  0.00    +0.000 A 
ATOM      5  N   UNL     1       6.159   5.129  19.285  0.00  0.00    +0.000 NA
ATOM      6  C   UNL     1       7.266   5.851  19.035  0.00  0.00    +0.000 A 
ATOM      7  N   UNL     1       7.837   6.110  17.842  0.00  0.00    +0.000 NA
ATOM      8  C   UNL     1       7.257   5.619  16.729  0.00  0.00    +0.000 A 
ATOM      9  N   UNL     1       7.900   5.855  15.530  0.00  0.00    +0.000 N 
ATOM     10  C   UNL     1       6.068   4.884  16.859  0.00  0.00    +0.000 A 
ATOM     11  H   UNL     1       8.623   6.560  15.602  0.00  0.00    +0.000 HD
ATOM     12  H   UNL     1       7.372   5.819  14.671  0.00  0.00    +0.000 HD
ENDROOT
BRANCH   3  13
ATOM     13  C   UNL     1       3.907   3.210  19.241  0.00  0.00    +0.000 C 
ATOM     14  O   UNL     1       2.908   2.264  18.809  0.00  0.00    +0.000 OA
ATOM     15  C   UNL     1       1.928   2.115  19.853  0.00  0.00    +0.000 C 
ATOM     16  C   UNL     1       2.319   3.081  20.979  0.00  0.00    +0.000 C 
ATOM     17  C   UNL     1       3.291   4.072  20.340  0.00  0.00    +0.000 C 
ATOM     18  I   UNL     1       2.263   5.841  19.685  0.00  0.00    +0.000 I 
BRANCH  16  19
ATOM     19  O   UNL     1       2.999   2.369  22.026  0.00  0.00    +0.000 OA
ATOM     20  H   UNL     1       3.861   2.045  21.706  0.00  0.00    +0.000 HD
ENDBRANCH  16  19
BRANCH  15  21
ATOM     21  C   UNL     1       0.530   2.373  19.276  0.00  0.00    +0.000 C 
BRANCH  21  22
ATOM     22  O   UNL     1       0.597   2.996  17.993  0.00  0.00    +0.000 OA
ATOM     23  H   UNL     1      -0.282   3.346  17.770  0.00  0.00    +0.000 HD
ENDBRANCH  21  22
ENDBRANCH  15  21
ENDBRANCH   3  13
BRANCH   1  25
ATOM     24  N   UNL     1       5.278   4.110  13.410  0.00  0.00    +0.000 NA
ATOM     25  C   UNL     1       5.215   4.186  14.566  0.00  0.00    +0.000 C 
ENDBRANCH   1  25
TORSDOF 5
ENDMDL
MODEL 3
REMARK VINA RESULT:      -6.4      3.392      6.154
REMARK  Name = 
REMARK  5 active torsions:
REMARK  status: ('A' for Active; 'I' for Inactive)
REMARK    1  A    between atoms: C_2  and  C_3
REMARK    2  A    between atoms: N_5  and  C_6
REMARK    3  A    between atoms: C_8  and  C_9
REMARK    4  A    between atoms: C_9  and  O_10
REMARK    5  A    between atoms: C_11  and  O_12
REMARK                            x       y       z     vdW  Elec       q    Type
REMARK                         _______ _______ _______ _____ _____    ______ ____
ROOT
ATOM      1  C   UNL     1       5.001   6.051  16.955  0.00  0.00    +0.000 A 
ATOM      2  C   UNL     1       4.019   5.300  17.561  0.00  0.00    +0.000 A 
ATOM      3  N   UNL     1       4.523   4.840  18.756  0.00  0.00    +0.000 N 
ATOM      4  C   UNL     1       5.783   5.353  18.947  0.00  0.00    +0.000 A 
ATOM      5  N   UNL     1       6.551   5.138  20.027  0.00  0.00    +0.000 NA
ATOM      6  C   UNL     1       7.759   5.713  19.894  0.00  0.00    +0.000 A 
ATOM      7  N   UNL     1       8.237   6.409  18.844  0.00  0.00    +0.000 NA
ATOM      8  C   UNL     1       7.437   6.593  17.773  0.00  0.00    +0.000 A 
ATOM      9  N   UNL     1       7.979   7.261  16.693  0.00  0.00    +0.000 N 
ATOM     10  C   UNL     1       6.133   6.075  17.813  0.00  0.00    +0.000 A 
ATOM     11  H   UNL     1       8.848   7.729  16.914  0.00  0.00    +0.000 HD
ATOM     12  H   UNL     1       7.364   7.713  16.033  0.00  0.00    +0.000 HD
ENDROOT
BRANCH   3  13
ATOM     13  C   UNL     1       3.925   3.835  19.617  0.00  0.00    +0.000 C 
ATOM     14  O   UNL     1       3.204   2.878  18.815  0.00  0.00    +0.000 OA
ATOM     15  C   UNL     1       2.152   2.303  19.613  0.00  0.00    +0.000 C 
ATOM     16  C   UNL     1       2.191   3.000  20.979  0.00  0.00    +0.000 C 
ATOM     17  C   UNL     1       3.011   4.271  20.760  0.00  0.00    +0.000 C 
ATOM     18  I   UNL     1       1.733   5.950  20.357  0.00  0.00    +0.000 I 
BRANCH  16  19
ATOM     19  O   UNL     1       2.866   2.168  21.938  0.00  0.00    +0.000 OA
ATOM     20  H   UNL     1       2.443   1.291  21.977  0.00  0.00    +0.000 HD
ENDBRANCH  16  19
BRANCH  15  21
ATOM     21  C   UNL     1       0.816   2.462  18.877  0.00  0.00    +0.000 C 
BRANCH  21  22
ATOM     22  O   UNL     1       0.930   3.344  17.760  0.00  0.00    +0.000 OA
ATOM     23  H   UNL     1       1.873   3.503  17.584  0.00  0.00    +0.000 HD
ENDBRANCH  21  22
ENDBRANCH  15  21
ENDBRANCH   3  13
BRANCH   1  25
ATOM     24  N   UNL     1       4.837   7.201  14.643  0.00  0.00    +0.000 NA
ATOM     25  C   UNL     1       4.889   6.673  15.675  0.00  0.00    +0.000 C 
ENDBRANCH   1  25
TORSDOF 5
ENDMDL
MODEL 4
REMARK VINA RESULT:      -6.3      2.606      3.833
REMARK  Name = 
REMARK  5 active torsions:
REMARK  status: ('A' for Active; 'I' for Inactive)
REMARK    1  A    between atoms: C_2  and  C_3
REMARK    2  A    between atoms: N_5  and  C_6
REMARK    3  A    between atoms: C_8  and  C_9
REMARK    4  A    between atoms: C_9  and  O_10
REMARK    5  A    between atoms: C_11  and  O_12
REMARK                            x       y       z     vdW  Elec       q    Type
REMARK                         _______ _______ _______ _____ _____    ______ ____
ROOT
ATOM      1  C   UNL     1       4.494   2.838  20.029  0.00  0.00    +0.000 A 
ATOM      2  C   UNL     1       5.113   3.473  18.976  0.00  0.00    +0.000 A 
ATOM      3  N   UNL     1       4.246   4.428  18.496  0.00  0.00    +0.000 N 
ATOM      4  C   UNL     1       3.118   4.455  19.282  0.00  0.00    +0.000 A 
ATOM      5  N   UNL     1       2.083   5.294  19.121  0.00  0.00    +0.000 NA
ATOM      6  C   UNL     1       1.097   5.032  19.996  0.00  0.00    +0.000 A 
ATOM      7  N   UNL     1       1.051   4.063  20.931  0.00  0.00    +0.000 NA
ATOM      8  C   UNL     1       2.108   3.234  21.053  0.00  0.00    +0.000 A 
ATOM      9  N   UNL     1       2.003   2.216  21.981  0.00  0.00    +0.000 N 
ATOM     10  C   UNL     1       3.219   3.436  20.220  0.00  0.00    +0.000 A 
ATOM     11  H   UNL     1       1.228   2.343  22.619  0.00  0.00    +0.000 HD
ATOM     12  H   UNL     1       2.843   1.796  22.349  0.00  0.00    +0.000 HD
ENDROOT
BRANCH   3  13
ATOM     13  C   UNL     1       4.385   5.180  17.263  0.00  0.00    +0.000 C 
ATOM     14  O   UNL     1       4.704   4.282  16.181  0.00  0.00    +0.000 OA
ATOM     15  C   UNL     1       5.429   5.010  15.173  0.00  0.00    +0.000 C 
ATOM     16  C   UNL     1       5.622   6.438  15.698  0.00  0.00    +0.000 C 
ATOM     17  C   UNL     1       5.362   6.352  17.202  0.00  0.00    +0.000 C 
ATOM     18  I   UNL     1       7.200   6.104  18.287  0.00  0.00    +0.000 I 
BRANCH  16  19
ATOM     19  O   UNL     1       4.651   7.317  15.106  0.00  0.00    +0.000 OA
ATOM     20  H   UNL     1       3.851   7.355  15.661  0.00  0.00    +0.000 HD
ENDBRANCH  16  19
BRANCH  15  21
ATOM     21  C   UNL     1       6.745   4.280  14.871  0.00  0.00    +0.000 C 
BRANCH  21  22
ATOM     22  O   UNL     1       7.803   5.198  14.588  0.00  0.00    +0.000 OA
ATOM     23  H   UNL     1       7.450   5.922  14.045  0.00  0.00    +0.000 HD
ENDBRANCH  21  22
ENDBRANCH  15  21
ENDBRANCH   3  13
BRANCH   1  25
ATOM     24  N   UNL     1       5.488   0.895  21.419  0.00  0.00    +0.000 NA
ATOM     25  C   UNL     1       5.046   1.753  20.775  0.00  0.00    +0.000 C 
ENDBRANCH   1  25
TORSDOF 5
ENDMDL
MODEL 5
REMARK VINA RESULT:      -5.9      3.223      5.790
REMARK  Name = 
REMARK  5 active torsions:
REMARK  status: ('A' for Active; 'I' for Inactive)
REMARK    1  A    between atoms: C_2  and  C_3
REMARK    2  A    between atoms: N_5  and  C_6
REMARK    3  A    between atoms: C_8  and  C_9
REMARK    4  A    between atoms: C_9  and  O_10
REMARK    5  A    between atoms: C_11  and  O_12
REMARK                            x       y       z     vdW  Elec       q    Type
REMARK                         _______ _______ _______ _____ _____    ______ ____
ROOT
ATOM      1  C   UNL     1       6.810   5.935  18.307  0.00  0.00    +0.000 A 
ATOM      2  C   UNL     1       6.110   5.541  19.425  0.00  0.00    +0.000 A 
ATOM      3  N   UNL     1       5.301   4.489  19.063  0.00  0.00    +0.000 N 
ATOM      4  C   UNL     1       5.536   4.165  17.748  0.00  0.00    +0.000 A 
ATOM      5  N   UNL     1       4.945   3.162  17.080  0.00  0.00    +0.000 NA
ATOM      6  C   UNL     1       5.325   3.138  15.791  0.00  0.00    +0.000 A 
ATOM      7  N   UNL     1       6.162   3.981  15.156  0.00  0.00    +0.000 NA
ATOM      8  C   UNL     1       6.726   4.983  15.860  0.00  0.00    +0.000 A 
ATOM      9  N   UNL     1       7.533   5.863  15.165  0.00  0.00    +0.000 N 
ATOM     10  C   UNL     1       6.439   5.085  17.230  0.00  0.00    +0.000 A 
ATOM     11  H   UNL     1       7.783   5.524  14.244  0.00  0.00    +0.000 HD
ATOM     12  H   UNL     1       8.225   6.398  15.666  0.00  0.00    +0.000 HD
ENDROOT
BRANCH   3  13
ATOM     13  C   UNL     1       4.234   3.906  19.856  0.00  0.00    +0.000 C 
ATOM     14  O   UNL     1       3.681   2.769  19.162  0.00  0.00    +0.000 OA
ATOM     15  C   UNL     1       2.314   2.591  19.579  0.00  0.00    +0.000 C 
ATOM     16  C   UNL     1       1.988   3.733  20.550  0.00  0.00    +0.000 C 
ATOM     17  C   UNL     1       3.073   4.783  20.317  0.00  0.00    +0.000 C 
ATOM     18  I   UNL     1       2.410   6.278  18.924  0.00  0.00    +0.000 I 
BRANCH  16  19
ATOM     19  O   UNL     1       2.073   3.266  21.907  0.00  0.00    +0.000 OA
ATOM     20  H   UNL     1       1.980   4.013  22.525  0.00  0.00    +0.000 HD
ENDBRANCH  16  19
BRANCH  15  21
ATOM     21  C   UNL     1       1.408   2.555  18.341  0.00  0.00    +0.000 C 
BRANCH  21  22
ATOM     22  O   UNL     1       2.075   3.063  17.185  0.00  0.00    +0.000 OA
ATOM     23  H   UNL     1       2.892   3.508  17.467  0.00  0.00    +0.000 HD
ENDBRANCH  21  22
ENDBRANCH  15  21
ENDBRANCH   3  13
BRANCH   1  25
ATOM     24  N   UNL     1       8.445   7.938  18.227  0.00  0.00    +0.000 NA
ATOM     25  C   UNL     1       7.729   7.026  18.253  0.00  0.00    +0.000 C 
ENDBRANCH   1  25
TORSDOF 5
ENDMDL
MODEL 6
REMARK VINA RESULT:      -5.6      3.400      6.287
REMARK  Name = 
REMARK  5 active torsions:
REMARK  status: ('A' for Active; 'I' for Inactive)
REMARK    1  A    between atoms: C_2  and  C_3
REMARK    2  A    between atoms: N_5  and  C_6
REMARK    3  A    between atoms: C_8  and  C_9
REMARK    4  A    between atoms: C_9  and  O_10
REMARK    5  A    between atoms: C_11  and  O_12
REMARK                            x       y       z     vdW  Elec       q    Type
REMARK                         _______ _______ _______ _____ _____    ______ ____
ROOT
ATOM      1  C   UNL     1       5.122   4.167  15.771  0.00  0.00    +0.000 A 
ATOM      2  C   UNL     1       3.777   3.995  16.012  0.00  0.00    +0.000 A 
ATOM      3  N   UNL     1       3.560   4.223  17.351  0.00  0.00    +0.000 N 
ATOM      4  C   UNL     1       4.738   4.610  17.944  0.00  0.00    +0.000 A 
ATOM      5  N   UNL     1       4.880   4.947  19.236  0.00  0.00    +0.000 NA
ATOM      6  C   UNL     1       6.163   5.210  19.537  0.00  0.00    +0.000 A 
ATOM      7  N   UNL     1       7.237   5.147  18.726  0.00  0.00    +0.000 NA
ATOM      8  C   UNL     1       7.052   4.794  17.437  0.00  0.00    +0.000 A 
ATOM      9  N   UNL     1       8.181   4.683  16.649  0.00  0.00    +0.000 N 
ATOM     10  C   UNL     1       5.747   4.536  16.993  0.00  0.00    +0.000 A 
ATOM     11  H   UNL     1       9.002   5.094  17.076  0.00  0.00    +0.000 HD
ATOM     12  H   UNL     1       8.093   4.758  15.647  0.00  0.00    +0.000 HD
ENDROOT
BRANCH   3  13
ATOM     13  C   UNL     1       2.343   3.941  18.090  0.00  0.00    +0.000 C 
ATOM     14  O   UNL     1       2.282   4.779  19.261  0.00  0.00    +0.000 OA
ATOM     15  C   UNL     1       1.490   4.117  20.265  0.00  0.00    +0.000 C 
ATOM     16  C   UNL     1       1.087   2.752  19.693  0.00  0.00    +0.000 C 
ATOM     17  C   UNL     1       2.040   2.508  18.524  0.00  0.00    +0.000 C 
ATOM     18  I   UNL     1       3.730   1.334  19.141  0.00  0.00    +0.000 I 
BRANCH  16  19
ATOM     19  O   UNL     1      -0.260   2.804  19.195  0.00  0.00    +0.000 OA
ATOM     20  H   UNL     1      -0.462   3.699  18.868  0.00  0.00    +0.000 HD
ENDBRANCH  16  19
BRANCH  15  21
ATOM     21  C   UNL     1       2.297   4.027  21.568  0.00  0.00    +0.000 C 
BRANCH  21  22
ATOM     22  O   UNL     1       2.024   2.816  22.274  0.00  0.00    +0.000 OA
ATOM     23  H   UNL     1       1.174   2.910  22.736  0.00  0.00    +0.000 HD
ENDBRANCH  21  22
ENDBRANCH  15  21
ENDBRANCH   3  13
BRANCH   1  25
ATOM     24  N   UNL     1       6.250   3.803  13.471  0.00  0.00    +0.000 NA
ATOM     25  C   UNL     1       5.762   3.981  14.509  0.00  0.00    +0.000 C 
ENDBRANCH   1  25
TORSDOF 5
ENDMDL
MODEL 7
REMARK VINA RESULT:      -5.6      3.417      5.965
REMARK  Name = 
REMARK  5 active torsions:
REMARK  status: ('A' for Active; 'I' for Inactive)
REMARK    1  A    between atoms: C_2  and  C_3
REMARK    2  A    between atoms: N_5  and  C_6
REMARK    3  A    between atoms: C_8  and  C_9
REMARK    4  A    between atoms: C_9  and  O_10
REMARK    5  A    between atoms: C_11  and  O_12
REMARK                            x       y       z     vdW  Elec       q    Type
REMARK                         _______ _______ _______ _____ _____    ______ ____
ROOT
ATOM      1  C   UNL     1       6.329   5.448  17.705  0.00  0.00    +0.000 A 
ATOM      2  C   UNL     1       5.257   4.978  18.431  0.00  0.00    +0.000 A 
ATOM      3  N   UNL     1       4.488   4.208  17.590  0.00  0.00    +0.000 N 
ATOM      4  C   UNL     1       5.100   4.124  16.362  0.00  0.00    +0.000 A 
ATOM      5  N   UNL     1       4.641   3.420  15.316  0.00  0.00    +0.000 NA
ATOM      6  C   UNL     1       5.417   3.588  14.232  0.00  0.00    +0.000 A 
ATOM      7  N   UNL     1       6.514   4.360  14.107  0.00  0.00    +0.000 NA
ATOM      8  C   UNL     1       6.936   5.060  15.180  0.00  0.00    +0.000 A 
ATOM      9  N   UNL     1       8.029   5.885  15.000  0.00  0.00    +0.000 N 
ATOM     10  C   UNL     1       6.230   4.931  16.385  0.00  0.00    +0.000 A 
ATOM     11  H   UNL     1       8.524   5.702  14.136  0.00  0.00    +0.000 HD
ATOM     12  H   UNL     1       8.580   6.156  15.801  0.00  0.00    +0.000 HD
ENDROOT
BRANCH   3  13
ATOM     13  C   UNL     1       3.156   3.699  17.861  0.00  0.00    +0.000 C 
ATOM     14  O   UNL     1       2.384   4.703  18.551  0.00  0.00    +0.000 OA
ATOM     15  C   UNL     1       1.375   4.050  19.342  0.00  0.00    +0.000 C 
ATOM     16  C   UNL     1       1.579   2.538  19.175  0.00  0.00    +0.000 C 
ATOM     17  C   UNL     1       2.993   2.382  18.618  0.00  0.00    +0.000 C 
ATOM     18  I   UNL     1       4.406   2.021  20.196  0.00  0.00    +0.000 I 
BRANCH  16  19
ATOM     19  O   UNL     1       0.640   2.017  18.220  0.00  0.00    +0.000 OA
ATOM     20  H   UNL     1      -0.237   2.419  18.357  0.00  0.00    +0.000 HD
ENDBRANCH  16  19
BRANCH  15  21
ATOM     21  C   UNL     1       1.482   4.530  20.795  0.00  0.00    +0.000 C 
BRANCH  21  22
ATOM     22  O   UNL     1       2.461   5.559  20.939  0.00  0.00    +0.000 OA
ATOM     23  H   UNL     1       2.115   6.236  21.544  0.00  0.00    +0.000 HD
ENDBRANCH  21  22
ENDBRANCH  15  21
ENDBRANCH   3  13
BRANCH   1  25
ATOM     24  N   UNL     1       8.151   7.061  18.585  0.00  0.00    +0.000 NA
ATOM     25  C   UNL     1       7.344   6.320  18.204  0.00  0.00    +0.000 C 
ENDBRANCH   1  25
TORSDOF 5
ENDMDL
MODEL 8
REMARK VINA RESULT:      -5.5      8.935     10.266
REMARK  Name = 
REMARK  5 active torsions:
REMARK  status: ('A' for Active; 'I' for Inactive)
REMARK    1  A    between atoms: C_2  and  C_3
REMARK    2  A    between atoms: N_5  and  C_6
REMARK    3  A    between atoms: C_8  and  C_9
REMARK    4  A    between atoms: C_9  and  O_10
REMARK    5  A    between atoms: C_11  and  O_12
REMARK                            x       y       z     vdW  Elec       q    Type
REMARK                         _______ _______ _______ _____ _____    ______ ____
ROOT
ATOM      1  C   UNL     1      -2.834  11.429  17.253  0.00  0.00    +0.000 A 
ATOM      2  C   UNL     1      -1.583  11.742  17.735  0.00  0.00    +0.000 A 
ATOM      3  N   UNL     1      -1.741  12.269  18.996  0.00  0.00    +0.000 N 
ATOM      4  C   UNL     1      -3.069  12.224  19.345  0.00  0.00    +0.000 A 
ATOM      5  N   UNL     1      -3.573  12.624  20.524  0.00  0.00    +0.000 NA
ATOM      6  C   UNL     1      -4.913  12.525  20.545  0.00  0.00    +0.000 A 
ATOM      7  N   UNL     1      -5.731  12.114  19.556  0.00  0.00    +0.000 NA
ATOM      8  C   UNL     1      -5.186  11.732  18.384  0.00  0.00    +0.000 A 
ATOM      9  N   UNL     1      -6.056  11.372  17.374  0.00  0.00    +0.000 N 
ATOM     10  C   UNL     1      -3.788  11.750  18.256  0.00  0.00    +0.000 A 
ATOM     11  H   UNL     1      -7.003  11.228  17.702  0.00  0.00    +0.000 HD
ATOM     12  H   UNL     1      -5.729  10.777  16.628  0.00  0.00    +0.000 HD
ENDROOT
BRANCH   3  13
ATOM     13  C   UNL     1      -0.723  12.937  19.787  0.00  0.00    +0.000 C 
ATOM     14  O   UNL     1       0.232  13.570  18.912  0.00  0.00    +0.000 OA
ATOM     15  C   UNL     1       1.495  13.668  19.597  0.00  0.00    +0.000 C 
ATOM     16  C   UNL     1       1.318  12.996  20.965  0.00  0.00    +0.000 C 
ATOM     17  C   UNL     1       0.055  12.146  20.836  0.00  0.00    +0.000 C 
ATOM     18  I   UNL     1       0.541  10.119  20.317  0.00  0.00    +0.000 I 
BRANCH  16  19
ATOM     19  O   UNL     1       1.111  13.990  21.981  0.00  0.00    +0.000 OA
ATOM     20  H   UNL     1       1.431  14.857  21.672  0.00  0.00    +0.000 HD
ENDBRANCH  16  19
BRANCH  15  21
ATOM     21  C   UNL     1       2.591  13.032  18.733  0.00  0.00    +0.000 C 
BRANCH  21  22
ATOM     22  O   UNL     1       2.106  12.694  17.432  0.00  0.00    +0.000 OA
ATOM     23  H   UNL     1       2.748  12.102  17.005  0.00  0.00    +0.000 HD
ENDBRANCH  21  22
ENDBRANCH  15  21
ENDBRANCH   3  13
BRANCH   1  25
ATOM     24  N   UNL     1      -3.329  10.419  14.923  0.00  0.00    +0.000 NA
ATOM     25  C   UNL     1      -3.108  10.894  15.958  0.00  0.00    +0.000 C 
ENDBRANCH   1  25
TORSDOF 5
ENDMDL
MODEL 9
REMARK VINA RESULT:      -5.4      1.233      1.266
REMARK  Name = 
REMARK  5 active torsions:
REMARK  status: ('A' for Active; 'I' for Inactive)
REMARK    1  A    between atoms: C_2  and  C_3
REMARK    2  A    between atoms: N_5  and  C_6
REMARK    3  A    between atoms: C_8  and  C_9
REMARK    4  A    between atoms: C_9  and  O_10
REMARK    5  A    between atoms: C_11  and  O_12
REMARK                            x       y       z     vdW  Elec       q    Type
REMARK                         _______ _______ _______ _____ _____    ______ ____
ROOT
ATOM      1  C   UNL     1       2.483   5.362  19.623  0.00  0.00    +0.000 A 
ATOM      2  C   UNL     1       3.661   5.731  19.013  0.00  0.00    +0.000 A 
ATOM      3  N   UNL     1       4.111   4.652  18.288  0.00  0.00    +0.000 N 
ATOM      4  C   UNL     1       3.194   3.631  18.372  0.00  0.00    +0.000 A 
ATOM      5  N   UNL     1       3.299   2.444  17.755  0.00  0.00    +0.000 NA
ATOM      6  C   UNL     1       2.285   1.627  18.086  0.00  0.00    +0.000 A 
ATOM      7  N   UNL     1       1.267   1.867  18.935  0.00  0.00    +0.000 NA
ATOM      8  C   UNL     1       1.205   3.069  19.544  0.00  0.00    +0.000 A 
ATOM      9  N   UNL     1       0.181   3.261  20.451  0.00  0.00    +0.000 N 
ATOM     10  C   UNL     1       2.187   4.025  19.243  0.00  0.00    +0.000 A 
ATOM     11  H   UNL     1      -0.537   2.549  20.392  0.00  0.00    +0.000 HD
ATOM     12  H   UNL     1      -0.114   4.200  20.671  0.00  0.00    +0.000 HD
ENDROOT
BRANCH   3  13
ATOM     13  C   UNL     1       5.416   4.510  17.668  0.00  0.00    +0.000 C 
ATOM     14  O   UNL     1       6.427   4.395  18.689  0.00  0.00    +0.000 OA
ATOM     15  C   UNL     1       7.678   4.874  18.161  0.00  0.00    +0.000 C 
ATOM     16  C   UNL     1       7.403   5.374  16.736  0.00  0.00    +0.000 C 
ATOM     17  C   UNL     1       5.887   5.555  16.659  0.00  0.00    +0.000 C 
ATOM     18  I   UNL     1       5.334   7.588  17.079  0.00  0.00    +0.000 I 
BRANCH  16  19
ATOM     19  O   UNL     1       7.804   4.380  15.779  0.00  0.00    +0.000 OA
ATOM     20  H   UNL     1       7.279   4.469  14.963  0.00  0.00    +0.000 HD
ENDBRANCH  16  19
BRANCH  15  21
ATOM     21  C   UNL     1       8.243   5.952  19.095  0.00  0.00    +0.000 C 
BRANCH  21  22
ATOM     22  O   UNL     1       8.090   5.592  20.468  0.00  0.00    +0.000 OA
ATOM     23  H   UNL     1       7.201   5.854  20.761  0.00  0.00    +0.000 HD
ENDBRANCH  21  22
ENDBRANCH  15  21
ENDBRANCH   3  13
BRANCH   1  25
ATOM     24  N   UNL     1       1.116   6.893  21.197  0.00  0.00    +0.000 NA
ATOM     25  C   UNL     1       1.717   6.187  20.501  0.00  0.00    +0.000 C 
ENDBRANCH   1  25
TORSDOF 5
ENDMDL
