MODEL 1
REMARK VINA RESULT:      -7.9      0.000      0.000
REMARK  Name = 
REMARK  13 active torsions:
REMARK  status: ('A' for Active; 'I' for Inactive)
REMARK    1  A    between atoms: C_2  and  C_3
REMARK    2  A    between atoms: C_3  and  C_4
REMARK    3  A    between atoms: C_6  and  C_7
REMARK    4  A    between atoms: C_7  and  C_8
REMARK    5  A    between atoms: C_8  and  C_9
REMARK    6  A    between atoms: N_17  and  C_18
REMARK    7  A    between atoms: C_18  and  CA_19
REMARK    8  A    between atoms: CA_19  and  N_20
REMARK    9  A    between atoms: CA_19  and  C_31
REMARK   10  A    between atoms: C_21  and  O_23
REMARK   11  A    between atoms: O_23  and  C_24
REMARK   12  A    between atoms: C_24  and  C_25
REMARK   13  A    between atoms: C_31  and  OXT_33
REMARK                            x       y       z     vdW  Elec       q    Type
REMARK                         _______ _______ _______ _____ _____    ______ ____
ROOT
ATOM      1  O   UNL     1       5.444   4.579  15.692  0.00  0.00    +0.000 OA
ATOM      2  C   UNL     1       6.068   4.595  16.723  0.00  0.00    +0.000 C 
ATOM      3  N   UNL     1       5.659   3.853  17.814  0.00  0.00    +0.000 N 
ATOM      4  H   UNL     1       5.926   4.295  18.685  0.00  0.00    +0.000 HD
ENDROOT
BRANCH   2   5
ATOM      5  C   UNL     1       7.317   5.407  16.944  0.00  0.00    +0.000 C 
BRANCH   5   6
ATOM      6  C   UNL     1       7.005   6.648  17.763  0.00  0.00    +0.000 C 
ATOM      7  C   UNL     1       8.199   7.093  18.575  0.00  0.00    +0.000 C 
ATOM      8  C   UNL     1       8.164   8.538  18.223  0.00  0.00    +0.000 C 
ATOM      9  N   UNL     1       7.372   8.873  17.281  0.00  0.00    +0.000 NA
ATOM     10  O   UNL     1       6.707   7.711  16.852  0.00  0.00    +0.000 OA
BRANCH   8  11
ATOM     11  C   UNL     1       9.101   9.509  18.866  0.00  0.00    +0.000 C 
BRANCH  11  12
ATOM     12  C   UNL     1       9.311  10.803  18.077  0.00  0.00    +0.000 C 
BRANCH  12  13
ATOM     13  C   UNL     1      10.730  11.395  18.232  0.00  0.00    +0.000 C 
ATOM     14  C   UNL     1      11.140  11.707  19.681  0.00  0.00    +0.000 C 
ATOM     15  C   UNL     1      10.563  13.015  20.237  0.00  0.00    +0.000 C 
ATOM     16  N   UNL     1      10.742  14.157  19.340  0.00  0.00    +0.000 NA
ATOM     17  C   UNL     1      10.276  13.894  17.975  0.00  0.00    +0.000 C 
ATOM     18  C   UNL     1      10.932  12.654  17.372  0.00  0.00    +0.000 C 
ATOM     19  H   UNL     1      11.730  14.398  19.307  0.00  0.00    +0.000 HD
ENDBRANCH  12  13
ENDBRANCH  11  12
ENDBRANCH   8  11
ENDBRANCH   5   6
ENDBRANCH   2   5
BRANCH   3  20
ATOM     20  C   UNL     1       4.472   3.001  17.805  0.00  0.00    +0.000 C 
BRANCH  20  21
ATOM     21  CA  UNL     1       3.418   3.313  18.898  0.00  0.00    +0.000 C 
BRANCH  21  22
ATOM     22  N   UNL     1       3.338   4.773  19.098  0.00  0.00    +0.000 N 
ATOM     23  C   UNL     1       2.550   5.594  18.350  0.00  0.00    +0.000 C 
ATOM     24  O   UNL     1       1.641   5.200  17.630  0.00  0.00    +0.000 OA
ATOM     25  H   UNL     1       4.069   5.253  19.605  0.00  0.00    +0.000 HD
BRANCH  23  26
ATOM     26  O   UNL     1       3.008   6.869  18.440  0.00  0.00    +0.000 OA
BRANCH  26  27
ATOM     27  C   UNL     1       2.038   7.851  18.049  0.00  0.00    +0.000 C 
BRANCH  27  28
ATOM     28  C   UNL     1       1.523   8.646  19.217  0.00  0.00    +0.000 A 
ATOM     29  C   UNL     1       1.668   8.185  20.531  0.00  0.00    +0.000 A 
ATOM     30  C   UNL     1       1.143   8.920  21.597  0.00  0.00    +0.000 A 
ATOM     31  C   UNL     1       0.481  10.123  21.359  0.00  0.00    +0.000 A 
ATOM     32  C   UNL     1       0.340  10.593  20.055  0.00  0.00    +0.000 A 
ATOM     33  C   UNL     1       0.860   9.859  18.990  0.00  0.00    +0.000 A 
ENDBRANCH  27  28
ENDBRANCH  26  27
ENDBRANCH  23  26
ENDBRANCH  21  22
BRANCH  21  34
ATOM     34  C   UNL     1       3.856   2.487  20.116  0.00  0.00    +0.000 C 
ATOM     35  O   UNL     1       4.953   1.933  20.224  0.00  0.00    +0.000 OA
BRANCH  34  36
ATOM     36  OXT UNL     1       2.905   2.357  21.070  0.00  0.00    +0.000 OA
ATOM     37  HXT UNL     1       3.185   2.628  21.968  0.00  0.00    +0.000 HD
ENDBRANCH  34  36
ENDBRANCH  21  34
ENDBRANCH  20  21
ENDBRANCH   3  20
TORSDOF 13
ENDMDL
MODEL 2
REMARK VINA RESULT:      -7.6      4.317      8.550
REMARK  Name = 
REMARK  13 active torsions:
REMARK  status: ('A' for Active; 'I' for Inactive)
REMARK    1  A    between atoms: C_2  and  C_3
REMARK    2  A    between atoms: C_3  and  C_4
REMARK    3  A    between atoms: C_6  and  C_7
REMARK    4  A    between atoms: C_7  and  C_8
REMARK    5  A    between atoms: C_8  and  C_9
REMARK    6  A    between atoms: N_17  and  C_18
REMARK    7  A    between atoms: C_18  and  CA_19
REMARK    8  A    between atoms: CA_19  and  N_20
REMARK    9  A    between atoms: CA_19  and  C_31
REMARK   10  A    between atoms: C_21  and  O_23
REMARK   11  A    between atoms: O_23  and  C_24
REMARK   12  A    between atoms: C_24  and  C_25
REMARK   13  A    between atoms: C_31  and  OXT_33
REMARK                            x       y       z     vdW  Elec       q    Type
REMARK                         _______ _______ _______ _____ _____    ______ ____
ROOT
ATOM      1  O   UNL     1       3.026   8.694  17.040  0.00  0.00    +0.000 OA
ATOM      2  C   UNL     1       2.996   7.780  17.825  0.00  0.00    +0.000 C 
ATOM      3  N   UNL     1       4.026   6.861  17.888  0.00  0.00    +0.000 N 
ATOM      4  H   UNL     1       3.694   5.950  18.179  0.00  0.00    +0.000 HD
ENDROOT
BRANCH   2   5
ATOM      5  C   UNL     1       1.865   7.529  18.787  0.00  0.00    +0.000 C 
BRANCH   5   6
ATOM      6  C   UNL     1       1.618   8.758  19.647  0.00  0.00    +0.000 C 
ATOM      7  C   UNL     1       0.822   9.805  18.903  0.00  0.00    +0.000 C 
ATOM      8  C   UNL     1      -0.180  10.097  19.962  0.00  0.00    +0.000 C 
ATOM      9  N   UNL     1      -0.194   9.305  20.963  0.00  0.00    +0.000 NA
ATOM     10  O   UNL     1       0.824   8.357  20.768  0.00  0.00    +0.000 OA
BRANCH   8  11
ATOM     11  C   UNL     1      -1.188  11.187  19.788  0.00  0.00    +0.000 C 
BRANCH  11  12
ATOM     12  C   UNL     1      -1.696  11.358  18.355  0.00  0.00    +0.000 C 
BRANCH  12  13
ATOM     13  C   UNL     1      -2.586  10.190  17.873  0.00  0.00    +0.000 C 
ATOM     14  C   UNL     1      -2.281   9.696  16.449  0.00  0.00    +0.000 C 
ATOM     15  C   UNL     1      -2.868  10.569  15.333  0.00  0.00    +0.000 C 
ATOM     16  N   UNL     1      -4.282  10.889  15.529  0.00  0.00    +0.000 NA
ATOM     17  C   UNL     1      -4.568  11.440  16.857  0.00  0.00    +0.000 C 
ATOM     18  C   UNL     1      -4.085  10.521  17.977  0.00  0.00    +0.000 C 
ATOM     19  H   UNL     1      -4.832  10.042  15.402  0.00  0.00    +0.000 HD
ENDBRANCH  12  13
ENDBRANCH  11  12
ENDBRANCH   8  11
ENDBRANCH   5   6
ENDBRANCH   2   5
BRANCH   3  20
ATOM     20  C   UNL     1       5.213   6.927  17.039  0.00  0.00    +0.000 C 
BRANCH  20  21
ATOM     21  CA  UNL     1       5.381   5.757  16.036  0.00  0.00    +0.000 C 
BRANCH  21  22
ATOM     22  N   UNL     1       4.546   4.619  16.467  0.00  0.00    +0.000 N 
ATOM     23  C   UNL     1       4.854   3.814  17.520  0.00  0.00    +0.000 C 
ATOM     24  O   UNL     1       5.687   4.094  18.374  0.00  0.00    +0.000 OA
ATOM     25  H   UNL     1       3.867   4.224  15.830  0.00  0.00    +0.000 HD
BRANCH  23  26
ATOM     26  O   UNL     1       4.193   2.634  17.399  0.00  0.00    +0.000 OA
BRANCH  26  27
ATOM     27  C   UNL     1       2.769   2.765  17.520  0.00  0.00    +0.000 C 
BRANCH  27  28
ATOM     28  C   UNL     1       2.336   3.023  18.936  0.00  0.00    +0.000 A 
ATOM     29  C   UNL     1       1.346   3.968  19.234  0.00  0.00    +0.000 A 
ATOM     30  C   UNL     1       0.991   4.222  20.561  0.00  0.00    +0.000 A 
ATOM     31  C   UNL     1       1.613   3.528  21.597  0.00  0.00    +0.000 A 
ATOM     32  C   UNL     1       2.592   2.579  21.309  0.00  0.00    +0.000 A 
ATOM     33  C   UNL     1       2.950   2.328  19.986  0.00  0.00    +0.000 A 
ENDBRANCH  27  28
ENDBRANCH  26  27
ENDBRANCH  23  26
ENDBRANCH  21  22
BRANCH  21  34
ATOM     34  C   UNL     1       6.894   5.503  15.977  0.00  0.00    +0.000 C 
ATOM     35  O   UNL     1       7.455   4.843  15.098  0.00  0.00    +0.000 OA
BRANCH  34  36
ATOM     36  OXT UNL     1       7.586   6.021  17.017  0.00  0.00    +0.000 OA
ATOM     37  HXT UNL     1       7.358   6.946  17.242  0.00  0.00    +0.000 HD
ENDBRANCH  34  36
ENDBRANCH  21  34
ENDBRANCH  20  21
ENDBRANCH   3  20
TORSDOF 13
ENDMDL
MODEL 3
REMARK VINA RESULT:      -7.6      4.573      8.419
REMARK  Name = 
REMARK  13 active torsions:
REMARK  status: ('A' for Active; 'I' for Inactive)
REMARK    1  A    between atoms: C_2  and  C_3
REMARK    2  A    between atoms: C_3  and  C_4
REMARK    3  A    between atoms: C_6  and  C_7
REMARK    4  A    between atoms: C_7  and  C_8
REMARK    5  A    between atoms: C_8  and  C_9
REMARK    6  A    between atoms: N_17  and  C_18
REMARK    7  A    between atoms: C_18  and  CA_19
REMARK    8  A    between atoms: CA_19  and  N_20
REMARK    9  A    between atoms: CA_19  and  C_31
REMARK   10  A    between atoms: C_21  and  O_23
REMARK   11  A    between atoms: O_23  and  C_24
REMARK   12  A    between atoms: C_24  and  C_25
REMARK   13  A    between atoms: C_31  and  OXT_33
REMARK                            x       y       z     vdW  Elec       q    Type
REMARK                         _______ _______ _______ _____ _____    ______ ____
ROOT
ATOM      1  O   UNL     1       1.908   5.554  17.888  0.00  0.00    +0.000 OA
ATOM      2  C   UNL     1       2.831   6.221  18.284  0.00  0.00    +0.000 C 
ATOM      3  N   UNL     1       3.677   5.752  19.270  0.00  0.00    +0.000 N 
ATOM      4  H   UNL     1       4.051   6.508  19.830  0.00  0.00    +0.000 HD
ENDROOT
BRANCH   2   5
ATOM      5  C   UNL     1       3.154   7.603  17.780  0.00  0.00    +0.000 C 
BRANCH   5   6
ATOM      6  C   UNL     1       1.922   8.491  17.844  0.00  0.00    +0.000 C 
ATOM      7  C   UNL     1       1.437   8.668  19.264  0.00  0.00    +0.000 C 
ATOM      8  C   UNL     1       1.271  10.146  19.245  0.00  0.00    +0.000 C 
ATOM      9  N   UNL     1       1.748  10.758  18.232  0.00  0.00    +0.000 NA
ATOM     10  O   UNL     1       2.293   9.790  17.371  0.00  0.00    +0.000 OA
BRANCH   8  11
ATOM     11  C   UNL     1       0.684  10.869  20.414  0.00  0.00    +0.000 C 
BRANCH  11  12
ATOM     12  C   UNL     1      -0.836  11.040  20.356  0.00  0.00    +0.000 C 
BRANCH  12  13
ATOM     13  C   UNL     1      -1.284  12.300  19.582  0.00  0.00    +0.000 C 
ATOM     14  C   UNL     1      -2.361  13.139  20.291  0.00  0.00    +0.000 C 
ATOM     15  C   UNL     1      -3.785  12.585  20.163  0.00  0.00    +0.000 C 
ATOM     16  N   UNL     1      -4.152  12.239  18.789  0.00  0.00    +0.000 NA
ATOM     17  C   UNL     1      -3.170  11.370  18.134  0.00  0.00    +0.000 C 
ATOM     18  C   UNL     1      -1.765  11.968  18.160  0.00  0.00    +0.000 C 
ATOM     19  H   UNL     1      -4.244  13.095  18.247  0.00  0.00    +0.000 HD
ENDBRANCH  12  13
ENDBRANCH  11  12
ENDBRANCH   8  11
ENDBRANCH   5   6
ENDBRANCH   2   5
BRANCH   3  20
ATOM     20  C   UNL     1       3.533   4.436  19.891  0.00  0.00    +0.000 C 
BRANCH  20  21
ATOM     21  CA  UNL     1       4.395   3.308  19.271  0.00  0.00    +0.000 C 
BRANCH  21  22
ATOM     22  N   UNL     1       5.005   3.791  18.017  0.00  0.00    +0.000 N 
ATOM     23  C   UNL     1       6.142   4.539  17.970  0.00  0.00    +0.000 C 
ATOM     24  O   UNL     1       6.916   4.665  18.911  0.00  0.00    +0.000 OA
ATOM     25  H   UNL     1       4.455   3.825  17.169  0.00  0.00    +0.000 HD
BRANCH  23  26
ATOM     26  O   UNL     1       6.203   5.199  16.785  0.00  0.00    +0.000 OA
BRANCH  26  27
ATOM     27  C   UNL     1       5.310   4.671  15.794  0.00  0.00    +0.000 C 
BRANCH  27  28
ATOM     28  C   UNL     1       5.985   4.459  14.467  0.00  0.00    +0.000 A 
ATOM     29  C   UNL     1       7.157   5.148  14.129  0.00  0.00    +0.000 A 
ATOM     30  C   UNL     1       7.742   4.967  12.873  0.00  0.00    +0.000 A 
ATOM     31  C   UNL     1       7.168   4.091  11.953  0.00  0.00    +0.000 A 
ATOM     32  C   UNL     1       6.008   3.395  12.285  0.00  0.00    +0.000 A 
ATOM     33  C   UNL     1       5.421   3.577  13.536  0.00  0.00    +0.000 A 
ENDBRANCH  27  28
ENDBRANCH  26  27
ENDBRANCH  23  26
ENDBRANCH  21  22
BRANCH  21  34
ATOM     34  C   UNL     1       3.444   2.109  19.143  0.00  0.00    +0.000 C 
ATOM     35  O   UNL     1       3.641   1.140  18.407  0.00  0.00    +0.000 OA
BRANCH  34  36
ATOM     36  OXT UNL     1       2.311   2.218  19.874  0.00  0.00    +0.000 OA
ATOM     37  HXT UNL     1       1.984   1.377  20.252  0.00  0.00    +0.000 HD
ENDBRANCH  34  36
ENDBRANCH  21  34
ENDBRANCH  20  21
ENDBRANCH   3  20
TORSDOF 13
ENDMDL
MODEL 4
REMARK VINA RESULT:      -7.6      4.613      8.796
REMARK  Name = 
REMARK  13 active torsions:
REMARK  status: ('A' for Active; 'I' for Inactive)
REMARK    1  A    between atoms: C_2  and  C_3
REMARK    2  A    between atoms: C_3  and  C_4
REMARK    3  A    between atoms: C_6  and  C_7
REMARK    4  A    between atoms: C_7  and  C_8
REMARK    5  A    between atoms: C_8  and  C_9
REMARK    6  A    between atoms: N_17  and  C_18
REMARK    7  A    between atoms: C_18  and  CA_19
REMARK    8  A    between atoms: CA_19  and  N_20
REMARK    9  A    between atoms: CA_19  and  C_31
REMARK   10  A    between atoms: C_21  and  O_23
REMARK   11  A    between atoms: O_23  and  C_24
REMARK   12  A    between atoms: C_24  and  C_25
REMARK   13  A    between atoms: C_31  and  OXT_33
REMARK                            x       y       z     vdW  Elec       q    Type
REMARK                         _______ _______ _______ _____ _____    ______ ____
ROOT
ATOM      1  O   UNL     1       1.451   5.293  18.052  0.00  0.00    +0.000 OA
ATOM      2  C   UNL     1       2.247   6.154  18.335  0.00  0.00    +0.000 C 
ATOM      3  N   UNL     1       3.172   5.964  19.343  0.00  0.00    +0.000 N 
ATOM      4  H   UNL     1       3.414   6.837  19.794  0.00  0.00    +0.000 HD
ENDROOT
BRANCH   2   5
ATOM      5  C   UNL     1       2.316   7.497  17.658  0.00  0.00    +0.000 C 
BRANCH   5   6
ATOM      6  C   UNL     1       2.250   8.613  18.687  0.00  0.00    +0.000 C 
ATOM      7  C   UNL     1       1.534   9.829  18.143  0.00  0.00    +0.000 C 
ATOM      8  C   UNL     1       0.627  10.070  19.296  0.00  0.00    +0.000 C 
ATOM      9  N   UNL     1       0.579   9.153  20.182  0.00  0.00    +0.000 NA
ATOM     10  O   UNL     1       1.477   8.143  19.796  0.00  0.00    +0.000 OA
BRANCH   8  11
ATOM     11  C   UNL     1      -0.264  11.269  19.335  0.00  0.00    +0.000 C 
BRANCH  11  12
ATOM     12  C   UNL     1      -1.154  11.439  18.102  0.00  0.00    +0.000 C 
BRANCH  12  13
ATOM     13  C   UNL     1      -2.134  10.265  17.883  0.00  0.00    +0.000 C 
ATOM     14  C   UNL     1      -2.060   9.619  16.489  0.00  0.00    +0.000 C 
ATOM     15  C   UNL     1      -2.789  10.398  15.387  0.00  0.00    +0.000 C 
ATOM     16  N   UNL     1      -4.149  10.791  15.757  0.00  0.00    +0.000 NA
ATOM     17  C   UNL     1      -4.217  11.482  17.047  0.00  0.00    +0.000 C 
ATOM     18  C   UNL     1      -3.591  10.662  18.173  0.00  0.00    +0.000 C 
ATOM     19  H   UNL     1      -4.732   9.957  15.801  0.00  0.00    +0.000 HD
ENDBRANCH  12  13
ENDBRANCH  11  12
ENDBRANCH   8  11
ENDBRANCH   5   6
ENDBRANCH   2   5
BRANCH   3  20
ATOM     20  C   UNL     1       3.268   4.731  20.122  0.00  0.00    +0.000 C 
BRANCH  20  21
ATOM     21  CA  UNL     1       3.892   3.521  19.382  0.00  0.00    +0.000 C 
BRANCH  21  22
ATOM     22  N   UNL     1       4.411   3.962  18.073  0.00  0.00    +0.000 N 
ATOM     23  C   UNL     1       5.663   4.465  17.888  0.00  0.00    +0.000 C 
ATOM     24  O   UNL     1       6.568   4.361  18.706  0.00  0.00    +0.000 OA
ATOM     25  H   UNL     1       3.768   4.169  17.320  0.00  0.00    +0.000 HD
BRANCH  23  26
ATOM     26  O   UNL     1       5.698   5.185  16.737  0.00  0.00    +0.000 OA
BRANCH  26  27
ATOM     27  C   UNL     1       6.971   5.137  16.076  0.00  0.00    +0.000 C 
BRANCH  27  28
ATOM     28  C   UNL     1       6.849   4.757  14.626  0.00  0.00    +0.000 A 
ATOM     29  C   UNL     1       5.849   3.882  14.184  0.00  0.00    +0.000 A 
ATOM     30  C   UNL     1       5.783   3.510  12.839  0.00  0.00    +0.000 A 
ATOM     31  C   UNL     1       6.708   4.015  11.926  0.00  0.00    +0.000 A 
ATOM     32  C   UNL     1       7.700   4.893  12.356  0.00  0.00    +0.000 A 
ATOM     33  C   UNL     1       7.770   5.263  13.698  0.00  0.00    +0.000 A 
ENDBRANCH  27  28
ENDBRANCH  26  27
ENDBRANCH  23  26
ENDBRANCH  21  22
BRANCH  21  34
ATOM     34  C   UNL     1       2.779   2.463  19.347  0.00  0.00    +0.000 C 
ATOM     35  O   UNL     1       1.893   2.357  20.198  0.00  0.00    +0.000 OA
BRANCH  34  36
ATOM     36  OXT UNL     1       2.872   1.592  18.316  0.00  0.00    +0.000 OA
ATOM     37  HXT UNL     1       3.749   1.169  18.214  0.00  0.00    +0.000 HD
ENDBRANCH  34  36
ENDBRANCH  21  34
ENDBRANCH  20  21
ENDBRANCH   3  20
TORSDOF 13
ENDMDL
MODEL 5
REMARK VINA RESULT:      -7.5      4.451      8.874
REMARK  Name = 
REMARK  13 active torsions:
REMARK  status: ('A' for Active; 'I' for Inactive)
REMARK    1  A    between atoms: C_2  and  C_3
REMARK    2  A    between atoms: C_3  and  C_4
REMARK    3  A    between atoms: C_6  and  C_7
REMARK    4  A    between atoms: C_7  and  C_8
REMARK    5  A    between atoms: C_8  and  C_9
REMARK    6  A    between atoms: N_17  and  C_18
REMARK    7  A    between atoms: C_18  and  CA_19
REMARK    8  A    between atoms: CA_19  and  N_20
REMARK    9  A    between atoms: CA_19  and  C_31
REMARK   10  A    between atoms: C_21  and  O_23
REMARK   11  A    between atoms: O_23  and  C_24
REMARK   12  A    between atoms: C_24  and  C_25
REMARK   13  A    between atoms: C_31  and  OXT_33
REMARK                            x       y       z     vdW  Elec       q    Type
REMARK                         _______ _______ _______ _____ _____    ______ ____
ROOT
ATOM      1  O   UNL     1       2.248   7.558  18.571  0.00  0.00    +0.000 OA
ATOM      2  C   UNL     1       2.326   6.993  19.633  0.00  0.00    +0.000 C 
ATOM      3  N   UNL     1       3.269   6.007  19.846  0.00  0.00    +0.000 N 
ATOM      4  H   UNL     1       2.943   5.319  20.513  0.00  0.00    +0.000 HD
ENDROOT
BRANCH   2   5
ATOM      5  C   UNL     1       1.427   7.273  20.808  0.00  0.00    +0.000 C 
BRANCH   5   6
ATOM      6  C   UNL     1       1.416   8.759  21.125  0.00  0.00    +0.000 C 
ATOM      7  C   UNL     1       0.077   9.385  20.812  0.00  0.00    +0.000 C 
ATOM      8  C   UNL     1      -0.106  10.133  22.084  0.00  0.00    +0.000 C 
ATOM      9  N   UNL     1       0.716   9.865  23.023  0.00  0.00    +0.000 NA
ATOM     10  O   UNL     1       1.622   8.910  22.533  0.00  0.00    +0.000 OA
BRANCH   8  11
ATOM     11  C   UNL     1      -1.269  11.052  22.276  0.00  0.00    +0.000 C 
BRANCH  11  12
ATOM     12  C   UNL     1      -0.916  12.398  22.911  0.00  0.00    +0.000 C 
BRANCH  12  13
ATOM     13  C   UNL     1      -2.052  13.440  22.819  0.00  0.00    +0.000 C 
ATOM     14  C   UNL     1      -2.465  13.814  21.385  0.00  0.00    +0.000 C 
ATOM     15  C   UNL     1      -1.530  14.813  20.694  0.00  0.00    +0.000 C 
ATOM     16  N   UNL     1      -1.219  15.983  21.516  0.00  0.00    +0.000 NA
ATOM     17  C   UNL     1      -0.745  15.633  22.857  0.00  0.00    +0.000 C 
ATOM     18  C   UNL     1      -1.727  14.727  23.597  0.00  0.00    +0.000 C 
ATOM     19  H   UNL     1      -2.057  16.555  21.604  0.00  0.00    +0.000 HD
ENDBRANCH  12  13
ENDBRANCH  11  12
ENDBRANCH   8  11
ENDBRANCH   5   6
ENDBRANCH   2   5
BRANCH   3  20
ATOM     20  C   UNL     1       4.234   5.587  18.833  0.00  0.00    +0.000 C 
BRANCH  20  21
ATOM     21  CA  UNL     1       5.072   4.332  19.189  0.00  0.00    +0.000 C 
BRANCH  21  22
ATOM     22  N   UNL     1       6.075   4.097  18.133  0.00  0.00    +0.000 N 
ATOM     23  C   UNL     1       7.292   4.708  18.099  0.00  0.00    +0.000 C 
ATOM     24  O   UNL     1       7.789   5.295  19.052  0.00  0.00    +0.000 OA
ATOM     25  H   UNL     1       5.792   3.693  17.250  0.00  0.00    +0.000 HD
BRANCH  23  26
ATOM     26  O   UNL     1       7.788   4.663  16.836  0.00  0.00    +0.000 OA
BRANCH  26  27
ATOM     27  C   UNL     1       7.087   5.516  15.919  0.00  0.00    +0.000 C 
BRANCH  27  28
ATOM     28  C   UNL     1       6.907   4.881  14.568  0.00  0.00    +0.000 A 
ATOM     29  C   UNL     1       7.714   5.242  13.482  0.00  0.00    +0.000 A 
ATOM     30  C   UNL     1       7.500   4.671  12.225  0.00  0.00    +0.000 A 
ATOM     31  C   UNL     1       6.488   3.729  12.048  0.00  0.00    +0.000 A 
ATOM     32  C   UNL     1       5.686   3.358  13.125  0.00  0.00    +0.000 A 
ATOM     33  C   UNL     1       5.896   3.930  14.379  0.00  0.00    +0.000 A 
ENDBRANCH  27  28
ENDBRANCH  26  27
ENDBRANCH  23  26
ENDBRANCH  21  22
BRANCH  21  34
ATOM     34  C   UNL     1       4.039   3.216  19.402  0.00  0.00    +0.000 C 
ATOM     35  O   UNL     1       3.313   3.119  20.393  0.00  0.00    +0.000 OA
BRANCH  34  36
ATOM     36  OXT UNL     1       4.018   2.284  18.421  0.00  0.00    +0.000 OA
ATOM     37  HXT UNL     1       4.851   1.781  18.315  0.00  0.00    +0.000 HD
ENDBRANCH  34  36
ENDBRANCH  21  34
ENDBRANCH  20  21
ENDBRANCH   3  20
TORSDOF 13
ENDMDL
MODEL 6
REMARK VINA RESULT:      -7.5      3.888      8.192
REMARK  Name = 
REMARK  13 active torsions:
REMARK  status: ('A' for Active; 'I' for Inactive)
REMARK    1  A    between atoms: C_2  and  C_3
REMARK    2  A    between atoms: C_3  and  C_4
REMARK    3  A    between atoms: C_6  and  C_7
REMARK    4  A    between atoms: C_7  and  C_8
REMARK    5  A    between atoms: C_8  and  C_9
REMARK    6  A    between atoms: N_17  and  C_18
REMARK    7  A    between atoms: C_18  and  CA_19
REMARK    8  A    between atoms: CA_19  and  N_20
REMARK    9  A    between atoms: CA_19  and  C_31
REMARK   10  A    between atoms: C_21  and  O_23
REMARK   11  A    between atoms: O_23  and  C_24
REMARK   12  A    between atoms: C_24  and  C_25
REMARK   13  A    between atoms: C_31  and  OXT_33
REMARK                            x       y       z     vdW  Elec       q    Type
REMARK                         _______ _______ _______ _____ _____    ______ ____
ROOT
ATOM      1  O   UNL     1       3.770   2.615  17.850  0.00  0.00    +0.000 OA
ATOM      2  C   UNL     1       3.695   3.316  18.827  0.00  0.00    +0.000 C 
ATOM      3  N   UNL     1       4.742   4.139  19.194  0.00  0.00    +0.000 N 
ATOM      4  H   UNL     1       4.776   4.272  20.198  0.00  0.00    +0.000 HD
ENDROOT
BRANCH   2   5
ATOM      5  C   UNL     1       2.501   3.366  19.742  0.00  0.00    +0.000 C 
BRANCH   5   6
ATOM      6  C   UNL     1       1.688   4.624  19.484  0.00  0.00    +0.000 C 
ATOM      7  C   UNL     1       1.477   5.420  20.751  0.00  0.00    +0.000 C 
ATOM      8  C   UNL     1       1.851   6.759  20.222  0.00  0.00    +0.000 C 
ATOM      9  N   UNL     1       2.388   6.781  19.065  0.00  0.00    +0.000 NA
ATOM     10  O   UNL     1       2.439   5.458  18.595  0.00  0.00    +0.000 OA
BRANCH   8  11
ATOM     11  C   UNL     1       1.711   7.985  21.065  0.00  0.00    +0.000 C 
BRANCH  11  12
ATOM     12  C   UNL     1       0.360   8.692  20.935  0.00  0.00    +0.000 C 
BRANCH  12  13
ATOM     13  C   UNL     1       0.471  10.136  20.396  0.00  0.00    +0.000 C 
ATOM     14  C   UNL     1      -0.877  10.804  20.071  0.00  0.00    +0.000 C 
ATOM     15  C   UNL     1      -1.490  10.379  18.731  0.00  0.00    +0.000 C 
ATOM     16  N   UNL     1      -0.546  10.439  17.615  0.00  0.00    +0.000 NA
ATOM     17  C   UNL     1       0.710   9.733  17.886  0.00  0.00    +0.000 C 
ATOM     18  C   UNL     1       1.385  10.229  19.163  0.00  0.00    +0.000 C 
ATOM     19  H   UNL     1      -0.335  11.414  17.414  0.00  0.00    +0.000 HD
ENDBRANCH  12  13
ENDBRANCH  11  12
ENDBRANCH   8  11
ENDBRANCH   5   6
ENDBRANCH   2   5
BRANCH   3  20
ATOM     20  C   UNL     1       5.990   4.234  18.440  0.00  0.00    +0.000 C 
BRANCH  20  21
ATOM     21  CA  UNL     1       6.510   5.673  18.190  0.00  0.00    +0.000 C 
BRANCH  21  22
ATOM     22  N   UNL     1       6.952   5.796  16.787  0.00  0.00    +0.000 N 
ATOM     23  C   UNL     1       6.109   6.062  15.751  0.00  0.00    +0.000 C 
ATOM     24  O   UNL     1       4.968   6.485  15.890  0.00  0.00    +0.000 OA
ATOM     25  H   UNL     1       7.844   5.414  16.505  0.00  0.00    +0.000 HD
BRANCH  23  26
ATOM     26  O   UNL     1       6.686   5.673  14.585  0.00  0.00    +0.000 OA
BRANCH  26  27
ATOM     27  C   UNL     1       6.829   4.250  14.469  0.00  0.00    +0.000 C 
BRANCH  27  28
ATOM     28  C   UNL     1       6.118   3.699  13.264  0.00  0.00    +0.000 A 
ATOM     29  C   UNL     1       4.772   3.996  13.014  0.00  0.00    +0.000 A 
ATOM     30  C   UNL     1       4.121   3.437  11.912  0.00  0.00    +0.000 A 
ATOM     31  C   UNL     1       4.810   2.588  11.047  0.00  0.00    +0.000 A 
ATOM     32  C   UNL     1       6.152   2.295  11.283  0.00  0.00    +0.000 A 
ATOM     33  C   UNL     1       6.802   2.848  12.385  0.00  0.00    +0.000 A 
ENDBRANCH  27  28
ENDBRANCH  26  27
ENDBRANCH  23  26
ENDBRANCH  21  22
BRANCH  21  34
ATOM     34  C   UNL     1       7.587   5.896  19.261  0.00  0.00    +0.000 C 
ATOM     35  O   UNL     1       7.706   5.213  20.281  0.00  0.00    +0.000 OA
BRANCH  34  36
ATOM     36  OXT UNL     1       8.389   6.961  19.030  0.00  0.00    +0.000 OA
ATOM     37  HXT UNL     1       7.958   7.832  19.142  0.00  0.00    +0.000 HD
ENDBRANCH  34  36
ENDBRANCH  21  34
ENDBRANCH  20  21
ENDBRANCH   3  20
TORSDOF 13
ENDMDL
MODEL 7
REMARK VINA RESULT:      -7.4      3.145      7.370
REMARK  Name = 
REMARK  13 active torsions:
REMARK  status: ('A' for Active; 'I' for Inactive)
REMARK    1  A    between atoms: C_2  and  C_3
REMARK    2  A    between atoms: C_3  and  C_4
REMARK    3  A    between atoms: C_6  and  C_7
REMARK    4  A    between atoms: C_7  and  C_8
REMARK    5  A    between atoms: C_8  and  C_9
REMARK    6  A    between atoms: N_17  and  C_18
REMARK    7  A    between atoms: C_18  and  CA_19
REMARK    8  A    between atoms: CA_19  and  N_20
REMARK    9  A    between atoms: CA_19  and  C_31
REMARK   10  A    between atoms: C_21  and  O_23
REMARK   11  A    between atoms: O_23  and  C_24
REMARK   12  A    between atoms: C_24  and  C_25
REMARK   13  A    between atoms: C_31  and  OXT_33
REMARK                            x       y       z     vdW  Elec       q    Type
REMARK                         _______ _______ _______ _____ _____    ______ ____
ROOT
ATOM      1  O   UNL     1       3.152   5.146  17.446  0.00  0.00    +0.000 OA
ATOM      2  C   UNL     1       3.489   6.259  17.763  0.00  0.00    +0.000 C 
ATOM      3  N   UNL     1       4.487   6.923  17.076  0.00  0.00    +0.000 N 
ATOM      4  H   UNL     1       4.992   7.562  17.679  0.00  0.00    +0.000 HD
ENDROOT
BRANCH   2   5
ATOM      5  C   UNL     1       2.895   7.028  18.913  0.00  0.00    +0.000 C 
BRANCH   5   6
ATOM      6  C   UNL     1       1.851   8.012  18.410  0.00  0.00    +0.000 C 
ATOM      7  C   UNL     1       1.334   8.892  19.525  0.00  0.00    +0.000 C 
ATOM      8  C   UNL     1       1.450  10.200  18.829  0.00  0.00    +0.000 C 
ATOM      9  N   UNL     1       2.088  10.200  17.723  0.00  0.00    +0.000 NA
ATOM     10  O   UNL     1       2.485   8.878  17.463  0.00  0.00    +0.000 OA
BRANCH   8  11
ATOM     11  C   UNL     1       0.950  11.457  19.465  0.00  0.00    +0.000 C 
BRANCH  11  12
ATOM     12  C   UNL     1       1.898  12.652  19.339  0.00  0.00    +0.000 C 
BRANCH  12  13
ATOM     13  C   UNL     1       1.349  13.781  18.439  0.00  0.00    +0.000 C 
ATOM     14  C   UNL     1       2.002  15.156  18.666  0.00  0.00    +0.000 C 
ATOM     15  C   UNL     1       1.478  15.914  19.892  0.00  0.00    +0.000 C 
ATOM     16  N   UNL     1       0.017  15.963  19.964  0.00  0.00    +0.000 NA
ATOM     17  C   UNL     1      -0.609  14.645  19.833  0.00  0.00    +0.000 C 
ATOM     18  C   UNL     1      -0.178  13.928  18.555  0.00  0.00    +0.000 C 
ATOM     19  H   UNL     1      -0.329  16.565  19.221  0.00  0.00    +0.000 HD
ENDBRANCH  12  13
ENDBRANCH  11  12
ENDBRANCH   8  11
ENDBRANCH   5   6
ENDBRANCH   2   5
BRANCH   3  20
ATOM     20  C   UNL     1       5.191   6.351  15.931  0.00  0.00    +0.000 C 
BRANCH  20  21
ATOM     21  CA  UNL     1       6.442   5.502  16.273  0.00  0.00    +0.000 C 
BRANCH  21  22
ATOM     22  N   UNL     1       7.453   6.358  16.922  0.00  0.00    +0.000 N 
ATOM     23  C   UNL     1       7.724   6.326  18.256  0.00  0.00    +0.000 C 
ATOM     24  O   UNL     1       7.369   5.425  19.004  0.00  0.00    +0.000 OA
ATOM     25  H   UNL     1       7.782   7.192  16.454  0.00  0.00    +0.000 HD
BRANCH  23  26
ATOM     26  O   UNL     1       8.328   7.486  18.624  0.00  0.00    +0.000 OA
BRANCH  26  27
ATOM     27  C   UNL     1       7.944   8.608  17.816  0.00  0.00    +0.000 C 
BRANCH  27  28
ATOM     28  C   UNL     1       8.566   9.893  18.287  0.00  0.00    +0.000 A 
ATOM     29  C   UNL     1       9.311   9.950  19.472  0.00  0.00    +0.000 A 
ATOM     30  C   UNL     1       9.842  11.165  19.912  0.00  0.00    +0.000 A 
ATOM     31  C   UNL     1       9.642  12.327  19.169  0.00  0.00    +0.000 A 
ATOM     32  C   UNL     1       8.910  12.277  17.984  0.00  0.00    +0.000 A 
ATOM     33  C   UNL     1       8.376  11.067  17.546  0.00  0.00    +0.000 A 
ENDBRANCH  27  28
ENDBRANCH  26  27
ENDBRANCH  23  26
ENDBRANCH  21  22
BRANCH  21  34
ATOM     34  C   UNL     1       6.855   4.855  14.943  0.00  0.00    +0.000 C 
ATOM     35  O   UNL     1       6.394   3.796  14.510  0.00  0.00    +0.000 OA
BRANCH  34  36
ATOM     36  OXT UNL     1       7.832   5.518  14.282  0.00  0.00    +0.000 OA
ATOM     37  HXT UNL     1       8.563   5.842  14.847  0.00  0.00    +0.000 HD
ENDBRANCH  34  36
ENDBRANCH  21  34
ENDBRANCH  20  21
ENDBRANCH   3  20
TORSDOF 13
ENDMDL
MODEL 8
REMARK VINA RESULT:      -7.4      2.185      7.794
REMARK  Name = 
REMARK  13 active torsions:
REMARK  status: ('A' for Active; 'I' for Inactive)
REMARK    1  A    between atoms: C_2  and  C_3
REMARK    2  A    between atoms: C_3  and  C_4
REMARK    3  A    between atoms: C_6  and  C_7
REMARK    4  A    between atoms: C_7  and  C_8
REMARK    5  A    between atoms: C_8  and  C_9
REMARK    6  A    between atoms: N_17  and  C_18
REMARK    7  A    between atoms: C_18  and  CA_19
REMARK    8  A    between atoms: CA_19  and  N_20
REMARK    9  A    between atoms: CA_19  and  C_31
REMARK   10  A    between atoms: C_21  and  O_23
REMARK   11  A    between atoms: O_23  and  C_24
REMARK   12  A    between atoms: C_24  and  C_25
REMARK   13  A    between atoms: C_31  and  OXT_33
REMARK                            x       y       z     vdW  Elec       q    Type
REMARK                         _______ _______ _______ _____ _____    ______ ____
ROOT
ATOM      1  O   UNL     1       5.853   4.404  19.255  0.00  0.00    +0.000 OA
ATOM      2  C   UNL     1       4.908   3.994  18.627  0.00  0.00    +0.000 C 
ATOM      3  N   UNL     1       4.476   4.644  17.487  0.00  0.00    +0.000 N 
ATOM      4  H   UNL     1       3.479   4.534  17.352  0.00  0.00    +0.000 HD
ENDROOT
BRANCH   2   5
ATOM      5  C   UNL     1       4.106   2.777  19.003  0.00  0.00    +0.000 C 
BRANCH   5   6
ATOM      6  C   UNL     1       2.744   3.185  19.539  0.00  0.00    +0.000 C 
ATOM      7  C   UNL     1       2.867   4.157  20.690  0.00  0.00    +0.000 C 
ATOM      8  C   UNL     1       1.871   5.159  20.225  0.00  0.00    +0.000 C 
ATOM      9  N   UNL     1       1.440   5.019  19.032  0.00  0.00    +0.000 NA
ATOM     10  O   UNL     1       2.048   3.872  18.494  0.00  0.00    +0.000 OA
BRANCH   8  11
ATOM     11  C   UNL     1       1.501   6.329  21.079  0.00  0.00    +0.000 C 
BRANCH  11  12
ATOM     12  C   UNL     1       1.686   7.689  20.404  0.00  0.00    +0.000 C 
BRANCH  12  13
ATOM     13  C   UNL     1       0.389   8.526  20.338  0.00  0.00    +0.000 C 
ATOM     14  C   UNL     1       0.581   9.968  19.837  0.00  0.00    +0.000 C 
ATOM     15  C   UNL     1       1.123  10.940  20.891  0.00  0.00    +0.000 C 
ATOM     16  N   UNL     1       0.406  10.875  22.165  0.00  0.00    +0.000 NA
ATOM     17  C   UNL     1       0.292   9.512  22.691  0.00  0.00    +0.000 C 
ATOM     18  C   UNL     1      -0.351   8.559  21.686  0.00  0.00    +0.000 C 
ATOM     19  H   UNL     1      -0.530  11.255  22.036  0.00  0.00    +0.000 HD
ENDBRANCH  12  13
ENDBRANCH  11  12
ENDBRANCH   8  11
ENDBRANCH   5   6
ENDBRANCH   2   5
BRANCH   3  20
ATOM     20  C   UNL     1       5.118   5.844  16.955  0.00  0.00    +0.000 C 
BRANCH  20  21
ATOM     21  CA  UNL     1       6.657   5.761  16.791  0.00  0.00    +0.000 C 
BRANCH  21  22
ATOM     22  N   UNL     1       7.227   7.121  16.817  0.00  0.00    +0.000 N 
ATOM     23  C   UNL     1       7.856   7.656  17.899  0.00  0.00    +0.000 C 
ATOM     24  O   UNL     1       8.251   6.998  18.854  0.00  0.00    +0.000 OA
ATOM     25  H   UNL     1       6.928   7.805  16.134  0.00  0.00    +0.000 HD
BRANCH  23  26
ATOM     26  O   UNL     1       7.859   9.010  17.800  0.00  0.00    +0.000 OA
BRANCH  26  27
ATOM     27  C   UNL     1       9.171   9.584  17.903  0.00  0.00    +0.000 C 
BRANCH  27  28
ATOM     28  C   UNL     1       9.186  10.834  18.739  0.00  0.00    +0.000 A 
ATOM     29  C   UNL     1       8.999  12.097  18.164  0.00  0.00    +0.000 A 
ATOM     30  C   UNL     1       9.061  13.247  18.954  0.00  0.00    +0.000 A 
ATOM     31  C   UNL     1       9.299  13.143  20.324  0.00  0.00    +0.000 A 
ATOM     32  C   UNL     1       9.478  11.890  20.906  0.00  0.00    +0.000 A 
ATOM     33  C   UNL     1       9.420  10.742  20.117  0.00  0.00    +0.000 A 
ENDBRANCH  27  28
ENDBRANCH  26  27
ENDBRANCH  23  26
ENDBRANCH  21  22
BRANCH  21  34
ATOM     34  C   UNL     1       6.873   4.960  15.499  0.00  0.00    +0.000 C 
ATOM     35  O   UNL     1       6.382   3.851  15.276  0.00  0.00    +0.000 OA
BRANCH  34  36
ATOM     36  OXT UNL     1       7.710   5.549  14.613  0.00  0.00    +0.000 OA
ATOM     37  HXT UNL     1       7.911   5.013  13.820  0.00  0.00    +0.000 HD
ENDBRANCH  34  36
ENDBRANCH  21  34
ENDBRANCH  20  21
ENDBRANCH   3  20
TORSDOF 13
ENDMDL
MODEL 9
REMARK VINA RESULT:      -7.3      4.023      6.456
REMARK  Name = 
REMARK  13 active torsions:
REMARK  status: ('A' for Active; 'I' for Inactive)
REMARK    1  A    between atoms: C_2  and  C_3
REMARK    2  A    between atoms: C_3  and  C_4
REMARK    3  A    between atoms: C_6  and  C_7
REMARK    4  A    between atoms: C_7  and  C_8
REMARK    5  A    between atoms: C_8  and  C_9
REMARK    6  A    between atoms: N_17  and  C_18
REMARK    7  A    between atoms: C_18  and  CA_19
REMARK    8  A    between atoms: CA_19  and  N_20
REMARK    9  A    between atoms: CA_19  and  C_31
REMARK   10  A    between atoms: C_21  and  O_23
REMARK   11  A    between atoms: O_23  and  C_24
REMARK   12  A    between atoms: C_24  and  C_25
REMARK   13  A    between atoms: C_31  and  OXT_33
REMARK                            x       y       z     vdW  Elec       q    Type
REMARK                         _______ _______ _______ _____ _____    ______ ____
ROOT
ATOM      1  O   UNL     1       5.129   3.443  19.478  0.00  0.00    +0.000 OA
ATOM      2  C   UNL     1       5.290   4.470  18.868  0.00  0.00    +0.000 C 
ATOM      3  N   UNL     1       4.459   4.812  17.819  0.00  0.00    +0.000 N 
ATOM      4  H   UNL     1       4.945   5.368  17.126  0.00  0.00    +0.000 HD
ENDROOT
BRANCH   2   5
ATOM      5  C   UNL     1       6.385   5.462  19.156  0.00  0.00    +0.000 C 
BRANCH   5   6
ATOM      6  C   UNL     1       7.125   5.821  17.878  0.00  0.00    +0.000 C 
ATOM      7  C   UNL     1       7.388   4.601  17.026  0.00  0.00    +0.000 C 
ATOM      8  C   UNL     1       6.923   5.150  15.725  0.00  0.00    +0.000 C 
ATOM      9  N   UNL     1       6.307   6.268  15.768  0.00  0.00    +0.000 NA
ATOM     10  O   UNL     1       6.280   6.685  17.110  0.00  0.00    +0.000 OA
BRANCH   8  11
ATOM     11  C   UNL     1       7.067   4.364  14.462  0.00  0.00    +0.000 C 
BRANCH  11  12
ATOM     12  C   UNL     1       5.744   3.914  13.840  0.00  0.00    +0.000 C 
BRANCH  12  13
ATOM     13  C   UNL     1       5.719   4.019  12.299  0.00  0.00    +0.000 C 
ATOM     14  C   UNL     1       4.789   3.012  11.602  0.00  0.00    +0.000 C 
ATOM     15  C   UNL     1       5.367   1.598  11.470  0.00  0.00    +0.000 C 
ATOM     16  N   UNL     1       6.729   1.575  10.933  0.00  0.00    +0.000 NA
ATOM     17  C   UNL     1       7.642   2.472  11.646  0.00  0.00    +0.000 C 
ATOM     18  C   UNL     1       7.125   3.908  11.686  0.00  0.00    +0.000 C 
ATOM     19  H   UNL     1       6.701   1.849   9.953  0.00  0.00    +0.000 HD
ENDBRANCH  12  13
ENDBRANCH  11  12
ENDBRANCH   8  11
ENDBRANCH   5   6
ENDBRANCH   2   5
BRANCH   3  20
ATOM     20  C   UNL     1       3.338   3.984  17.380  0.00  0.00    +0.000 C 
BRANCH  20  21
ATOM     21  CA  UNL     1       2.029   4.148  18.194  0.00  0.00    +0.000 C 
BRANCH  21  22
ATOM     22  N   UNL     1       2.253   5.105  19.294  0.00  0.00    +0.000 N 
ATOM     23  C   UNL     1       1.588   5.059  20.482  0.00  0.00    +0.000 C 
ATOM     24  O   UNL     1       0.947   4.089  20.868  0.00  0.00    +0.000 OA
ATOM     25  H   UNL     1       2.699   5.993  19.106  0.00  0.00    +0.000 HD
BRANCH  23  26
ATOM     26  O   UNL     1       1.653   6.272  21.087  0.00  0.00    +0.000 OA
BRANCH  26  27
ATOM     27  C   UNL     1       1.830   7.358  20.165  0.00  0.00    +0.000 C 
BRANCH  27  28
ATOM     28  C   UNL     1       1.100   8.601  20.595  0.00  0.00    +0.000 A 
ATOM     29  C   UNL     1       0.880   9.659  19.706  0.00  0.00    +0.000 A 
ATOM     30  C   UNL     1       0.238  10.822  20.141  0.00  0.00    +0.000 A 
ATOM     31  C   UNL     1      -0.196  10.930  21.461  0.00  0.00    +0.000 A 
ATOM     32  C   UNL     1       0.011   9.877  22.350  0.00  0.00    +0.000 A 
ATOM     33  C   UNL     1       0.655   8.718  21.918  0.00  0.00    +0.000 A 
ENDBRANCH  27  28
ENDBRANCH  26  27
ENDBRANCH  23  26
ENDBRANCH  21  22
BRANCH  21  34
ATOM     34  C   UNL     1       1.639   2.721  18.606  0.00  0.00    +0.000 C 
ATOM     35  O   UNL     1       0.535   2.213  18.396  0.00  0.00    +0.000 OA
BRANCH  34  36
ATOM     36  OXT UNL     1       2.601   2.057  19.287  0.00  0.00    +0.000 OA
ATOM     37  HXT UNL     1       2.292   1.603  20.097  0.00  0.00    +0.000 HD
ENDBRANCH  34  36
ENDBRANCH  21  34
ENDBRANCH  20  21
ENDBRANCH   3  20
TORSDOF 13
ENDMDL
