MODEL 1
REMARK VINA RESULT:      -6.2      0.000      0.000
REMARK  Name = 
REMARK  5 active torsions:
REMARK  status: ('A' for Active; 'I' for Inactive)
REMARK    1  A    between atoms: C_1  and  C_2
REMARK    2  A    between atoms: C_2  and  S_3
REMARK    3  A    between atoms: S_3  and  C_4
REMARK    4  A    between atoms: C_7  and  C_8
REMARK    5  A    between atoms: C_11  and  C_12
REMARK                            x       y       z     vdW  Elec       q    Type
REMARK                         _______ _______ _______ _____ _____    ______ ____
ROOT
ATOM      1  C   UNL     1       1.238   8.982  19.741  0.00  0.00    +0.000 A 
ATOM      2  C   UNL     1       1.634   7.799  20.343  0.00  0.00    +0.000 A 
ATOM      3  C   UNL     1       2.438   6.915  19.640  0.00  0.00    +0.000 A 
ATOM      4  C   UNL     1       2.845   7.232  18.351  0.00  0.00    +0.000 A 
ATOM      5  N   UNL     1       2.464   8.412  17.798  0.00  0.00    +0.000 NA
ATOM      6  N   UNL     1       1.655   9.292  18.497  0.00  0.00    +0.000 NA
ENDROOT
BRANCH   4   7
ATOM      7  C   UNL     1       3.696   6.335  17.559  0.00  0.00    +0.000 A 
ATOM      8  C   UNL     1       4.671   6.846  16.679  0.00  0.00    +0.000 A 
ATOM      9  C   UNL     1       5.442   6.008  15.874  0.00  0.00    +0.000 A 
ATOM     10  C   UNL     1       5.265   4.623  15.926  0.00  0.00    +0.000 A 
ATOM     11  C   UNL     1       6.071   3.709  15.054  0.00  0.00    +0.000 C 
ATOM     12  C   UNL     1       4.313   4.097  16.807  0.00  0.00    +0.000 A 
ATOM     13  C   UNL     1       3.547   4.940  17.617  0.00  0.00    +0.000 A 
ENDBRANCH   4   7
BRANCH   1  14
ATOM     14  S   UNL     1       0.216  10.098  20.677  0.00  0.00    +0.000 S 
BRANCH  14  16
ATOM     15  C   UNL     1      -0.757  10.075  23.213  0.00  0.00    +0.000 C 
ATOM     16  C   UNL     1      -0.039   9.169  22.222  0.00  0.00    +0.000 C 
ENDBRANCH  14  16
ENDBRANCH   1  14
TORSDOF 3
ENDMDL
MODEL 2
REMARK VINA RESULT:      -6.2      0.193      1.218
REMARK  Name = 
REMARK  5 active torsions:
REMARK  status: ('A' for Active; 'I' for Inactive)
REMARK    1  A    between atoms: C_1  and  C_2
REMARK    2  A    between atoms: C_2  and  S_3
REMARK    3  A    between atoms: S_3  and  C_4
REMARK    4  A    between atoms: C_7  and  C_8
REMARK    5  A    between atoms: C_11  and  C_12
REMARK                            x       y       z     vdW  Elec       q    Type
REMARK                         _______ _______ _______ _____ _____    ______ ____
ROOT
ATOM      1  C   UNL     1       1.266   8.981  19.741  0.00  0.00    +0.000 A 
ATOM      2  C   UNL     1       1.672   7.790  20.321  0.00  0.00    +0.000 A 
ATOM      3  C   UNL     1       2.454   6.910  19.588  0.00  0.00    +0.000 A 
ATOM      4  C   UNL     1       2.829   7.239  18.293  0.00  0.00    +0.000 A 
ATOM      5  N   UNL     1       2.440   8.427  17.762  0.00  0.00    +0.000 NA
ATOM      6  N   UNL     1       1.652   9.303  18.491  0.00  0.00    +0.000 NA
ENDROOT
BRANCH   4   7
ATOM      7  C   UNL     1       3.656   6.348  17.470  0.00  0.00    +0.000 A 
ATOM      8  C   UNL     1       3.503   4.949  17.533  0.00  0.00    +0.000 A 
ATOM      9  C   UNL     1       4.324   4.088  16.805  0.00  0.00    +0.000 A 
ATOM     10  C   UNL     1       5.329   4.601  15.981  0.00  0.00    +0.000 A 
ATOM     11  C   UNL     1       6.233   3.691  15.207  0.00  0.00    +0.000 C 
ATOM     12  C   UNL     1       5.485   5.990  15.893  0.00  0.00    +0.000 A 
ATOM     13  C   UNL     1       4.656   6.849  16.620  0.00  0.00    +0.000 A 
ENDBRANCH   4   7
BRANCH   1  14
ATOM     14  S   UNL     1       0.273  10.090  20.715  0.00  0.00    +0.000 S 
BRANCH  14  16
ATOM     15  C   UNL     1      -0.311   9.741  23.345  0.00  0.00    +0.000 C 
ATOM     16  C   UNL     1      -0.352   8.988  22.023  0.00  0.00    +0.000 C 
ENDBRANCH  14  16
ENDBRANCH   1  14
TORSDOF 3
ENDMDL
MODEL 3
REMARK VINA RESULT:      -6.1      3.008      7.109
REMARK  Name = 
REMARK  5 active torsions:
REMARK  status: ('A' for Active; 'I' for Inactive)
REMARK    1  A    between atoms: C_1  and  C_2
REMARK    2  A    between atoms: C_2  and  S_3
REMARK    3  A    between atoms: S_3  and  C_4
REMARK    4  A    between atoms: C_7  and  C_8
REMARK    5  A    between atoms: C_11  and  C_12
REMARK                            x       y       z     vdW  Elec       q    Type
REMARK                         _______ _______ _______ _____ _____    ______ ____
ROOT
ATOM      1  C   UNL     1       5.110   4.896  16.571  0.00  0.00    +0.000 A 
ATOM      2  C   UNL     1       4.130   4.390  17.408  0.00  0.00    +0.000 A 
ATOM      3  C   UNL     1       3.258   5.263  18.039  0.00  0.00    +0.000 A 
ATOM      4  C   UNL     1       3.370   6.628  17.814  0.00  0.00    +0.000 A 
ATOM      5  N   UNL     1       4.322   7.092  16.965  0.00  0.00    +0.000 NA
ATOM      6  N   UNL     1       5.199   6.221  16.340  0.00  0.00    +0.000 NA
ENDROOT
BRANCH   4   7
ATOM      7  C   UNL     1       2.474   7.601  18.454  0.00  0.00    +0.000 A 
ATOM      8  C   UNL     1       1.998   8.725  17.750  0.00  0.00    +0.000 A 
ATOM      9  C   UNL     1       1.200   9.689  18.363  0.00  0.00    +0.000 A 
ATOM     10  C   UNL     1       0.845   9.558  19.708  0.00  0.00    +0.000 A 
ATOM     11  C   UNL     1       0.004  10.595  20.389  0.00  0.00    +0.000 C 
ATOM     12  C   UNL     1       1.295   8.439  20.419  0.00  0.00    +0.000 A 
ATOM     13  C   UNL     1       2.090   7.471  19.798  0.00  0.00    +0.000 A 
ENDBRANCH   4   7
BRANCH   1  14
ATOM     14  S   UNL     1       6.204   3.744  15.770  0.00  0.00    +0.000 S 
BRANCH  14  16
ATOM     15  C   UNL     1       6.279   3.705  13.055  0.00  0.00    +0.000 C 
ATOM     16  C   UNL     1       6.609   4.620  14.226  0.00  0.00    +0.000 C 
ENDBRANCH  14  16
ENDBRANCH   1  14
TORSDOF 3
ENDMDL
MODEL 4
REMARK VINA RESULT:      -6.1      3.061      7.275
REMARK  Name = 
REMARK  5 active torsions:
REMARK  status: ('A' for Active; 'I' for Inactive)
REMARK    1  A    between atoms: C_1  and  C_2
REMARK    2  A    between atoms: C_2  and  S_3
REMARK    3  A    between atoms: S_3  and  C_4
REMARK    4  A    between atoms: C_7  and  C_8
REMARK    5  A    between atoms: C_11  and  C_12
REMARK                            x       y       z     vdW  Elec       q    Type
REMARK                         _______ _______ _______ _____ _____    ______ ____
ROOT
ATOM      1  C   UNL     1       4.981   4.815  16.466  0.00  0.00    +0.000 A 
ATOM      2  C   UNL     1       5.226   6.159  16.235  0.00  0.00    +0.000 A 
ATOM      3  C   UNL     1       4.444   7.111  16.870  0.00  0.00    +0.000 A 
ATOM      4  C   UNL     1       3.437   6.708  17.736  0.00  0.00    +0.000 A 
ATOM      5  N   UNL     1       3.239   5.384  17.964  0.00  0.00    +0.000 NA
ATOM      6  N   UNL     1       4.015   4.432  17.325  0.00  0.00    +0.000 NA
ENDROOT
BRANCH   4   7
ATOM      7  C   UNL     1       2.578   7.671  18.436  0.00  0.00    +0.000 A 
ATOM      8  C   UNL     1       2.198   7.466  19.777  0.00  0.00    +0.000 A 
ATOM      9  C   UNL     1       1.332   8.339  20.435  0.00  0.00    +0.000 A 
ATOM     10  C   UNL     1       0.816   9.454  19.769  0.00  0.00    +0.000 A 
ATOM     11  C   UNL     1      -0.131  10.392  20.454  0.00  0.00    +0.000 C 
ATOM     12  C   UNL     1       1.196   9.683  18.441  0.00  0.00    +0.000 A 
ATOM     13  C   UNL     1       2.070   8.809  17.788  0.00  0.00    +0.000 A 
ENDBRANCH   4   7
BRANCH   1  14
ATOM     14  S   UNL     1       6.011   3.621  15.643  0.00  0.00    +0.000 S 
BRANCH  14  16
ATOM     15  C   UNL     1       6.299   3.786  12.947  0.00  0.00    +0.000 C 
ATOM     16  C   UNL     1       6.619   4.570  14.213  0.00  0.00    +0.000 C 
ENDBRANCH  14  16
ENDBRANCH   1  14
TORSDOF 3
ENDMDL
MODEL 5
REMARK VINA RESULT:      -6.0      1.835      2.135
REMARK  Name = 
REMARK  5 active torsions:
REMARK  status: ('A' for Active; 'I' for Inactive)
REMARK    1  A    between atoms: C_1  and  C_2
REMARK    2  A    between atoms: C_2  and  S_3
REMARK    3  A    between atoms: S_3  and  C_4
REMARK    4  A    between atoms: C_7  and  C_8
REMARK    5  A    between atoms: C_11  and  C_12
REMARK                            x       y       z     vdW  Elec       q    Type
REMARK                         _______ _______ _______ _____ _____    ______ ____
ROOT
ATOM      1  C   UNL     1       0.812   9.674  19.774  0.00  0.00    +0.000 A 
ATOM      2  C   UNL     1       1.093   9.820  18.426  0.00  0.00    +0.000 A 
ATOM      3  C   UNL     1       1.891   8.880  17.793  0.00  0.00    +0.000 A 
ATOM      4  C   UNL     1       2.386   7.801  18.513  0.00  0.00    +0.000 A 
ATOM      5  N   UNL     1       2.069   7.670  19.827  0.00  0.00    +0.000 NA
ATOM      6  N   UNL     1       1.278   8.613  20.462  0.00  0.00    +0.000 NA
ENDROOT
BRANCH   4   7
ATOM      7  C   UNL     1       3.235   6.775  17.896  0.00  0.00    +0.000 A 
ATOM      8  C   UNL     1       4.388   7.127  17.166  0.00  0.00    +0.000 A 
ATOM      9  C   UNL     1       5.168   6.167  16.522  0.00  0.00    +0.000 A 
ATOM     10  C   UNL     1       4.822   4.815  16.591  0.00  0.00    +0.000 A 
ATOM     11  C   UNL     1       5.638   3.773  15.888  0.00  0.00    +0.000 C 
ATOM     12  C   UNL     1       3.690   4.446  17.326  0.00  0.00    +0.000 A 
ATOM     13  C   UNL     1       2.914   5.410  17.976  0.00  0.00    +0.000 A 
ENDBRANCH   4   7
BRANCH   1  14
ATOM     14  S   UNL     1      -0.225  10.894  20.550  0.00  0.00    +0.000 S 
BRANCH  14  16
ATOM     15  C   UNL     1      -2.175  11.608  18.799  0.00  0.00    +0.000 C 
ATOM     16  C   UNL     1      -0.723  11.923  19.134  0.00  0.00    +0.000 C 
ENDBRANCH  14  16
ENDBRANCH   1  14
TORSDOF 3
ENDMDL
MODEL 6
REMARK VINA RESULT:      -5.9      1.570      2.160
REMARK  Name = 
REMARK  5 active torsions:
REMARK  status: ('A' for Active; 'I' for Inactive)
REMARK    1  A    between atoms: C_1  and  C_2
REMARK    2  A    between atoms: C_2  and  S_3
REMARK    3  A    between atoms: S_3  and  C_4
REMARK    4  A    between atoms: C_7  and  C_8
REMARK    5  A    between atoms: C_11  and  C_12
REMARK                            x       y       z     vdW  Elec       q    Type
REMARK                         _______ _______ _______ _____ _____    ______ ____
ROOT
ATOM      1  C   UNL     1       1.132   9.039  20.022  0.00  0.00    +0.000 A 
ATOM      2  C   UNL     1       1.373   9.399  18.707  0.00  0.00    +0.000 A 
ATOM      3  C   UNL     1       2.147   8.573  17.907  0.00  0.00    +0.000 A 
ATOM      4  C   UNL     1       2.657   7.392  18.430  0.00  0.00    +0.000 A 
ATOM      5  N   UNL     1       2.380   7.052  19.715  0.00  0.00    +0.000 NA
ATOM      6  N   UNL     1       1.614   7.881  20.516  0.00  0.00    +0.000 NA
ENDROOT
BRANCH   4   7
ATOM      7  C   UNL     1       3.483   6.478  17.630  0.00  0.00    +0.000 A 
ATOM      8  C   UNL     1       3.335   5.081  17.740  0.00  0.00    +0.000 A 
ATOM      9  C   UNL     1       4.155   4.200  17.034  0.00  0.00    +0.000 A 
ATOM     10  C   UNL     1       5.153   4.691  16.188  0.00  0.00    +0.000 A 
ATOM     11  C   UNL     1       6.055   3.759  15.438  0.00  0.00    +0.000 C 
ATOM     12  C   UNL     1       5.302   6.076  16.055  0.00  0.00    +0.000 A 
ATOM     13  C   UNL     1       4.474   6.956  16.758  0.00  0.00    +0.000 A 
ENDBRANCH   4   7
BRANCH   1  14
ATOM     14  S   UNL     1       0.126  10.119  21.016  0.00  0.00    +0.000 S 
BRANCH  14  16
ATOM     15  C   UNL     1       0.521  12.718  20.331  0.00  0.00    +0.000 C 
ATOM     16  C   UNL     1      -0.226  11.479  19.857  0.00  0.00    +0.000 C 
ENDBRANCH  14  16
ENDBRANCH   1  14
TORSDOF 3
ENDMDL
MODEL 7
REMARK VINA RESULT:      -5.9      2.886      7.115
REMARK  Name = 
REMARK  5 active torsions:
REMARK  status: ('A' for Active; 'I' for Inactive)
REMARK    1  A    between atoms: C_1  and  C_2
REMARK    2  A    between atoms: C_2  and  S_3
REMARK    3  A    between atoms: S_3  and  C_4
REMARK    4  A    between atoms: C_7  and  C_8
REMARK    5  A    between atoms: C_11  and  C_12
REMARK                            x       y       z     vdW  Elec       q    Type
REMARK                         _______ _______ _______ _____ _____    ______ ____
ROOT
ATOM      1  C   UNL     1       4.590   4.974  16.867  0.00  0.00    +0.000 A 
ATOM      2  C   UNL     1       3.433   4.589  17.523  0.00  0.00    +0.000 A 
ATOM      3  C   UNL     1       2.629   5.556  18.107  0.00  0.00    +0.000 A 
ATOM      4  C   UNL     1       2.986   6.894  18.015  0.00  0.00    +0.000 A 
ATOM      5  N   UNL     1       4.112   7.243  17.340  0.00  0.00    +0.000 NA
ATOM      6  N   UNL     1       4.920   6.277  16.764  0.00  0.00    +0.000 NA
ENDROOT
BRANCH   4   7
ATOM      7  C   UNL     1       2.174   7.961  18.613  0.00  0.00    +0.000 A 
ATOM      8  C   UNL     1       1.849   7.947  19.984  0.00  0.00    +0.000 A 
ATOM      9  C   UNL     1       1.026   8.919  20.551  0.00  0.00    +0.000 A 
ATOM     10  C   UNL     1       0.502   9.947  19.763  0.00  0.00    +0.000 A 
ATOM     11  C   UNL     1      -0.400  10.988  20.353  0.00  0.00    +0.000 C 
ATOM     12  C   UNL     1       0.829   9.986  18.402  0.00  0.00    +0.000 A 
ATOM     13  C   UNL     1       1.659   9.014  17.838  0.00  0.00    +0.000 A 
ENDBRANCH   4   7
BRANCH   1  14
ATOM     14  S   UNL     1       5.592   3.707  16.120  0.00  0.00    +0.000 S 
BRANCH  14  16
ATOM     15  C   UNL     1       6.434   4.162  13.578  0.00  0.00    +0.000 C 
ATOM     16  C   UNL     1       6.647   4.675  14.996  0.00  0.00    +0.000 C 
ENDBRANCH  14  16
ENDBRANCH   1  14
TORSDOF 3
ENDMDL
MODEL 8
REMARK VINA RESULT:      -5.9      2.817      6.829
REMARK  Name = 
REMARK  5 active torsions:
REMARK  status: ('A' for Active; 'I' for Inactive)
REMARK    1  A    between atoms: C_1  and  C_2
REMARK    2  A    between atoms: C_2  and  S_3
REMARK    3  A    between atoms: S_3  and  C_4
REMARK    4  A    between atoms: C_7  and  C_8
REMARK    5  A    between atoms: C_11  and  C_12
REMARK                            x       y       z     vdW  Elec       q    Type
REMARK                         _______ _______ _______ _____ _____    ______ ____
ROOT
ATOM      1  C   UNL     1       4.414   5.164  17.028  0.00  0.00    +0.000 A 
ATOM      2  C   UNL     1       3.404   4.703  17.856  0.00  0.00    +0.000 A 
ATOM      3  C   UNL     1       2.603   5.617  18.524  0.00  0.00    +0.000 A 
ATOM      4  C   UNL     1       2.815   6.977  18.345  0.00  0.00    +0.000 A 
ATOM      5  N   UNL     1       3.795   7.398  17.504  0.00  0.00    +0.000 NA
ATOM      6  N   UNL     1       4.600   6.486  16.842  0.00  0.00    +0.000 NA
ENDROOT
BRANCH   4   7
ATOM      7  C   UNL     1       1.999   7.990  19.025  0.00  0.00    +0.000 A 
ATOM      8  C   UNL     1       1.584   9.160  18.357  0.00  0.00    +0.000 A 
ATOM      9  C   UNL     1       0.863  10.159  19.010  0.00  0.00    +0.000 A 
ATOM     10  C   UNL     1       0.528  10.020  20.359  0.00  0.00    +0.000 A 
ATOM     11  C   UNL     1      -0.229  11.093  21.081  0.00  0.00    +0.000 C 
ATOM     12  C   UNL     1       0.917   8.857  21.034  0.00  0.00    +0.000 A 
ATOM     13  C   UNL     1       1.634   7.854  20.375  0.00  0.00    +0.000 A 
ENDBRANCH   4   7
BRANCH   1  14
ATOM     14  S   UNL     1       5.414   3.963  16.178  0.00  0.00    +0.000 S 
BRANCH  14  16
ATOM     15  C   UNL     1       7.633   4.552  17.631  0.00  0.00    +0.000 C 
ATOM     16  C   UNL     1       7.061   4.738  16.232  0.00  0.00    +0.000 C 
ENDBRANCH  14  16
ENDBRANCH   1  14
TORSDOF 3
ENDMDL
MODEL 9
REMARK VINA RESULT:      -5.9      1.058      1.630
REMARK  Name = 
REMARK  5 active torsions:
REMARK  status: ('A' for Active; 'I' for Inactive)
REMARK    1  A    between atoms: C_1  and  C_2
REMARK    2  A    between atoms: C_2  and  S_3
REMARK    3  A    between atoms: S_3  and  C_4
REMARK    4  A    between atoms: C_7  and  C_8
REMARK    5  A    between atoms: C_11  and  C_12
REMARK                            x       y       z     vdW  Elec       q    Type
REMARK                         _______ _______ _______ _____ _____    ______ ____
ROOT
ATOM      1  C   UNL     1       1.410   8.114  20.398  0.00  0.00    +0.000 A 
ATOM      2  C   UNL     1       1.817   6.825  20.701  0.00  0.00    +0.000 A 
ATOM      3  C   UNL     1       2.574   6.118  19.779  0.00  0.00    +0.000 A 
ATOM      4  C   UNL     1       2.923   6.713  18.575  0.00  0.00    +0.000 A 
ATOM      5  N   UNL     1       2.533   7.988  18.319  0.00  0.00    +0.000 NA
ATOM      6  N   UNL     1       1.771   8.692  19.235  0.00  0.00    +0.000 NA
ENDROOT
BRANCH   4   7
ATOM      7  C   UNL     1       3.723   6.013  17.561  0.00  0.00    +0.000 A 
ATOM      8  C   UNL     1       3.687   4.609  17.449  0.00  0.00    +0.000 A 
ATOM      9  C   UNL     1       4.489   3.927  16.534  0.00  0.00    +0.000 A 
ATOM     10  C   UNL     1       5.355   4.631  15.694  0.00  0.00    +0.000 A 
ATOM     11  C   UNL     1       6.238   3.914  14.719  0.00  0.00    +0.000 C 
ATOM     12  C   UNL     1       5.391   6.028  15.780  0.00  0.00    +0.000 A 
ATOM     13  C   UNL     1       4.581   6.708  16.694  0.00  0.00    +0.000 A 
ENDBRANCH   4   7
BRANCH   1  14
ATOM     14  S   UNL     1       0.449   8.995  21.609  0.00  0.00    +0.000 S 
BRANCH  14  16
ATOM     15  C   UNL     1      -0.769  11.228  20.655  0.00  0.00    +0.000 C 
ATOM     16  C   UNL     1       0.613  10.717  21.040  0.00  0.00    +0.000 C 
ENDBRANCH  14  16
ENDBRANCH   1  14
TORSDOF 3
ENDMDL
