MODEL 1
REMARK VINA RESULT:      -8.7      0.000      0.000
REMARK  Name = 
REMARK  4 active torsions:
REMARK  status: ('A' for Active; 'I' for Inactive)
REMARK    1  A    between atoms: C_1  and  C_2
REMARK    2  A    between atoms: C_2  and  N_3
REMARK    3  A    between atoms: C_9  and  C_10
REMARK    4  A    between atoms: C_14  and  C_15
REMARK                            x       y       z     vdW  Elec       q    Type
REMARK                         _______ _______ _______ _____ _____    ______ ____
ROOT
ATOM      1  N   UNL     1      -1.029  11.310  22.733  0.00  0.00    +0.000 N 
ATOM      2  C   UNL     1      -0.305  10.620  21.820  0.00  0.00    +0.000 A 
ATOM      3  N   UNL     1      -0.211  10.930  20.551  0.00  0.00    +0.000 NA
ATOM      4  C   UNL     1       0.596  10.023  19.890  0.00  0.00    +0.000 A 
ATOM      5  C   UNL     1       0.922  10.050  18.522  0.00  0.00    +0.000 A 
ATOM      6  C   UNL     1       1.733   9.043  17.981  0.00  0.00    +0.000 A 
ATOM      7  C   UNL     1       2.230   8.007  18.778  0.00  0.00    +0.000 A 
ATOM      8  C   UNL     1       1.938   7.993  20.153  0.00  0.00    +0.000 A 
ATOM      9  C   UNL     1       1.113   9.000  20.682  0.00  0.00    +0.000 A 
ATOM     10  S   UNL     1       0.564   9.214  22.297  0.00  0.00    +0.000 S 
ATOM     11  H   UNL     1      -1.207  10.831  23.610  0.00  0.00    +0.000 HD
ENDROOT
BRANCH   7  12
ATOM     12  C   UNL     1       3.020   6.938  18.180  0.00  0.00    +0.000 A 
ATOM     13  O   UNL     1       3.886   7.330  17.188  0.00  0.00    +0.000 OA
ATOM     14  C   UNL     1       4.525   6.186  16.830  0.00  0.00    +0.000 A 
ATOM     15  N   UNL     1       4.143   5.109  17.473  0.00  0.00    +0.000 NA
ATOM     16  C   UNL     1       3.176   5.568  18.342  0.00  0.00    +0.000 A 
BRANCH  16  17
ATOM     17  C   UNL     1       2.453   4.702  19.258  0.00  0.00    +0.000 A 
ATOM     18  C   UNL     1       2.801   4.627  20.617  0.00  0.00    +0.000 A 
ATOM     19  C   UNL     1       2.159   3.729  21.476  0.00  0.00    +0.000 A 
ATOM     20  C   UNL     1       1.125   2.928  20.999  0.00  0.00    +0.000 A 
ATOM     21  C   UNL     1       0.732   3.029  19.666  0.00  0.00    +0.000 A 
ATOM     22  C   UNL     1       1.396   3.905  18.806  0.00  0.00    +0.000 A 
ATOM     23  F   UNL     1       1.007   3.932  17.522  0.00  0.00    +0.000 F 
ENDBRANCH  16  17
ENDBRANCH   7  12
BRANCH   1  25
ATOM     24  C   UNL     1      -3.158  12.318  23.332  0.00  0.00    +0.000 C 
ATOM     25  C   UNL     1      -2.108  12.151  22.249  0.00  0.00    +0.000 C 
ENDBRANCH   1  25
TORSDOF 3
ENDMDL
MODEL 2
REMARK VINA RESULT:      -8.6      2.190      3.573
REMARK  Name = 
REMARK  4 active torsions:
REMARK  status: ('A' for Active; 'I' for Inactive)
REMARK    1  A    between atoms: C_1  and  C_2
REMARK    2  A    between atoms: C_2  and  N_3
REMARK    3  A    between atoms: C_9  and  C_10
REMARK    4  A    between atoms: C_14  and  C_15
REMARK                            x       y       z     vdW  Elec       q    Type
REMARK                         _______ _______ _______ _____ _____    ______ ____
ROOT
ATOM      1  N   UNL     1      -0.025  11.195  22.081  0.00  0.00    +0.000 N 
ATOM      2  C   UNL     1       0.543  10.278  21.262  0.00  0.00    +0.000 A 
ATOM      3  N   UNL     1       0.819  10.472  19.997  0.00  0.00    +0.000 NA
ATOM      4  C   UNL     1       1.384   9.339  19.445  0.00  0.00    +0.000 A 
ATOM      5  C   UNL     1       1.809   9.192  18.112  0.00  0.00    +0.000 A 
ATOM      6  C   UNL     1       2.341   7.968  17.684  0.00  0.00    +0.000 A 
ATOM      7  C   UNL     1       2.462   6.884  18.559  0.00  0.00    +0.000 A 
ATOM      8  C   UNL     1       2.073   7.035  19.901  0.00  0.00    +0.000 A 
ATOM      9  C   UNL     1       1.528   8.262  20.316  0.00  0.00    +0.000 A 
ATOM     10  S   UNL     1       0.939   8.716  21.866  0.00  0.00    +0.000 S 
ATOM     11  H   UNL     1      -0.398  10.838  22.954  0.00  0.00    +0.000 HD
ENDROOT
BRANCH   7  12
ATOM     12  C   UNL     1       2.961   5.604  18.073  0.00  0.00    +0.000 A 
ATOM     13  O   UNL     1       1.998   4.675  17.763  0.00  0.00    +0.000 OA
ATOM     14  C   UNL     1       2.699   3.606  17.301  0.00  0.00    +0.000 A 
ATOM     15  N   UNL     1       4.003   3.752  17.305  0.00  0.00    +0.000 NA
ATOM     16  C   UNL     1       4.192   5.024  17.799  0.00  0.00    +0.000 A 
BRANCH  16  17
ATOM     17  C   UNL     1       5.506   5.615  17.995  0.00  0.00    +0.000 A 
ATOM     18  C   UNL     1       6.328   5.225  19.065  0.00  0.00    +0.000 A 
ATOM     19  C   UNL     1       7.554   5.857  19.298  0.00  0.00    +0.000 A 
ATOM     20  C   UNL     1       7.999   6.854  18.436  0.00  0.00    +0.000 A 
ATOM     21  C   UNL     1       7.220   7.215  17.338  0.00  0.00    +0.000 A 
ATOM     22  C   UNL     1       5.984   6.603  17.126  0.00  0.00    +0.000 A 
ATOM     23  F   UNL     1       5.253   7.017  16.080  0.00  0.00    +0.000 F 
ENDBRANCH  16  17
ENDBRANCH   7  12
BRANCH   1  25
ATOM     24  C   UNL     1      -1.332  13.191  22.548  0.00  0.00    +0.000 C 
ATOM     25  C   UNL     1      -0.781  12.273  21.471  0.00  0.00    +0.000 C 
ENDBRANCH   1  25
TORSDOF 3
ENDMDL
MODEL 3
REMARK VINA RESULT:      -8.4      2.584      4.119
REMARK  Name = 
REMARK  4 active torsions:
REMARK  status: ('A' for Active; 'I' for Inactive)
REMARK    1  A    between atoms: C_1  and  C_2
REMARK    2  A    between atoms: C_2  and  N_3
REMARK    3  A    between atoms: C_9  and  C_10
REMARK    4  A    between atoms: C_14  and  C_15
REMARK                            x       y       z     vdW  Elec       q    Type
REMARK                         _______ _______ _______ _____ _____    ______ ____
ROOT
ATOM      1  N   UNL     1      -0.134  11.699  19.905  0.00  0.00    +0.000 N 
ATOM      2  C   UNL     1       0.501  10.511  19.759  0.00  0.00    +0.000 A 
ATOM      3  N   UNL     1       1.104  10.115  18.666  0.00  0.00    +0.000 NA
ATOM      4  C   UNL     1       1.643   8.855  18.841  0.00  0.00    +0.000 A 
ATOM      5  C   UNL     1       2.364   8.123  17.880  0.00  0.00    +0.000 A 
ATOM      6  C   UNL     1       2.829   6.838  18.191  0.00  0.00    +0.000 A 
ATOM      7  C   UNL     1       2.593   6.265  19.444  0.00  0.00    +0.000 A 
ATOM      8  C   UNL     1       1.905   7.004  20.421  0.00  0.00    +0.000 A 
ATOM      9  C   UNL     1       1.431   8.286  20.095  0.00  0.00    +0.000 A 
ATOM     10  S   UNL     1       0.537   9.390  21.063  0.00  0.00    +0.000 S 
ATOM     11  H   UNL     1      -0.754  11.774  20.705  0.00  0.00    +0.000 HD
ENDROOT
BRANCH   7  12
ATOM     12  C   UNL     1       3.034   4.904  19.721  0.00  0.00    +0.000 A 
ATOM     13  O   UNL     1       2.342   4.250  20.711  0.00  0.00    +0.000 OA
ATOM     14  C   UNL     1       2.900   3.011  20.749  0.00  0.00    +0.000 A 
ATOM     15  N   UNL     1       3.885   2.818  19.903  0.00  0.00    +0.000 NA
ATOM     16  C   UNL     1       3.989   4.020  19.237  0.00  0.00    +0.000 A 
BRANCH  16  17
ATOM     17  C   UNL     1       4.976   4.272  18.200  0.00  0.00    +0.000 A 
ATOM     18  C   UNL     1       4.761   3.863  16.874  0.00  0.00    +0.000 A 
ATOM     19  C   UNL     1       5.749   4.032  15.900  0.00  0.00    +0.000 A 
ATOM     20  C   UNL     1       6.950   4.655  16.225  0.00  0.00    +0.000 A 
ATOM     21  C   UNL     1       7.158   5.115  17.524  0.00  0.00    +0.000 A 
ATOM     22  C   UNL     1       6.181   4.919  18.501  0.00  0.00    +0.000 A 
ATOM     23  F   UNL     1       6.448   5.341  19.746  0.00  0.00    +0.000 F 
ENDBRANCH  16  17
ENDBRANCH   7  12
BRANCH   1  25
ATOM     24  C   UNL     1       0.091  13.746  18.615  0.00  0.00    +0.000 C 
ATOM     25  C   UNL     1      -0.575  12.385  18.705  0.00  0.00    +0.000 C 
ENDBRANCH   1  25
TORSDOF 3
ENDMDL
MODEL 4
REMARK VINA RESULT:      -8.4      2.372      3.806
REMARK  Name = 
REMARK  4 active torsions:
REMARK  status: ('A' for Active; 'I' for Inactive)
REMARK    1  A    between atoms: C_1  and  C_2
REMARK    2  A    between atoms: C_2  and  N_3
REMARK    3  A    between atoms: C_9  and  C_10
REMARK    4  A    between atoms: C_14  and  C_15
REMARK                            x       y       z     vdW  Elec       q    Type
REMARK                         _______ _______ _______ _____ _____    ______ ____
ROOT
ATOM      1  N   UNL     1       0.044  12.003  19.794  0.00  0.00    +0.000 N 
ATOM      2  C   UNL     1       0.615  10.779  19.680  0.00  0.00    +0.000 A 
ATOM      3  N   UNL     1       1.139  10.297  18.581  0.00  0.00    +0.000 NA
ATOM      4  C   UNL     1       1.627   9.022  18.796  0.00  0.00    +0.000 A 
ATOM      5  C   UNL     1       2.260   8.207  17.840  0.00  0.00    +0.000 A 
ATOM      6  C   UNL     1       2.680   6.918  18.196  0.00  0.00    +0.000 A 
ATOM      7  C   UNL     1       2.485   6.423  19.490  0.00  0.00    +0.000 A 
ATOM      8  C   UNL     1       1.886   7.245  20.459  0.00  0.00    +0.000 A 
ATOM      9  C   UNL     1       1.456   8.530  20.088  0.00  0.00    +0.000 A 
ATOM     10  S   UNL     1       0.668   9.726  21.039  0.00  0.00    +0.000 S 
ATOM     11  H   UNL     1      -0.527  12.149  20.619  0.00  0.00    +0.000 HD
ENDROOT
BRANCH   7  12
ATOM     12  C   UNL     1       2.876   5.058  19.817  0.00  0.00    +0.000 A 
ATOM     13  O   UNL     1       2.088   4.426  20.748  0.00  0.00    +0.000 OA
ATOM     14  C   UNL     1       2.619   3.179  20.846  0.00  0.00    +0.000 A 
ATOM     15  N   UNL     1       3.671   2.961  20.093  0.00  0.00    +0.000 NA
ATOM     16  C   UNL     1       3.855   4.154  19.428  0.00  0.00    +0.000 A 
BRANCH  16  17
ATOM     17  C   UNL     1       4.935   4.378  18.481  0.00  0.00    +0.000 A 
ATOM     18  C   UNL     1       6.166   4.913  18.894  0.00  0.00    +0.000 A 
ATOM     19  C   UNL     1       7.170   5.207  17.967  0.00  0.00    +0.000 A 
ATOM     20  C   UNL     1       6.977   4.925  16.617  0.00  0.00    +0.000 A 
ATOM     21  C   UNL     1       5.781   4.345  16.198  0.00  0.00    +0.000 A 
ATOM     22  C   UNL     1       4.770   4.080  17.123  0.00  0.00    +0.000 A 
ATOM     23  F   UNL     1       3.622   3.562  16.662  0.00  0.00    +0.000 F 
ENDBRANCH  16  17
ENDBRANCH   7  12
BRANCH   1  25
ATOM     24  C   UNL     1      -0.137  14.136  18.643  0.00  0.00    +0.000 C 
ATOM     25  C   UNL     1      -0.427  12.647  18.583  0.00  0.00    +0.000 C 
ENDBRANCH   1  25
TORSDOF 3
ENDMDL
MODEL 5
REMARK VINA RESULT:      -8.3      2.427      4.037
REMARK  Name = 
REMARK  4 active torsions:
REMARK  status: ('A' for Active; 'I' for Inactive)
REMARK    1  A    between atoms: C_1  and  C_2
REMARK    2  A    between atoms: C_2  and  N_3
REMARK    3  A    between atoms: C_9  and  C_10
REMARK    4  A    between atoms: C_14  and  C_15
REMARK                            x       y       z     vdW  Elec       q    Type
REMARK                         _______ _______ _______ _____ _____    ______ ____
ROOT
ATOM      1  N   UNL     1       0.415  11.903  19.986  0.00  0.00    +0.000 N 
ATOM      2  C   UNL     1       0.851  10.639  19.769  0.00  0.00    +0.000 A 
ATOM      3  N   UNL     1       0.881   9.692  20.673  0.00  0.00    +0.000 NA
ATOM      4  C   UNL     1       1.389   8.525  20.134  0.00  0.00    +0.000 A 
ATOM      5  C   UNL     1       1.559   7.306  20.815  0.00  0.00    +0.000 A 
ATOM      6  C   UNL     1       2.116   6.208  20.144  0.00  0.00    +0.000 A 
ATOM      7  C   UNL     1       2.505   6.299  18.804  0.00  0.00    +0.000 A 
ATOM      8  C   UNL     1       2.305   7.503  18.108  0.00  0.00    +0.000 A 
ATOM      9  C   UNL     1       1.759   8.601  18.793  0.00  0.00    +0.000 A 
ATOM     10  S   UNL     1       1.440  10.189  18.216  0.00  0.00    +0.000 S 
ATOM     11  H   UNL     1       0.668  12.586  19.280  0.00  0.00    +0.000 HD
ENDROOT
BRANCH   7  12
ATOM     12  C   UNL     1       3.138   5.162  18.148  0.00  0.00    +0.000 A 
ATOM     13  O   UNL     1       2.292   4.137  17.801  0.00  0.00    +0.000 OA
ATOM     14  C   UNL     1       3.096   3.235  17.178  0.00  0.00    +0.000 A 
ATOM     15  N   UNL     1       4.363   3.569  17.113  0.00  0.00    +0.000 NA
ATOM     16  C   UNL     1       4.412   4.800  17.732  0.00  0.00    +0.000 A 
BRANCH  16  17
ATOM     17  C   UNL     1       5.642   5.555  17.905  0.00  0.00    +0.000 A 
ATOM     18  C   UNL     1       6.568   5.218  18.905  0.00  0.00    +0.000 A 
ATOM     19  C   UNL     1       7.708   5.999  19.124  0.00  0.00    +0.000 A 
ATOM     20  C   UNL     1       7.963   7.100  18.313  0.00  0.00    +0.000 A 
ATOM     21  C   UNL     1       7.082   7.417  17.281  0.00  0.00    +0.000 A 
ATOM     22  C   UNL     1       5.930   6.652  17.086  0.00  0.00    +0.000 A 
ATOM     23  F   UNL     1       5.092   7.025  16.107  0.00  0.00    +0.000 F 
ENDBRANCH  16  17
ENDBRANCH   7  12
BRANCH   1  25
ATOM     24  C   UNL     1      -1.034  12.554  21.826  0.00  0.00    +0.000 C 
ATOM     25  C   UNL     1       0.399  12.391  21.352  0.00  0.00    +0.000 C 
ENDBRANCH   1  25
TORSDOF 3
ENDMDL
MODEL 6
REMARK VINA RESULT:      -8.3      1.531      1.873
REMARK  Name = 
REMARK  4 active torsions:
REMARK  status: ('A' for Active; 'I' for Inactive)
REMARK    1  A    between atoms: C_1  and  C_2
REMARK    2  A    between atoms: C_2  and  N_3
REMARK    3  A    between atoms: C_9  and  C_10
REMARK    4  A    between atoms: C_14  and  C_15
REMARK                            x       y       z     vdW  Elec       q    Type
REMARK                         _______ _______ _______ _____ _____    ______ ____
ROOT
ATOM      1  N   UNL     1      -1.090  11.602  21.116  0.00  0.00    +0.000 N 
ATOM      2  C   UNL     1      -0.293  10.629  20.613  0.00  0.00    +0.000 A 
ATOM      3  N   UNL     1       0.117   9.579  21.278  0.00  0.00    +0.000 NA
ATOM      4  C   UNL     1       0.923   8.786  20.483  0.00  0.00    +0.000 A 
ATOM      5  C   UNL     1       1.532   7.578  20.867  0.00  0.00    +0.000 A 
ATOM      6  C   UNL     1       2.351   6.893  19.958  0.00  0.00    +0.000 A 
ATOM      7  C   UNL     1       2.572   7.386  18.669  0.00  0.00    +0.000 A 
ATOM      8  C   UNL     1       1.938   8.573  18.266  0.00  0.00    +0.000 A 
ATOM      9  C   UNL     1       1.131   9.259  19.189  0.00  0.00    +0.000 A 
ATOM     10  S   UNL     1       0.271  10.735  18.991  0.00  0.00    +0.000 S 
ATOM     11  H   UNL     1      -1.131  12.462  20.580  0.00  0.00    +0.000 HD
ENDROOT
BRANCH   7  12
ATOM     12  C   UNL     1       3.475   6.687  17.764  0.00  0.00    +0.000 A 
ATOM     13  O   UNL     1       4.241   7.492  16.956  0.00  0.00    +0.000 OA
ATOM     14  C   UNL     1       5.015   6.623  16.253  0.00  0.00    +0.000 A 
ATOM     15  N   UNL     1       4.806   5.355  16.514  0.00  0.00    +0.000 NA
ATOM     16  C   UNL     1       3.821   5.373  17.477  0.00  0.00    +0.000 A 
BRANCH  16  17
ATOM     17  C   UNL     1       3.257   4.167  18.062  0.00  0.00    +0.000 A 
ATOM     18  C   UNL     1       4.061   3.252  18.760  0.00  0.00    +0.000 A 
ATOM     19  C   UNL     1       3.531   2.052  19.246  0.00  0.00    +0.000 A 
ATOM     20  C   UNL     1       2.177   1.773  19.083  0.00  0.00    +0.000 A 
ATOM     21  C   UNL     1       1.355   2.695  18.439  0.00  0.00    +0.000 A 
ATOM     22  C   UNL     1       1.894   3.877  17.930  0.00  0.00    +0.000 A 
ATOM     23  F   UNL     1       1.068   4.711  17.281  0.00  0.00    +0.000 F 
ENDBRANCH  16  17
ENDBRANCH   7  12
BRANCH   1  25
ATOM     24  C   UNL     1      -2.433  12.452  22.955  0.00  0.00    +0.000 C 
ATOM     25  C   UNL     1      -1.142  11.758  22.557  0.00  0.00    +0.000 C 
ENDBRANCH   1  25
TORSDOF 3
ENDMDL
MODEL 7
REMARK VINA RESULT:      -8.2      1.080      1.462
REMARK  Name = 
REMARK  4 active torsions:
REMARK  status: ('A' for Active; 'I' for Inactive)
REMARK    1  A    between atoms: C_1  and  C_2
REMARK    2  A    between atoms: C_2  and  N_3
REMARK    3  A    between atoms: C_9  and  C_10
REMARK    4  A    between atoms: C_14  and  C_15
REMARK                            x       y       z     vdW  Elec       q    Type
REMARK                         _______ _______ _______ _____ _____    ______ ____
ROOT
ATOM      1  N   UNL     1      -0.715  10.934  22.392  0.00  0.00    +0.000 N 
ATOM      2  C   UNL     1       0.019  10.266  21.470  0.00  0.00    +0.000 A 
ATOM      3  N   UNL     1       0.187  10.645  20.228  0.00  0.00    +0.000 NA
ATOM      4  C   UNL     1       0.981   9.741  19.549  0.00  0.00    +0.000 A 
ATOM      5  C   UNL     1       1.372   9.834  18.201  0.00  0.00    +0.000 A 
ATOM      6  C   UNL     1       2.160   8.822  17.635  0.00  0.00    +0.000 A 
ATOM      7  C   UNL     1       2.572   7.717  18.388  0.00  0.00    +0.000 A 
ATOM      8  C   UNL     1       2.215   7.637  19.745  0.00  0.00    +0.000 A 
ATOM      9  C   UNL     1       1.413   8.649  20.298  0.00  0.00    +0.000 A 
ATOM     10  S   UNL     1       0.799   8.793  21.897  0.00  0.00    +0.000 S 
ATOM     11  H   UNL     1      -0.956  10.413  23.228  0.00  0.00    +0.000 HD
ENDROOT
BRANCH   7  12
ATOM     12  C   UNL     1       3.339   6.650  17.761  0.00  0.00    +0.000 A 
ATOM     13  O   UNL     1       4.292   7.059  16.860  0.00  0.00    +0.000 OA
ATOM     14  C   UNL     1       4.889   5.907  16.455  0.00  0.00    +0.000 A 
ATOM     15  N   UNL     1       4.402   4.811  16.987  0.00  0.00    +0.000 NA
ATOM     16  C   UNL     1       3.405   5.264  17.824  0.00  0.00    +0.000 A 
BRANCH  16  17
ATOM     17  C   UNL     1       2.572   4.379  18.621  0.00  0.00    +0.000 A 
ATOM     18  C   UNL     1       1.494   3.683  18.051  0.00  0.00    +0.000 A 
ATOM     19  C   UNL     1       0.645   2.900  18.838  0.00  0.00    +0.000 A 
ATOM     20  C   UNL     1       0.889   2.763  20.201  0.00  0.00    +0.000 A 
ATOM     21  C   UNL     1       1.986   3.403  20.774  0.00  0.00    +0.000 A 
ATOM     22  C   UNL     1       2.814   4.207  19.989  0.00  0.00    +0.000 A 
ATOM     23  F   UNL     1       3.831   4.837  20.597  0.00  0.00    +0.000 F 
ENDBRANCH  16  17
ENDBRANCH   7  12
BRANCH   1  25
ATOM     24  C   UNL     1      -2.508  12.421  23.087  0.00  0.00    +0.000 C 
ATOM     25  C   UNL     1      -1.731  11.854  21.913  0.00  0.00    +0.000 C 
ENDBRANCH   1  25
TORSDOF 3
ENDMDL
MODEL 8
REMARK VINA RESULT:      -8.2      1.674      2.169
REMARK  Name = 
REMARK  4 active torsions:
REMARK  status: ('A' for Active; 'I' for Inactive)
REMARK    1  A    between atoms: C_1  and  C_2
REMARK    2  A    between atoms: C_2  and  N_3
REMARK    3  A    between atoms: C_9  and  C_10
REMARK    4  A    between atoms: C_14  and  C_15
REMARK                            x       y       z     vdW  Elec       q    Type
REMARK                         _______ _______ _______ _____ _____    ______ ____
ROOT
ATOM      1  N   UNL     1      -0.948  12.048  21.078  0.00  0.00    +0.000 N 
ATOM      2  C   UNL     1      -0.210  11.012  20.612  0.00  0.00    +0.000 A 
ATOM      3  N   UNL     1       0.116   9.952  21.309  0.00  0.00    +0.000 NA
ATOM      4  C   UNL     1       0.879   9.088  20.547  0.00  0.00    +0.000 A 
ATOM      5  C   UNL     1       1.397   7.851  20.970  0.00  0.00    +0.000 A 
ATOM      6  C   UNL     1       2.182   7.090  20.093  0.00  0.00    +0.000 A 
ATOM      7  C   UNL     1       2.460   7.536  18.797  0.00  0.00    +0.000 A 
ATOM      8  C   UNL     1       1.915   8.753  18.355  0.00  0.00    +0.000 A 
ATOM      9  C   UNL     1       1.141   9.514  19.247  0.00  0.00    +0.000 A 
ATOM     10  S   UNL     1       0.388  11.040  19.000  0.00  0.00    +0.000 S 
ATOM     11  H   UNL     1      -0.920  12.896  20.523  0.00  0.00    +0.000 HD
ENDROOT
BRANCH   7  12
ATOM     12  C   UNL     1       3.329   6.756  17.925  0.00  0.00    +0.000 A 
ATOM     13  O   UNL     1       4.154   7.487  17.107  0.00  0.00    +0.000 OA
ATOM     14  C   UNL     1       4.881   6.552  16.440  0.00  0.00    +0.000 A 
ATOM     15  N   UNL     1       4.588   5.307  16.733  0.00  0.00    +0.000 NA
ATOM     16  C   UNL     1       3.594   5.415  17.681  0.00  0.00    +0.000 A 
BRANCH  16  17
ATOM     17  C   UNL     1       2.948   4.264  18.290  0.00  0.00    +0.000 A 
ATOM     18  C   UNL     1       1.639   3.895  17.942  0.00  0.00    +0.000 A 
ATOM     19  C   UNL     1       0.991   2.840  18.592  0.00  0.00    +0.000 A 
ATOM     20  C   UNL     1       1.660   2.107  19.568  0.00  0.00    +0.000 A 
ATOM     21  C   UNL     1       2.978   2.427  19.888  0.00  0.00    +0.000 A 
ATOM     22  C   UNL     1       3.611   3.499  19.257  0.00  0.00    +0.000 A 
ATOM     23  F   UNL     1       4.865   3.793  19.632  0.00  0.00    +0.000 F 
ENDBRANCH  16  17
ENDBRANCH   7  12
BRANCH   1  25
ATOM     24  C   UNL     1      -0.885  13.719  22.843  0.00  0.00    +0.000 C 
ATOM     25  C   UNL     1      -1.014  12.242  22.515  0.00  0.00    +0.000 C 
ENDBRANCH   1  25
TORSDOF 3
ENDMDL
MODEL 9
REMARK VINA RESULT:      -8.1      2.700      4.345
REMARK  Name = 
REMARK  4 active torsions:
REMARK  status: ('A' for Active; 'I' for Inactive)
REMARK    1  A    between atoms: C_1  and  C_2
REMARK    2  A    between atoms: C_2  and  N_3
REMARK    3  A    between atoms: C_9  and  C_10
REMARK    4  A    between atoms: C_14  and  C_15
REMARK                            x       y       z     vdW  Elec       q    Type
REMARK                         _______ _______ _______ _____ _____    ______ ____
ROOT
ATOM      1  N   UNL     1       0.662  11.572  18.431  0.00  0.00    +0.000 N 
ATOM      2  C   UNL     1       1.064  10.323  18.770  0.00  0.00    +0.000 A 
ATOM      3  N   UNL     1       0.769   9.722  19.895  0.00  0.00    +0.000 NA
ATOM      4  C   UNL     1       1.339   8.464  19.935  0.00  0.00    +0.000 A 
ATOM      5  C   UNL     1       1.226   7.538  20.988  0.00  0.00    +0.000 A 
ATOM      6  C   UNL     1       1.885   6.304  20.901  0.00  0.00    +0.000 A 
ATOM      7  C   UNL     1       2.655   5.970  19.782  0.00  0.00    +0.000 A 
ATOM      8  C   UNL     1       2.742   6.875  18.711  0.00  0.00    +0.000 A 
ATOM      9  C   UNL     1       2.088   8.115  18.814  0.00  0.00    +0.000 A 
ATOM     10  S   UNL     1       2.051   9.417  17.692  0.00  0.00    +0.000 S 
ATOM     11  H   UNL     1       1.153  11.999  17.653  0.00  0.00    +0.000 HD
ENDROOT
BRANCH   7  12
ATOM     12  C   UNL     1       3.379   4.706  19.743  0.00  0.00    +0.000 A 
ATOM     13  O   UNL     1       2.738   3.641  20.325  0.00  0.00    +0.000 OA
ATOM     14  C   UNL     1       3.578   2.592  20.124  0.00  0.00    +0.000 A 
ATOM     15  N   UNL     1       4.692   2.884  19.496  0.00  0.00    +0.000 NA
ATOM     16  C   UNL     1       4.586   4.234  19.245  0.00  0.00    +0.000 A 
BRANCH  16  17
ATOM     17  C   UNL     1       5.619   5.001  18.567  0.00  0.00    +0.000 A 
ATOM     18  C   UNL     1       6.719   5.521  19.269  0.00  0.00    +0.000 A 
ATOM     19  C   UNL     1       7.664   6.330  18.630  0.00  0.00    +0.000 A 
ATOM     20  C   UNL     1       7.549   6.591  17.267  0.00  0.00    +0.000 A 
ATOM     21  C   UNL     1       6.493   6.039  16.545  0.00  0.00    +0.000 A 
ATOM     22  C   UNL     1       5.536   5.256  17.193  0.00  0.00    +0.000 A 
ATOM     23  F   UNL     1       4.515   4.785  16.461  0.00  0.00    +0.000 F 
ENDBRANCH  16  17
ENDBRANCH   7  12
BRANCH   1  25
ATOM     24  C   UNL     1       0.414  13.913  19.036  0.00  0.00    +0.000 C 
ATOM     25  C   UNL     1       0.277  12.475  19.501  0.00  0.00    +0.000 C 
ENDBRANCH   1  25
TORSDOF 3
ENDMDL
