MODEL 1
REMARK VINA RESULT:      -8.2      0.000      0.000
REMARK  Name = 
REMARK  8 active torsions:
REMARK  status: ('A' for Active; 'I' for Inactive)
REMARK    1  A    between atoms: C_2  and  C_4
REMARK    2  A    between atoms: C_4  and  C_5
REMARK    3  A    between atoms: C_4  and  N_15
REMARK    4  A    between atoms: C_5  and  C_6
REMARK    5  A    between atoms: C_16  and  C_18
REMARK    6  A    between atoms: C_18  and  N_19
REMARK    7  A    between atoms: C_18  and  C_20
REMARK    8  A    between atoms: C_20  and  C_21
REMARK                            x       y       z     vdW  Elec       q    Type
REMARK                         _______ _______ _______ _____ _____    ______ ____
ROOT
ATOM      1  C   UNL     1       4.140   3.682  19.190  0.00  0.00    +0.000 C 
ENDROOT
BRANCH   1   3
ATOM      2  N   UNL     1       5.143   1.701  20.259  0.00  0.00    +0.000 N 
ATOM      3  C   UNL     1       4.245   2.148  19.329  0.00  0.00    +0.000 C 
ATOM      4  O   UNL     1       3.552   1.349  18.708  0.00  0.00    +0.000 OA
ATOM      5  H   UNL     1       5.175   0.709  20.451  0.00  0.00    +0.000 HD
ATOM      6  H   UNL     1       5.582   2.347  20.910  0.00  0.00    +0.000 HD
ENDBRANCH   1   3
BRANCH   1   7
ATOM      7  N   UNL     1       5.029   4.145  18.119  0.00  0.00    +0.000 N 
ATOM      8  C   UNL     1       6.202   4.825  18.358  0.00  0.00    +0.000 C 
ATOM      9  O   UNL     1       6.625   5.024  19.498  0.00  0.00    +0.000 OA
ATOM     10  H   UNL     1       4.707   4.031  17.166  0.00  0.00    +0.000 HD
BRANCH   8  11
ATOM     11  C   UNL     1       6.978   5.243  17.092  0.00  0.00    +0.000 C 
BRANCH  11  12
ATOM     12  N   UNL     1       7.927   4.163  16.743  0.00  0.00    +0.000 NA
ATOM     13  H   UNL     1       7.507   3.251  16.908  0.00  0.00    +0.000 HD
ATOM     14  H   UNL     1       8.735   4.224  17.363  0.00  0.00    +0.000 HD
ENDBRANCH  11  12
BRANCH  11  15
ATOM     15  C   UNL     1       5.991   5.590  15.955  0.00  0.00    +0.000 C 
BRANCH  15  16
ATOM     16  C   UNL     1       6.341   5.011  14.602  0.00  0.00    +0.000 A 
ATOM     17  C   UNL     1       5.547   4.002  14.036  0.00  0.00    +0.000 A 
ATOM     18  C   UNL     1       5.871   3.456  12.792  0.00  0.00    +0.000 A 
ATOM     19  C   UNL     1       6.985   3.917  12.097  0.00  0.00    +0.000 A 
ATOM     20  C   UNL     1       7.770   4.933  12.639  0.00  0.00    +0.000 A 
ATOM     21  C   UNL     1       7.448   5.482  13.882  0.00  0.00    +0.000 A 
ENDBRANCH  15  16
ENDBRANCH  11  15
ENDBRANCH   8  11
ENDBRANCH   1   7
BRANCH   1  22
ATOM     22  C   UNL     1       2.682   4.085  18.927  0.00  0.00    +0.000 C 
BRANCH  22  23
ATOM     23  C   UNL     1       2.232   5.328  19.647  0.00  0.00    +0.000 A 
ATOM     24  C   UNL     1       1.754   5.428  20.941  0.00  0.00    +0.000 A 
ATOM     25  N   UNL     1       1.491   6.745  21.206  0.00  0.00    +0.000 N 
ATOM     26  C   UNL     1       1.731   7.510  20.091  0.00  0.00    +0.000 A 
ATOM     27  C   UNL     1       1.572   8.887  19.893  0.00  0.00    +0.000 A 
ATOM     28  C   UNL     1       1.863   9.397  18.626  0.00  0.00    +0.000 A 
ATOM     29  C   UNL     1       2.306   8.564  17.602  0.00  0.00    +0.000 A 
ATOM     30  C   UNL     1       2.478   7.192  17.824  0.00  0.00    +0.000 A 
ATOM     31  C   UNL     1       2.185   6.648  19.092  0.00  0.00    +0.000 A 
ATOM     32  H   UNL     1       1.145   7.106  22.085  0.00  0.00    +0.000 HD
ENDBRANCH  22  23
ENDBRANCH   1  22
TORSDOF 8
ENDMDL
MODEL 2
REMARK VINA RESULT:      -8.2      4.796      6.585
REMARK  Name = 
REMARK  8 active torsions:
REMARK  status: ('A' for Active; 'I' for Inactive)
REMARK    1  A    between atoms: C_2  and  C_4
REMARK    2  A    between atoms: C_4  and  C_5
REMARK    3  A    between atoms: C_4  and  N_15
REMARK    4  A    between atoms: C_5  and  C_6
REMARK    5  A    between atoms: C_16  and  C_18
REMARK    6  A    between atoms: C_18  and  N_19
REMARK    7  A    between atoms: C_18  and  C_20
REMARK    8  A    between atoms: C_20  and  C_21
REMARK                            x       y       z     vdW  Elec       q    Type
REMARK                         _______ _______ _______ _____ _____    ______ ____
ROOT
ATOM      1  C   UNL     1       6.378   6.400  17.125  0.00  0.00    +0.000 C 
ENDROOT
BRANCH   1   3
ATOM      2  N   UNL     1       7.817   4.400  17.104  0.00  0.00    +0.000 N 
ATOM      3  C   UNL     1       7.246   5.387  16.348  0.00  0.00    +0.000 C 
ATOM      4  O   UNL     1       7.396   5.397  15.132  0.00  0.00    +0.000 OA
ATOM      5  H   UNL     1       8.314   3.662  16.624  0.00  0.00    +0.000 HD
ATOM      6  H   UNL     1       7.550   4.268  18.075  0.00  0.00    +0.000 HD
ENDBRANCH   1   3
BRANCH   1   7
ATOM      7  N   UNL     1       7.045   7.706  17.155  0.00  0.00    +0.000 N 
ATOM      8  C   UNL     1       8.019   8.030  18.072  0.00  0.00    +0.000 C 
ATOM      9  O   UNL     1       8.453   7.214  18.887  0.00  0.00    +0.000 OA
ATOM     10  H   UNL     1       6.699   8.418  16.526  0.00  0.00    +0.000 HD
BRANCH   8  11
ATOM     11  C   UNL     1       8.576   9.464  17.946  0.00  0.00    +0.000 C 
BRANCH  11  12
ATOM     12  N   UNL     1       7.476  10.359  17.524  0.00  0.00    +0.000 NA
ATOM     13  H   UNL     1       7.797  11.006  16.807  0.00  0.00    +0.000 HD
ATOM     14  H   UNL     1       7.194  10.931  18.321  0.00  0.00    +0.000 HD
ENDBRANCH  11  12
BRANCH  11  15
ATOM     15  C   UNL     1       9.245   9.892  19.272  0.00  0.00    +0.000 C 
BRANCH  15  16
ATOM     16  C   UNL     1      10.173  11.082  19.168  0.00  0.00    +0.000 A 
ATOM     17  C   UNL     1      10.433  11.877  20.294  0.00  0.00    +0.000 A 
ATOM     18  C   UNL     1      11.279  12.984  20.203  0.00  0.00    +0.000 A 
ATOM     19  C   UNL     1      11.881  13.304  18.989  0.00  0.00    +0.000 A 
ATOM     20  C   UNL     1      11.646  12.510  17.869  0.00  0.00    +0.000 A 
ATOM     21  C   UNL     1      10.801  11.402  17.956  0.00  0.00    +0.000 A 
ENDBRANCH  15  16
ENDBRANCH  11  15
ENDBRANCH   8  11
ENDBRANCH   1   7
BRANCH   1  22
ATOM     22  C   UNL     1       4.984   6.492  16.487  0.00  0.00    +0.000 C 
BRANCH  22  23
ATOM     23  C   UNL     1       3.842   6.192  17.421  0.00  0.00    +0.000 A 
ATOM     24  C   UNL     1       3.156   7.079  18.230  0.00  0.00    +0.000 A 
ATOM     25  N   UNL     1       2.172   6.393  18.890  0.00  0.00    +0.000 N 
ATOM     26  C   UNL     1       2.233   5.057  18.577  0.00  0.00    +0.000 A 
ATOM     27  C   UNL     1       1.453   3.989  19.036  0.00  0.00    +0.000 A 
ATOM     28  C   UNL     1       1.766   2.710  18.568  0.00  0.00    +0.000 A 
ATOM     29  C   UNL     1       2.811   2.512  17.669  0.00  0.00    +0.000 A 
ATOM     30  C   UNL     1       3.568   3.595  17.206  0.00  0.00    +0.000 A 
ATOM     31  C   UNL     1       3.278   4.897  17.667  0.00  0.00    +0.000 A 
ATOM     32  H   UNL     1       1.510   6.800  19.536  0.00  0.00    +0.000 HD
ENDBRANCH  22  23
ENDBRANCH   1  22
TORSDOF 8
ENDMDL
MODEL 3
REMARK VINA RESULT:      -8.2      4.751      6.482
REMARK  Name = 
REMARK  8 active torsions:
REMARK  status: ('A' for Active; 'I' for Inactive)
REMARK    1  A    between atoms: C_2  and  C_4
REMARK    2  A    between atoms: C_4  and  C_5
REMARK    3  A    between atoms: C_4  and  N_15
REMARK    4  A    between atoms: C_5  and  C_6
REMARK    5  A    between atoms: C_16  and  C_18
REMARK    6  A    between atoms: C_18  and  N_19
REMARK    7  A    between atoms: C_18  and  C_20
REMARK    8  A    between atoms: C_20  and  C_21
REMARK                            x       y       z     vdW  Elec       q    Type
REMARK                         _______ _______ _______ _____ _____    ______ ____
ROOT
ATOM      1  C   UNL     1       6.373   6.331  17.324  0.00  0.00    +0.000 C 
ENDROOT
BRANCH   1   3
ATOM      2  N   UNL     1       7.845   4.364  17.142  0.00  0.00    +0.000 N 
ATOM      3  C   UNL     1       7.205   5.361  16.459  0.00  0.00    +0.000 C 
ATOM      4  O   UNL     1       7.271   5.410  15.235  0.00  0.00    +0.000 OA
ATOM      5  H   UNL     1       8.322   3.651  16.606  0.00  0.00    +0.000 HD
ATOM      6  H   UNL     1       7.648   4.197  18.125  0.00  0.00    +0.000 HD
ENDBRANCH   1   3
BRANCH   1   7
ATOM      7  N   UNL     1       6.981   7.665  17.299  0.00  0.00    +0.000 N 
ATOM      8  C   UNL     1       8.019   8.034  18.125  0.00  0.00    +0.000 C 
ATOM      9  O   UNL     1       8.560   7.239  18.894  0.00  0.00    +0.000 OA
ATOM     10  H   UNL     1       6.548   8.361  16.705  0.00  0.00    +0.000 HD
BRANCH   8  11
ATOM     11  C   UNL     1       8.497   9.491  17.954  0.00  0.00    +0.000 C 
BRANCH  11  12
ATOM     12  N   UNL     1       7.345  10.317  17.529  0.00  0.00    +0.000 NA
ATOM     13  H   UNL     1       7.623  11.289  17.419  0.00  0.00    +0.000 HD
ATOM     14  H   UNL     1       6.641  10.302  18.268  0.00  0.00    +0.000 HD
ENDBRANCH  11  12
BRANCH  11  15
ATOM     15  C   UNL     1       9.164   9.987  19.257  0.00  0.00    +0.000 C 
BRANCH  15  16
ATOM     16  C   UNL     1      10.213  11.061  19.073  0.00  0.00    +0.000 A 
ATOM     17  C   UNL     1      10.622  11.439  17.785  0.00  0.00    +0.000 A 
ATOM     18  C   UNL     1      11.598  12.422  17.608  0.00  0.00    +0.000 A 
ATOM     19  C   UNL     1      12.168  13.044  18.715  0.00  0.00    +0.000 A 
ATOM     20  C   UNL     1      11.756  12.692  19.998  0.00  0.00    +0.000 A 
ATOM     21  C   UNL     1      10.780  11.710  20.179  0.00  0.00    +0.000 A 
ENDBRANCH  15  16
ENDBRANCH  11  15
ENDBRANCH   8  11
ENDBRANCH   1   7
BRANCH   1  22
ATOM     22  C   UNL     1       4.920   6.362  16.827  0.00  0.00    +0.000 C 
BRANCH  22  23
ATOM     23  C   UNL     1       4.062   5.225  17.314  0.00  0.00    +0.000 A 
ATOM     24  C   UNL     1       3.921   3.971  16.749  0.00  0.00    +0.000 A 
ATOM     25  N   UNL     1       3.070   3.236  17.530  0.00  0.00    +0.000 N 
ATOM     26  C   UNL     1       2.600   4.002  18.569  0.00  0.00    +0.000 A 
ATOM     27  C   UNL     1       1.694   3.679  19.587  0.00  0.00    +0.000 A 
ATOM     28  C   UNL     1       1.365   4.680  20.503  0.00  0.00    +0.000 A 
ATOM     29  C   UNL     1       1.930   5.950  20.411  0.00  0.00    +0.000 A 
ATOM     30  C   UNL     1       2.849   6.249  19.398  0.00  0.00    +0.000 A 
ATOM     31  C   UNL     1       3.194   5.258  18.454  0.00  0.00    +0.000 A 
ATOM     32  H   UNL     1       2.802   2.277  17.358  0.00  0.00    +0.000 HD
ENDBRANCH  22  23
ENDBRANCH   1  22
TORSDOF 8
ENDMDL
MODEL 4
REMARK VINA RESULT:      -7.9      3.232      7.537
REMARK  Name = 
REMARK  8 active torsions:
REMARK  status: ('A' for Active; 'I' for Inactive)
REMARK    1  A    between atoms: C_2  and  C_4
REMARK    2  A    between atoms: C_4  and  C_5
REMARK    3  A    between atoms: C_4  and  N_15
REMARK    4  A    between atoms: C_5  and  C_6
REMARK    5  A    between atoms: C_16  and  C_18
REMARK    6  A    between atoms: C_18  and  N_19
REMARK    7  A    between atoms: C_18  and  C_20
REMARK    8  A    between atoms: C_20  and  C_21
REMARK                            x       y       z     vdW  Elec       q    Type
REMARK                         _______ _______ _______ _____ _____    ______ ____
ROOT
ATOM      1  C   UNL     1       4.158   6.841  17.613  0.00  0.00    +0.000 C 
ENDROOT
BRANCH   1   3
ATOM      2  N   UNL     1       6.519   7.242  17.030  0.00  0.00    +0.000 N 
ATOM      3  C   UNL     1       5.263   6.997  16.546  0.00  0.00    +0.000 C 
ATOM      4  O   UNL     1       5.082   6.864  15.341  0.00  0.00    +0.000 OA
ATOM      5  H   UNL     1       7.287   7.256  16.373  0.00  0.00    +0.000 HD
ATOM      6  H   UNL     1       6.717   7.166  18.024  0.00  0.00    +0.000 HD
ENDBRANCH   1   3
BRANCH   1   7
ATOM      7  N   UNL     1       3.238   7.981  17.546  0.00  0.00    +0.000 N 
ATOM      8  C   UNL     1       2.332   8.274  18.539  0.00  0.00    +0.000 C 
ATOM      9  O   UNL     1       2.284   7.639  19.593  0.00  0.00    +0.000 OA
ATOM     10  H   UNL     1       3.220   8.512  16.684  0.00  0.00    +0.000 HD
BRANCH   8  11
ATOM     11  C   UNL     1       1.440   9.503  18.261  0.00  0.00    +0.000 C 
BRANCH  11  12
ATOM     12  N   UNL     1       2.245  10.514  17.540  0.00  0.00    +0.000 NA
ATOM     13  H   UNL     1       3.080  10.751  18.070  0.00  0.00    +0.000 HD
ATOM     14  H   UNL     1       1.699  11.373  17.465  0.00  0.00    +0.000 HD
ENDBRANCH  11  12
BRANCH  11  15
ATOM     15  C   UNL     1       0.165   9.073  17.501  0.00  0.00    +0.000 C 
BRANCH  15  16
ATOM     16  C   UNL     1      -1.047   9.947  17.734  0.00  0.00    +0.000 A 
ATOM     17  C   UNL     1      -2.135   9.899  16.849  0.00  0.00    +0.000 A 
ATOM     18  C   UNL     1      -3.252  10.712  17.051  0.00  0.00    +0.000 A 
ATOM     19  C   UNL     1      -3.299  11.573  18.143  0.00  0.00    +0.000 A 
ATOM     20  C   UNL     1      -2.234  11.615  19.041  0.00  0.00    +0.000 A 
ATOM     21  C   UNL     1      -1.115  10.803  18.842  0.00  0.00    +0.000 A 
ENDBRANCH  15  16
ENDBRANCH  11  15
ENDBRANCH   8  11
ENDBRANCH   1   7
BRANCH   1  22
ATOM     22  C   UNL     1       3.422   5.508  17.412  0.00  0.00    +0.000 C 
BRANCH  22  23
ATOM     23  C   UNL     1       3.769   4.439  18.414  0.00  0.00    +0.000 A 
ATOM     24  C   UNL     1       4.952   3.730  18.516  0.00  0.00    +0.000 A 
ATOM     25  N   UNL     1       4.857   2.880  19.586  0.00  0.00    +0.000 N 
ATOM     26  C   UNL     1       3.611   2.973  20.156  0.00  0.00    +0.000 A 
ATOM     27  C   UNL     1       3.064   2.276  21.240  0.00  0.00    +0.000 A 
ATOM     28  C   UNL     1       1.739   2.552  21.586  0.00  0.00    +0.000 A 
ATOM     29  C   UNL     1       0.996   3.496  20.880  0.00  0.00    +0.000 A 
ATOM     30  C   UNL     1       1.566   4.197  19.811  0.00  0.00    +0.000 A 
ATOM     31  C   UNL     1       2.901   3.933  19.436  0.00  0.00    +0.000 A 
ATOM     32  H   UNL     1       5.586   2.254  19.900  0.00  0.00    +0.000 HD
ENDBRANCH  22  23
ENDBRANCH   1  22
TORSDOF 8
ENDMDL
MODEL 5
REMARK VINA RESULT:      -7.8      4.364      6.258
REMARK  Name = 
REMARK  8 active torsions:
REMARK  status: ('A' for Active; 'I' for Inactive)
REMARK    1  A    between atoms: C_2  and  C_4
REMARK    2  A    between atoms: C_4  and  C_5
REMARK    3  A    between atoms: C_4  and  N_15
REMARK    4  A    between atoms: C_5  and  C_6
REMARK    5  A    between atoms: C_16  and  C_18
REMARK    6  A    between atoms: C_18  and  N_19
REMARK    7  A    between atoms: C_18  and  C_20
REMARK    8  A    between atoms: C_20  and  C_21
REMARK                            x       y       z     vdW  Elec       q    Type
REMARK                         _______ _______ _______ _____ _____    ______ ____
ROOT
ATOM      1  C   UNL     1       6.301   5.502  16.626  0.00  0.00    +0.000 C 
ENDROOT
BRANCH   1   3
ATOM      2  N   UNL     1       6.248   3.593  15.068  0.00  0.00    +0.000 N 
ATOM      3  C   UNL     1       6.829   4.797  15.358  0.00  0.00    +0.000 C 
ATOM      4  O   UNL     1       7.672   5.272  14.605  0.00  0.00    +0.000 OA
ATOM      5  H   UNL     1       6.495   3.144  14.197  0.00  0.00    +0.000 HD
ATOM      6  H   UNL     1       5.422   3.280  15.572  0.00  0.00    +0.000 HD
ENDBRANCH   1   3
BRANCH   1   7
ATOM      7  N   UNL     1       6.907   6.832  16.744  0.00  0.00    +0.000 N 
ATOM      8  C   UNL     1       7.668   7.217  17.825  0.00  0.00    +0.000 C 
ATOM      9  O   UNL     1       7.956   6.441  18.736  0.00  0.00    +0.000 OA
ATOM     10  H   UNL     1       6.672   7.514  16.034  0.00  0.00    +0.000 HD
BRANCH   8  11
ATOM     11  C   UNL     1       8.193   8.667  17.763  0.00  0.00    +0.000 C 
BRANCH  11  12
ATOM     12  N   UNL     1       7.059   9.565  17.448  0.00  0.00    +0.000 NA
ATOM     13  H   UNL     1       6.441   9.655  18.250  0.00  0.00    +0.000 HD
ATOM     14  H   UNL     1       6.504   9.142  16.703  0.00  0.00    +0.000 HD
ENDBRANCH  11  12
BRANCH  11  15
ATOM     15  C   UNL     1       8.916   9.026  19.081  0.00  0.00    +0.000 C 
BRANCH  15  16
ATOM     16  C   UNL     1       9.458  10.436  19.153  0.00  0.00    +0.000 A 
ATOM     17  C   UNL     1       9.416  11.150  20.360  0.00  0.00    +0.000 A 
ATOM     18  C   UNL     1       9.904  12.457  20.431  0.00  0.00    +0.000 A 
ATOM     19  C   UNL     1      10.446  13.061  19.300  0.00  0.00    +0.000 A 
ATOM     20  C   UNL     1      10.512  12.355  18.101  0.00  0.00    +0.000 A 
ATOM     21  C   UNL     1      10.026  11.048  18.026  0.00  0.00    +0.000 A 
ENDBRANCH  15  16
ENDBRANCH  11  15
ENDBRANCH   8  11
ENDBRANCH   1   7
BRANCH   1  22
ATOM     22  C   UNL     1       4.768   5.582  16.580  0.00  0.00    +0.000 C 
BRANCH  22  23
ATOM     23  C   UNL     1       4.087   5.400  17.910  0.00  0.00    +0.000 A 
ATOM     24  C   UNL     1       4.275   6.139  19.064  0.00  0.00    +0.000 A 
ATOM     25  N   UNL     1       3.432   5.659  20.030  0.00  0.00    +0.000 N 
ATOM     26  C   UNL     1       2.732   4.577  19.553  0.00  0.00    +0.000 A 
ATOM     27  C   UNL     1       1.793   3.759  20.194  0.00  0.00    +0.000 A 
ATOM     28  C   UNL     1       1.260   2.692  19.467  0.00  0.00    +0.000 A 
ATOM     29  C   UNL     1       1.644   2.460  18.148  0.00  0.00    +0.000 A 
ATOM     30  C   UNL     1       2.570   3.300  17.518  0.00  0.00    +0.000 A 
ATOM     31  C   UNL     1       3.130   4.381  18.231  0.00  0.00    +0.000 A 
ATOM     32  H   UNL     1       3.350   6.025  20.968  0.00  0.00    +0.000 HD
ENDBRANCH  22  23
ENDBRANCH   1  22
TORSDOF 8
ENDMDL
MODEL 6
REMARK VINA RESULT:      -7.8      4.799      6.729
REMARK  Name = 
REMARK  8 active torsions:
REMARK  status: ('A' for Active; 'I' for Inactive)
REMARK    1  A    between atoms: C_2  and  C_4
REMARK    2  A    between atoms: C_4  and  C_5
REMARK    3  A    between atoms: C_4  and  N_15
REMARK    4  A    between atoms: C_5  and  C_6
REMARK    5  A    between atoms: C_16  and  C_18
REMARK    6  A    between atoms: C_18  and  N_19
REMARK    7  A    between atoms: C_18  and  C_20
REMARK    8  A    between atoms: C_20  and  C_21
REMARK                            x       y       z     vdW  Elec       q    Type
REMARK                         _______ _______ _______ _____ _____    ______ ____
ROOT
ATOM      1  C   UNL     1       6.710   6.226  17.179  0.00  0.00    +0.000 C 
ENDROOT
BRANCH   1   3
ATOM      2  N   UNL     1       5.627   5.886  14.992  0.00  0.00    +0.000 N 
ATOM      3  C   UNL     1       6.725   5.615  15.762  0.00  0.00    +0.000 C 
ATOM      4  O   UNL     1       7.659   4.970  15.298  0.00  0.00    +0.000 OA
ATOM      5  H   UNL     1       5.639   5.587  14.027  0.00  0.00    +0.000 HD
ATOM      6  H   UNL     1       4.939   6.571  15.292  0.00  0.00    +0.000 HD
ENDBRANCH   1   3
BRANCH   1   7
ATOM      7  N   UNL     1       7.236   7.595  17.136  0.00  0.00    +0.000 N 
ATOM      8  C   UNL     1       8.111   8.093  18.074  0.00  0.00    +0.000 C 
ATOM      9  O   UNL     1       8.573   7.395  18.978  0.00  0.00    +0.000 OA
ATOM     10  H   UNL     1       6.860   8.214  16.429  0.00  0.00    +0.000 HD
BRANCH   8  11
ATOM     11  C   UNL     1       8.524   9.564  17.858  0.00  0.00    +0.000 C 
BRANCH  11  12
ATOM     12  N   UNL     1       7.346  10.316  17.369  0.00  0.00    +0.000 NA
ATOM     13  H   UNL     1       7.116  11.074  18.007  0.00  0.00    +0.000 HD
ATOM     14  H   UNL     1       6.539   9.691  17.362  0.00  0.00    +0.000 HD
ENDBRANCH  11  12
BRANCH  11  15
ATOM     15  C   UNL     1       9.129  10.142  19.157  0.00  0.00    +0.000 C 
BRANCH  15  16
ATOM     16  C   UNL     1      10.247  11.141  18.957  0.00  0.00    +0.000 A 
ATOM     17  C   UNL     1      10.321  11.894  17.775  0.00  0.00    +0.000 A 
ATOM     18  C   UNL     1      11.357  12.809  17.578  0.00  0.00    +0.000 A 
ATOM     19  C   UNL     1      12.324  12.989  18.562  0.00  0.00    +0.000 A 
ATOM     20  C   UNL     1      12.250  12.262  19.749  0.00  0.00    +0.000 A 
ATOM     21  C   UNL     1      11.215  11.346  19.949  0.00  0.00    +0.000 A 
ENDBRANCH  15  16
ENDBRANCH  11  15
ENDBRANCH   8  11
ENDBRANCH   1   7
BRANCH   1  22
ATOM     22  C   UNL     1       5.285   6.187  17.751  0.00  0.00    +0.000 C 
BRANCH  22  23
ATOM     23  C   UNL     1       4.895   4.876  18.380  0.00  0.00    +0.000 A 
ATOM     24  C   UNL     1       5.710   3.988  19.058  0.00  0.00    +0.000 A 
ATOM     25  N   UNL     1       4.943   2.941  19.493  0.00  0.00    +0.000 N 
ATOM     26  C   UNL     1       3.647   3.091  19.065  0.00  0.00    +0.000 A 
ATOM     27  C   UNL     1       2.536   2.257  19.246  0.00  0.00    +0.000 A 
ATOM     28  C   UNL     1       1.330   2.649  18.660  0.00  0.00    +0.000 A 
ATOM     29  C   UNL     1       1.238   3.833  17.932  0.00  0.00    +0.000 A 
ATOM     30  C   UNL     1       2.354   4.663  17.778  0.00  0.00    +0.000 A 
ATOM     31  C   UNL     1       3.587   4.289  18.353  0.00  0.00    +0.000 A 
ATOM     32  H   UNL     1       5.281   2.154  20.031  0.00  0.00    +0.000 HD
ENDBRANCH  22  23
ENDBRANCH   1  22
TORSDOF 8
ENDMDL
MODEL 7
REMARK VINA RESULT:      -7.8      4.734      6.527
REMARK  Name = 
REMARK  8 active torsions:
REMARK  status: ('A' for Active; 'I' for Inactive)
REMARK    1  A    between atoms: C_2  and  C_4
REMARK    2  A    between atoms: C_4  and  C_5
REMARK    3  A    between atoms: C_4  and  N_15
REMARK    4  A    between atoms: C_5  and  C_6
REMARK    5  A    between atoms: C_16  and  C_18
REMARK    6  A    between atoms: C_18  and  N_19
REMARK    7  A    between atoms: C_18  and  C_20
REMARK    8  A    between atoms: C_20  and  C_21
REMARK                            x       y       z     vdW  Elec       q    Type
REMARK                         _______ _______ _______ _____ _____    ______ ____
ROOT
ATOM      1  C   UNL     1       6.407   6.232  17.232  0.00  0.00    +0.000 C 
ENDROOT
BRANCH   1   3
ATOM      2  N   UNL     1       7.212   5.465  15.033  0.00  0.00    +0.000 N 
ATOM      3  C   UNL     1       7.231   5.241  16.382  0.00  0.00    +0.000 C 
ATOM      4  O   UNL     1       7.914   4.335  16.847  0.00  0.00    +0.000 OA
ATOM      5  H   UNL     1       7.813   4.900  14.449  0.00  0.00    +0.000 HD
ATOM      6  H   UNL     1       6.810   6.317  14.653  0.00  0.00    +0.000 HD
ENDBRANCH   1   3
BRANCH   1   7
ATOM      7  N   UNL     1       7.039   7.555  17.203  0.00  0.00    +0.000 N 
ATOM      8  C   UNL     1       8.003   7.947  18.104  0.00  0.00    +0.000 C 
ATOM      9  O   UNL     1       8.458   7.181  18.954  0.00  0.00    +0.000 OA
ATOM     10  H   UNL     1       6.674   8.229  16.541  0.00  0.00    +0.000 HD
BRANCH   8  11
ATOM     11  C   UNL     1       8.520   9.388  17.913  0.00  0.00    +0.000 C 
BRANCH  11  12
ATOM     12  N   UNL     1       7.381  10.250  17.525  0.00  0.00    +0.000 NA
ATOM     13  H   UNL     1       7.713  11.114  17.105  0.00  0.00    +0.000 HD
ATOM     14  H   UNL     1       6.871  10.517  18.368  0.00  0.00    +0.000 HD
ENDBRANCH  11  12
BRANCH  11  15
ATOM     15  C   UNL     1       9.247   9.865  19.190  0.00  0.00    +0.000 C 
BRANCH  15  16
ATOM     16  C   UNL     1       9.988  11.177  19.057  0.00  0.00    +0.000 A 
ATOM     17  C   UNL     1       9.798  12.197  20.001  0.00  0.00    +0.000 A 
ATOM     18  C   UNL     1      10.469  13.415  19.878  0.00  0.00    +0.000 A 
ATOM     19  C   UNL     1      11.344  13.624  18.816  0.00  0.00    +0.000 A 
ATOM     20  C   UNL     1      11.557  12.612  17.883  0.00  0.00    +0.000 A 
ATOM     21  C   UNL     1      10.887  11.392  18.003  0.00  0.00    +0.000 A 
ENDBRANCH  15  16
ENDBRANCH  11  15
ENDBRANCH   8  11
ENDBRANCH   1   7
BRANCH   1  22
ATOM     22  C   UNL     1       4.961   6.285  16.719  0.00  0.00    +0.000 C 
BRANCH  22  23
ATOM     23  C   UNL     1       4.073   5.178  17.222  0.00  0.00    +0.000 A 
ATOM     24  C   UNL     1       3.878   3.929  16.660  0.00  0.00    +0.000 A 
ATOM     25  N   UNL     1       3.016   3.225  17.457  0.00  0.00    +0.000 N 
ATOM     26  C   UNL     1       2.591   4.006  18.504  0.00  0.00    +0.000 A 
ATOM     27  C   UNL     1       1.692   3.714  19.537  0.00  0.00    +0.000 A 
ATOM     28  C   UNL     1       1.415   4.727  20.459  0.00  0.00    +0.000 A 
ATOM     29  C   UNL     1       2.022   5.976  20.356  0.00  0.00    +0.000 A 
ATOM     30  C   UNL     1       2.933   6.243  19.327  0.00  0.00    +0.000 A 
ATOM     31  C   UNL     1       3.226   5.241  18.377  0.00  0.00    +0.000 A 
ATOM     32  H   UNL     1       2.712   2.275  17.290  0.00  0.00    +0.000 HD
ENDBRANCH  22  23
ENDBRANCH   1  22
TORSDOF 8
ENDMDL
MODEL 8
REMARK VINA RESULT:      -7.8      4.429      5.918
REMARK  Name = 
REMARK  8 active torsions:
REMARK  status: ('A' for Active; 'I' for Inactive)
REMARK    1  A    between atoms: C_2  and  C_4
REMARK    2  A    between atoms: C_4  and  C_5
REMARK    3  A    between atoms: C_4  and  N_15
REMARK    4  A    between atoms: C_5  and  C_6
REMARK    5  A    between atoms: C_16  and  C_18
REMARK    6  A    between atoms: C_18  and  N_19
REMARK    7  A    between atoms: C_18  and  C_20
REMARK    8  A    between atoms: C_20  and  C_21
REMARK                            x       y       z     vdW  Elec       q    Type
REMARK                         _______ _______ _______ _____ _____    ______ ____
ROOT
ATOM      1  C   UNL     1       6.203   5.831  16.861  0.00  0.00    +0.000 C 
ENDROOT
BRANCH   1   3
ATOM      2  N   UNL     1       6.156   3.848  15.400  0.00  0.00    +0.000 N 
ATOM      3  C   UNL     1       6.772   5.040  15.664  0.00  0.00    +0.000 C 
ATOM      4  O   UNL     1       7.677   5.440  14.940  0.00  0.00    +0.000 OA
ATOM      5  H   UNL     1       6.434   3.344  14.569  0.00  0.00    +0.000 HD
ATOM      6  H   UNL     1       5.290   3.595  15.868  0.00  0.00    +0.000 HD
ENDBRANCH   1   3
BRANCH   1   7
ATOM      7  N   UNL     1       6.856   7.142  16.946  0.00  0.00    +0.000 N 
ATOM      8  C   UNL     1       7.749   7.473  17.940  0.00  0.00    +0.000 C 
ATOM      9  O   UNL     1       8.121   6.659  18.786  0.00  0.00    +0.000 OA
ATOM     10  H   UNL     1       6.557   7.852  16.290  0.00  0.00    +0.000 HD
BRANCH   8  11
ATOM     11  C   UNL     1       8.303   8.911  17.860  0.00  0.00    +0.000 C 
BRANCH  11  12
ATOM     12  N   UNL     1       7.194   9.823  17.501  0.00  0.00    +0.000 NA
ATOM     13  H   UNL     1       6.562   9.375  16.842  0.00  0.00    +0.000 HD
ATOM     14  H   UNL     1       7.582  10.636  17.021  0.00  0.00    +0.000 HD
ENDBRANCH  11  12
BRANCH  11  15
ATOM     15  C   UNL     1       9.005   9.283  19.185  0.00  0.00    +0.000 C 
BRANCH  15  16
ATOM     16  C   UNL     1       9.718  10.618  19.182  0.00  0.00    +0.000 A 
ATOM     17  C   UNL     1       9.817  11.370  20.362  0.00  0.00    +0.000 A 
ATOM     18  C   UNL     1      10.463  12.608  20.363  0.00  0.00    +0.000 A 
ATOM     19  C   UNL     1      11.024  13.103  19.190  0.00  0.00    +0.000 A 
ATOM     20  C   UNL     1      10.951  12.356  18.016  0.00  0.00    +0.000 A 
ATOM     21  C   UNL     1      10.305  11.117  18.011  0.00  0.00    +0.000 A 
ENDBRANCH  15  16
ENDBRANCH  11  15
ENDBRANCH   8  11
ENDBRANCH   1   7
BRANCH   1  22
ATOM     22  C   UNL     1       4.679   5.967  16.722  0.00  0.00    +0.000 C 
BRANCH  22  23
ATOM     23  C   UNL     1       3.941   6.146  18.021  0.00  0.00    +0.000 A 
ATOM     24  C   UNL     1       3.971   5.321  19.131  0.00  0.00    +0.000 A 
ATOM     25  N   UNL     1       3.180   5.873  20.103  0.00  0.00    +0.000 N 
ATOM     26  C   UNL     1       2.581   7.017  19.635  0.00  0.00    +0.000 A 
ATOM     27  C   UNL     1       1.676   7.881  20.264  0.00  0.00    +0.000 A 
ATOM     28  C   UNL     1       1.195   8.964  19.525  0.00  0.00    +0.000 A 
ATOM     29  C   UNL     1       1.611   9.179  18.213  0.00  0.00    +0.000 A 
ATOM     30  C   UNL     1       2.530   8.315  17.607  0.00  0.00    +0.000 A 
ATOM     31  C   UNL     1       3.028   7.208  18.327  0.00  0.00    +0.000 A 
ATOM     32  H   UNL     1       3.033   5.486  21.025  0.00  0.00    +0.000 HD
ENDBRANCH  22  23
ENDBRANCH   1  22
TORSDOF 8
ENDMDL
MODEL 9
REMARK VINA RESULT:      -7.7      3.046      8.309
REMARK  Name = 
REMARK  8 active torsions:
REMARK  status: ('A' for Active; 'I' for Inactive)
REMARK    1  A    between atoms: C_2  and  C_4
REMARK    2  A    between atoms: C_4  and  C_5
REMARK    3  A    between atoms: C_4  and  N_15
REMARK    4  A    between atoms: C_5  and  C_6
REMARK    5  A    between atoms: C_16  and  C_18
REMARK    6  A    between atoms: C_18  and  N_19
REMARK    7  A    between atoms: C_18  and  C_20
REMARK    8  A    between atoms: C_20  and  C_21
REMARK                            x       y       z     vdW  Elec       q    Type
REMARK                         _______ _______ _______ _____ _____    ______ ____
ROOT
ATOM      1  C   UNL     1       2.043   5.450  20.221  0.00  0.00    +0.000 C 
ENDROOT
BRANCH   1   3
ATOM      2  N   UNL     1       0.555   3.487  20.288  0.00  0.00    +0.000 N 
ATOM      3  C   UNL     1       1.593   4.138  20.897  0.00  0.00    +0.000 C 
ATOM      4  O   UNL     1       2.134   3.647  21.882  0.00  0.00    +0.000 OA
ATOM      5  H   UNL     1       0.292   2.577  20.641  0.00  0.00    +0.000 HD
ATOM      6  H   UNL     1       0.225   3.778  19.372  0.00  0.00    +0.000 HD
ENDBRANCH   1   3
BRANCH   1   7
ATOM      7  N   UNL     1       1.597   6.598  21.018  0.00  0.00    +0.000 N 
ATOM      8  C   UNL     1       1.573   7.886  20.532  0.00  0.00    +0.000 C 
ATOM      9  O   UNL     1       1.854   8.152  19.363  0.00  0.00    +0.000 OA
ATOM     10  H   UNL     1       1.388   6.431  21.994  0.00  0.00    +0.000 HD
BRANCH   8  11
ATOM     11  C   UNL     1       1.093   8.950  21.542  0.00  0.00    +0.000 C 
BRANCH  11  12
ATOM     12  N   UNL     1       2.116   9.085  22.603  0.00  0.00    +0.000 NA
ATOM     13  H   UNL     1       2.121   8.263  23.201  0.00  0.00    +0.000 HD
ATOM     14  H   UNL     1       1.864   9.874  23.201  0.00  0.00    +0.000 HD
ENDBRANCH  11  12
BRANCH  11  15
ATOM     15  C   UNL     1       0.784  10.275  20.809  0.00  0.00    +0.000 C 
BRANCH  15  16
ATOM     16  C   UNL     1      -0.421  11.028  21.326  0.00  0.00    +0.000 A 
ATOM     17  C   UNL     1      -0.775  10.955  22.681  0.00  0.00    +0.000 A 
ATOM     18  C   UNL     1      -1.894  11.639  23.162  0.00  0.00    +0.000 A 
ATOM     19  C   UNL     1      -2.665  12.409  22.297  0.00  0.00    +0.000 A 
ATOM     20  C   UNL     1      -2.313  12.506  20.953  0.00  0.00    +0.000 A 
ATOM     21  C   UNL     1      -1.194  11.824  20.468  0.00  0.00    +0.000 A 
ENDBRANCH  15  16
ENDBRANCH  11  15
ENDBRANCH   8  11
ENDBRANCH   1   7
BRANCH   1  22
ATOM     22  C   UNL     1       3.568   5.448  20.037  0.00  0.00    +0.000 C 
BRANCH  22  23
ATOM     23  C   UNL     1       4.062   4.617  18.882  0.00  0.00    +0.000 A 
ATOM     24  C   UNL     1       4.199   3.242  18.829  0.00  0.00    +0.000 A 
ATOM     25  N   UNL     1       4.650   2.899  17.582  0.00  0.00    +0.000 N 
ATOM     26  C   UNL     1       4.869   4.027  16.830  0.00  0.00    +0.000 A 
ATOM     27  C   UNL     1       5.354   4.158  15.523  0.00  0.00    +0.000 A 
ATOM     28  C   UNL     1       5.512   5.449  15.016  0.00  0.00    +0.000 A 
ATOM     29  C   UNL     1       5.186   6.565  15.783  0.00  0.00    +0.000 A 
ATOM     30  C   UNL     1       4.685   6.416  17.082  0.00  0.00    +0.000 A 
ATOM     31  C   UNL     1       4.522   5.122  17.622  0.00  0.00    +0.000 A 
ATOM     32  H   UNL     1       4.823   1.956  17.263  0.00  0.00    +0.000 HD
ENDBRANCH  22  23
ENDBRANCH   1  22
TORSDOF 8
ENDMDL
