MODEL 1
REMARK VINA RESULT:      -8.0      0.000      0.000
REMARK  Name = 
REMARK  8 active torsions:
REMARK  status: ('A' for Active; 'I' for Inactive)
REMARK    1  A    between atoms: C_1  and  C_2
REMARK    2  A    between atoms: C_7  and  C_8
REMARK    3  A    between atoms: C_11  and  C_12
REMARK    4  A    between atoms: C_13  and  C_14
REMARK    5  A    between atoms: N_16  and  C_17
REMARK    6  A    between atoms: C_17  and  C_18
REMARK    7  A    between atoms: C_18  and  C_19
REMARK    8  A    between atoms: C_19  and  C_20
REMARK                            x       y       z     vdW  Elec       q    Type
REMARK                         _______ _______ _______ _____ _____    ______ ____
ROOT
ATOM      1  C   UNL     1       4.474   4.106  19.367  0.00  0.00    +0.000 A 
ATOM      2  O   UNL     1       4.865   2.903  19.872  0.00  0.00    +0.000 OA
ATOM      3  N   UNL     1       3.863   2.354  20.636  0.00  0.00    +0.000 NA
ATOM      4  C   UNL     1       2.864   3.241  20.615  0.00  0.00    +0.000 A 
ATOM      5  C   UNL     1       1.638   2.937  21.387  0.00  0.00    +0.000 C 
ATOM      6  C   UNL     1       3.187   4.375  19.810  0.00  0.00    +0.000 A 
ENDROOT
BRANCH   1  13
ATOM      7  C   UNL     1       4.519   4.194  16.330  0.00  0.00    +0.000 C 
ATOM      8  C   UNL     1       5.561   4.847  17.200  0.00  0.00    +0.000 A 
ATOM      9  C   UNL     1       6.630   5.505  16.558  0.00  0.00    +0.000 A 
ATOM     10  C   UNL     1       7.615   6.164  17.291  0.00  0.00    +0.000 A 
ATOM     11  C   UNL     1       7.553   6.171  18.676  0.00  0.00    +0.000 A 
ATOM     12  C   UNL     1       6.517   5.501  19.327  0.00  0.00    +0.000 A 
ATOM     13  C   UNL     1       5.506   4.828  18.614  0.00  0.00    +0.000 A 
ENDBRANCH   1  13
BRANCH   6  14
ATOM     14  C   UNL     1       2.413   5.558  19.485  0.00  0.00    +0.000 C 
ATOM     15  O   UNL     1       2.102   5.845  18.334  0.00  0.00    +0.000 OA
ATOM     16  N   UNL     1       2.102   6.370  20.549  0.00  0.00    +0.000 N 
ATOM     17  H   UNL     1       2.542   6.194  21.447  0.00  0.00    +0.000 HD
BRANCH  16  18
ATOM     18  C   UNL     1       1.583   7.715  20.353  0.00  0.00    +0.000 C 
BRANCH  18  19
ATOM     19  C   UNL     1       1.603   8.547  21.632  0.00  0.00    +0.000 C 
BRANCH  19  20
ATOM     20  C   UNL     1       0.458   9.570  21.764  0.00  0.00    +0.000 C 
ATOM     21  C   UNL     1      -0.355   9.384  23.040  0.00  0.00    +0.000 C 
ATOM     22  O   UNL     1      -0.407   9.450  20.623  0.00  0.00    +0.000 OA
ATOM     23  C   UNL     1      -0.250  10.657  19.875  0.00  0.00    +0.000 C 
ATOM     24  C   UNL     1       0.969  11.336  20.438  0.00  0.00    +0.000 C 
ATOM     25  O   UNL     1       1.016  10.894  21.790  0.00  0.00    +0.000 OA
ENDBRANCH  19  20
ENDBRANCH  18  19
ENDBRANCH  16  18
ENDBRANCH   6  14
TORSDOF 5
ENDMDL
MODEL 2
REMARK VINA RESULT:      -7.8      2.171      4.354
REMARK  Name = 
REMARK  8 active torsions:
REMARK  status: ('A' for Active; 'I' for Inactive)
REMARK    1  A    between atoms: C_1  and  C_2
REMARK    2  A    between atoms: C_7  and  C_8
REMARK    3  A    between atoms: C_11  and  C_12
REMARK    4  A    between atoms: C_13  and  C_14
REMARK    5  A    between atoms: N_16  and  C_17
REMARK    6  A    between atoms: C_17  and  C_18
REMARK    7  A    between atoms: C_18  and  C_19
REMARK    8  A    between atoms: C_19  and  C_20
REMARK                            x       y       z     vdW  Elec       q    Type
REMARK                         _______ _______ _______ _____ _____    ______ ____
ROOT
ATOM      1  C   UNL     1       4.562   4.691  18.801  0.00  0.00    +0.000 A 
ATOM      2  O   UNL     1       5.588   4.062  19.438  0.00  0.00    +0.000 OA
ATOM      3  N   UNL     1       6.761   4.755  19.258  0.00  0.00    +0.000 NA
ATOM      4  C   UNL     1       6.451   5.801  18.487  0.00  0.00    +0.000 A 
ATOM      5  C   UNL     1       7.533   6.728  18.091  0.00  0.00    +0.000 C 
ATOM      6  C   UNL     1       5.058   5.824  18.173  0.00  0.00    +0.000 A 
ENDROOT
BRANCH   1  13
ATOM      7  C   UNL     1       2.337   5.461  20.723  0.00  0.00    +0.000 C 
ATOM      8  C   UNL     1       2.246   4.306  19.760  0.00  0.00    +0.000 A 
ATOM      9  C   UNL     1       1.072   3.526  19.783  0.00  0.00    +0.000 A 
ATOM     10  C   UNL     1       0.895   2.463  18.899  0.00  0.00    +0.000 A 
ATOM     11  C   UNL     1       1.891   2.157  17.983  0.00  0.00    +0.000 A 
ATOM     12  C   UNL     1       3.071   2.902  17.967  0.00  0.00    +0.000 A 
ATOM     13  C   UNL     1       3.277   3.983  18.845  0.00  0.00    +0.000 A 
ENDBRANCH   1  13
BRANCH   6  14
ATOM     14  C   UNL     1       4.278   6.767  17.394  0.00  0.00    +0.000 C 
ATOM     15  O   UNL     1       4.514   6.998  16.214  0.00  0.00    +0.000 OA
ATOM     16  N   UNL     1       3.292   7.431  18.085  0.00  0.00    +0.000 N 
ATOM     17  H   UNL     1       3.261   7.349  19.097  0.00  0.00    +0.000 HD
BRANCH  16  18
ATOM     18  C   UNL     1       2.621   8.593  17.524  0.00  0.00    +0.000 C 
BRANCH  18  19
ATOM     19  C   UNL     1       1.261   8.854  18.165  0.00  0.00    +0.000 C 
BRANCH  19  20
ATOM     20  C   UNL     1       1.052  10.287  18.693  0.00  0.00    +0.000 C 
ATOM     21  C   UNL     1       2.117  11.259  18.196  0.00  0.00    +0.000 C 
ATOM     22  O   UNL     1       1.064  10.259  20.130  0.00  0.00    +0.000 OA
ATOM     23  C   UNL     1      -0.265  10.581  20.545  0.00  0.00    +0.000 C 
ATOM     24  C   UNL     1      -1.120  10.474  19.311  0.00  0.00    +0.000 C 
ATOM     25  O   UNL     1      -0.224  10.769  18.245  0.00  0.00    +0.000 OA
ENDBRANCH  19  20
ENDBRANCH  18  19
ENDBRANCH  16  18
ENDBRANCH   6  14
TORSDOF 5
ENDMDL
MODEL 3
REMARK VINA RESULT:      -7.8      0.566      1.533
REMARK  Name = 
REMARK  8 active torsions:
REMARK  status: ('A' for Active; 'I' for Inactive)
REMARK    1  A    between atoms: C_1  and  C_2
REMARK    2  A    between atoms: C_7  and  C_8
REMARK    3  A    between atoms: C_11  and  C_12
REMARK    4  A    between atoms: C_13  and  C_14
REMARK    5  A    between atoms: N_16  and  C_17
REMARK    6  A    between atoms: C_17  and  C_18
REMARK    7  A    between atoms: C_18  and  C_19
REMARK    8  A    between atoms: C_19  and  C_20
REMARK                            x       y       z     vdW  Elec       q    Type
REMARK                         _______ _______ _______ _____ _____    ______ ____
ROOT
ATOM      1  C   UNL     1       4.331   3.872  18.877  0.00  0.00    +0.000 A 
ATOM      2  O   UNL     1       4.744   2.709  19.454  0.00  0.00    +0.000 OA
ATOM      3  N   UNL     1       3.937   2.388  20.518  0.00  0.00    +0.000 NA
ATOM      4  C   UNL     1       3.040   3.374  20.604  0.00  0.00    +0.000 A 
ATOM      5  C   UNL     1       2.039   3.321  21.693  0.00  0.00    +0.000 C 
ATOM      6  C   UNL     1       3.230   4.346  19.575  0.00  0.00    +0.000 A 
ENDROOT
BRANCH   1  13
ATOM      7  C   UNL     1       6.854   5.490  19.378  0.00  0.00    +0.000 C 
ATOM      8  C   UNL     1       6.341   5.148  18.004  0.00  0.00    +0.000 A 
ATOM      9  C   UNL     1       7.061   5.639  16.896  0.00  0.00    +0.000 A 
ATOM     10  C   UNL     1       6.672   5.336  15.592  0.00  0.00    +0.000 A 
ATOM     11  C   UNL     1       5.554   4.545  15.374  0.00  0.00    +0.000 A 
ATOM     12  C   UNL     1       4.815   4.075  16.460  0.00  0.00    +0.000 A 
ATOM     13  C   UNL     1       5.184   4.362  17.788  0.00  0.00    +0.000 A 
ENDBRANCH   1  13
BRANCH   6  14
ATOM     14  C   UNL     1       2.495   5.558  19.269  0.00  0.00    +0.000 C 
ATOM     15  O   UNL     1       2.123   5.831  18.133  0.00  0.00    +0.000 OA
ATOM     16  N   UNL     1       2.294   6.411  20.328  0.00  0.00    +0.000 N 
ATOM     17  H   UNL     1       2.783   6.235  21.200  0.00  0.00    +0.000 HD
BRANCH  16  18
ATOM     18  C   UNL     1       1.829   7.775  20.128  0.00  0.00    +0.000 C 
BRANCH  18  19
ATOM     19  C   UNL     1       1.659   8.536  21.439  0.00  0.00    +0.000 C 
BRANCH  19  20
ATOM     20  C   UNL     1       0.450   9.492  21.488  0.00  0.00    +0.000 C 
ATOM     21  C   UNL     1      -0.544   9.128  22.585  0.00  0.00    +0.000 C 
ATOM     22  O   UNL     1      -0.214   9.467  20.213  0.00  0.00    +0.000 OA
ATOM     23  C   UNL     1      -0.010  10.756  19.633  0.00  0.00    +0.000 C 
ATOM     24  C   UNL     1       1.062  11.415  20.458  0.00  0.00    +0.000 C 
ATOM     25  O   UNL     1       0.918  10.825  21.745  0.00  0.00    +0.000 OA
ENDBRANCH  19  20
ENDBRANCH  18  19
ENDBRANCH  16  18
ENDBRANCH   6  14
TORSDOF 5
ENDMDL
MODEL 4
REMARK VINA RESULT:      -7.8      1.782      2.376
REMARK  Name = 
REMARK  8 active torsions:
REMARK  status: ('A' for Active; 'I' for Inactive)
REMARK    1  A    between atoms: C_1  and  C_2
REMARK    2  A    between atoms: C_7  and  C_8
REMARK    3  A    between atoms: C_11  and  C_12
REMARK    4  A    between atoms: C_13  and  C_14
REMARK    5  A    between atoms: N_16  and  C_17
REMARK    6  A    between atoms: C_17  and  C_18
REMARK    7  A    between atoms: C_18  and  C_19
REMARK    8  A    between atoms: C_19  and  C_20
REMARK                            x       y       z     vdW  Elec       q    Type
REMARK                         _______ _______ _______ _____ _____    ______ ____
ROOT
ATOM      1  C   UNL     1       4.249   4.611  18.177  0.00  0.00    +0.000 A 
ATOM      2  O   UNL     1       4.349   3.419  17.524  0.00  0.00    +0.000 OA
ATOM      3  N   UNL     1       3.170   2.720  17.619  0.00  0.00    +0.000 NA
ATOM      4  C   UNL     1       2.354   3.481  18.354  0.00  0.00    +0.000 A 
ATOM      5  C   UNL     1       1.000   2.970  18.658  0.00  0.00    +0.000 C 
ATOM      6  C   UNL     1       2.980   4.708  18.729  0.00  0.00    +0.000 A 
ENDROOT
BRANCH   1  13
ATOM      7  C   UNL     1       4.953   6.674  16.060  0.00  0.00    +0.000 C 
ATOM      8  C   UNL     1       5.845   6.336  17.226  0.00  0.00    +0.000 A 
ATOM      9  C   UNL     1       7.088   6.996  17.311  0.00  0.00    +0.000 A 
ATOM     10  C   UNL     1       7.955   6.766  18.377  0.00  0.00    +0.000 A 
ATOM     11  C   UNL     1       7.598   5.868  19.372  0.00  0.00    +0.000 A 
ATOM     12  C   UNL     1       6.383   5.186  19.287  0.00  0.00    +0.000 A 
ATOM     13  C   UNL     1       5.486   5.399  18.223  0.00  0.00    +0.000 A 
ENDBRANCH   1  13
BRANCH   6  14
ATOM     14  C   UNL     1       2.479   5.832  19.498  0.00  0.00    +0.000 C 
ATOM     15  O   UNL     1       1.951   5.693  20.595  0.00  0.00    +0.000 OA
ATOM     16  N   UNL     1       2.580   7.058  18.885  0.00  0.00    +0.000 N 
ATOM     17  H   UNL     1       2.845   7.099  17.906  0.00  0.00    +0.000 HD
BRANCH  16  18
ATOM     18  C   UNL     1       1.878   8.224  19.399  0.00  0.00    +0.000 C 
BRANCH  18  19
ATOM     19  C   UNL     1       1.521   9.225  18.304  0.00  0.00    +0.000 C 
BRANCH  19  20
ATOM     20  C   UNL     1       1.062  10.608  18.807  0.00  0.00    +0.000 C 
ATOM     21  C   UNL     1       2.007  11.729  18.392  0.00  0.00    +0.000 C 
ATOM     22  O   UNL     1       0.962  10.572  20.241  0.00  0.00    +0.000 OA
ATOM     23  C   UNL     1      -0.428  10.691  20.547  0.00  0.00    +0.000 C 
ATOM     24  C   UNL     1      -1.157  10.469  19.249  0.00  0.00    +0.000 C 
ATOM     25  O   UNL     1      -0.232  10.900  18.256  0.00  0.00    +0.000 OA
ENDBRANCH  19  20
ENDBRANCH  18  19
ENDBRANCH  16  18
ENDBRANCH   6  14
TORSDOF 5
ENDMDL
MODEL 5
REMARK VINA RESULT:      -7.8      1.636      1.778
REMARK  Name = 
REMARK  8 active torsions:
REMARK  status: ('A' for Active; 'I' for Inactive)
REMARK    1  A    between atoms: C_1  and  C_2
REMARK    2  A    between atoms: C_7  and  C_8
REMARK    3  A    between atoms: C_11  and  C_12
REMARK    4  A    between atoms: C_13  and  C_14
REMARK    5  A    between atoms: N_16  and  C_17
REMARK    6  A    between atoms: C_17  and  C_18
REMARK    7  A    between atoms: C_18  and  C_19
REMARK    8  A    between atoms: C_19  and  C_20
REMARK                            x       y       z     vdW  Elec       q    Type
REMARK                         _______ _______ _______ _____ _____    ______ ____
ROOT
ATOM      1  C   UNL     1       4.206   4.481  18.214  0.00  0.00    +0.000 A 
ATOM      2  O   UNL     1       4.252   3.415  17.368  0.00  0.00    +0.000 OA
ATOM      3  N   UNL     1       3.102   2.671  17.469  0.00  0.00    +0.000 NA
ATOM      4  C   UNL     1       2.359   3.276  18.400  0.00  0.00    +0.000 A 
ATOM      5  C   UNL     1       1.053   2.678  18.756  0.00  0.00    +0.000 C 
ATOM      6  C   UNL     1       3.003   4.446  18.905  0.00  0.00    +0.000 A 
ENDROOT
BRANCH   1  13
ATOM      7  C   UNL     1       4.836   6.607  16.136  0.00  0.00    +0.000 C 
ATOM      8  C   UNL     1       5.754   6.259  17.280  0.00  0.00    +0.000 A 
ATOM      9  C   UNL     1       6.985   6.940  17.361  0.00  0.00    +0.000 A 
ATOM     10  C   UNL     1       7.873   6.702  18.409  0.00  0.00    +0.000 A 
ATOM     11  C   UNL     1       7.548   5.774  19.387  0.00  0.00    +0.000 A 
ATOM     12  C   UNL     1       6.346   5.071  19.305  0.00  0.00    +0.000 A 
ATOM     13  C   UNL     1       5.428   5.292  18.260  0.00  0.00    +0.000 A 
ENDBRANCH   1  13
BRANCH   6  14
ATOM     14  C   UNL     1       2.570   5.413  19.896  0.00  0.00    +0.000 C 
ATOM     15  O   UNL     1       2.230   5.087  21.028  0.00  0.00    +0.000 OA
ATOM     16  N   UNL     1       2.509   6.716  19.462  0.00  0.00    +0.000 N 
ATOM     17  H   UNL     1       2.613   6.910  18.471  0.00  0.00    +0.000 HD
BRANCH  16  18
ATOM     18  C   UNL     1       1.836   7.745  20.240  0.00  0.00    +0.000 C 
BRANCH  18  19
ATOM     19  C   UNL     1       1.409   8.940  19.391  0.00  0.00    +0.000 C 
BRANCH  19  20
ATOM     20  C   UNL     1       0.406   9.895  20.066  0.00  0.00    +0.000 C 
ATOM     21  C   UNL     1      -0.053   9.398  21.432  0.00  0.00    +0.000 C 
ATOM     22  O   UNL     1      -0.735  10.054  19.206  0.00  0.00    +0.000 OA
ATOM     23  C   UNL     1      -0.705  11.408  18.751  0.00  0.00    +0.000 C 
ATOM     24  C   UNL     1       0.659  11.934  19.108  0.00  0.00    +0.000 C 
ATOM     25  O   UNL     1       1.032  11.174  20.252  0.00  0.00    +0.000 OA
ENDBRANCH  19  20
ENDBRANCH  18  19
ENDBRANCH  16  18
ENDBRANCH   6  14
TORSDOF 5
ENDMDL
MODEL 6
REMARK VINA RESULT:      -7.7      1.971      4.115
REMARK  Name = 
REMARK  8 active torsions:
REMARK  status: ('A' for Active; 'I' for Inactive)
REMARK    1  A    between atoms: C_1  and  C_2
REMARK    2  A    between atoms: C_7  and  C_8
REMARK    3  A    between atoms: C_11  and  C_12
REMARK    4  A    between atoms: C_13  and  C_14
REMARK    5  A    between atoms: N_16  and  C_17
REMARK    6  A    between atoms: C_17  and  C_18
REMARK    7  A    between atoms: C_18  and  C_19
REMARK    8  A    between atoms: C_19  and  C_20
REMARK                            x       y       z     vdW  Elec       q    Type
REMARK                         _______ _______ _______ _____ _____    ______ ____
ROOT
ATOM      1  C   UNL     1       4.493   4.901  19.060  0.00  0.00    +0.000 A 
ATOM      2  O   UNL     1       5.576   4.309  19.635  0.00  0.00    +0.000 OA
ATOM      3  N   UNL     1       6.734   4.931  19.235  0.00  0.00    +0.000 NA
ATOM      4  C   UNL     1       6.354   5.896  18.392  0.00  0.00    +0.000 A 
ATOM      5  C   UNL     1       7.401   6.731  17.762  0.00  0.00    +0.000 C 
ATOM      6  C   UNL     1       4.934   5.937  18.248  0.00  0.00    +0.000 A 
ENDROOT
BRANCH   1  13
ATOM      7  C   UNL     1       3.063   3.156  17.023  0.00  0.00    +0.000 C 
ATOM      8  C   UNL     1       2.512   3.468  18.391  0.00  0.00    +0.000 A 
ATOM      9  C   UNL     1       1.246   2.943  18.720  0.00  0.00    +0.000 A 
ATOM     10  C   UNL     1       0.682   3.154  19.977  0.00  0.00    +0.000 A 
ATOM     11  C   UNL     1       1.371   3.901  20.922  0.00  0.00    +0.000 A 
ATOM     12  C   UNL     1       2.612   4.451  20.601  0.00  0.00    +0.000 A 
ATOM     13  C   UNL     1       3.208   4.252  19.341  0.00  0.00    +0.000 A 
ENDBRANCH   1  13
BRANCH   6  14
ATOM     14  C   UNL     1       4.086   6.815  17.466  0.00  0.00    +0.000 C 
ATOM     15  O   UNL     1       4.331   7.097  16.298  0.00  0.00    +0.000 OA
ATOM     16  N   UNL     1       3.019   7.360  18.140  0.00  0.00    +0.000 N 
ATOM     17  H   UNL     1       2.967   7.252  19.149  0.00  0.00    +0.000 HD
BRANCH  16  18
ATOM     18  C   UNL     1       2.251   8.463  17.583  0.00  0.00    +0.000 C 
BRANCH  18  19
ATOM     19  C   UNL     1       2.192   9.670  18.516  0.00  0.00    +0.000 C 
BRANCH  19  20
ATOM     20  C   UNL     1       0.868   9.835  19.287  0.00  0.00    +0.000 C 
ATOM     21  C   UNL     1      -0.311  10.147  18.372  0.00  0.00    +0.000 C 
ATOM     22  O   UNL     1       1.019  10.891  20.250  0.00  0.00    +0.000 OA
ATOM     23  C   UNL     1       0.967  10.269  21.535  0.00  0.00    +0.000 C 
ATOM     24  C   UNL     1       1.110   8.792  21.284  0.00  0.00    +0.000 C 
ATOM     25  O   UNL     1       0.574   8.611  19.978  0.00  0.00    +0.000 OA
ENDBRANCH  19  20
ENDBRANCH  18  19
ENDBRANCH  16  18
ENDBRANCH   6  14
TORSDOF 5
ENDMDL
MODEL 7
REMARK VINA RESULT:      -7.7      2.032      3.980
REMARK  Name = 
REMARK  8 active torsions:
REMARK  status: ('A' for Active; 'I' for Inactive)
REMARK    1  A    between atoms: C_1  and  C_2
REMARK    2  A    between atoms: C_7  and  C_8
REMARK    3  A    between atoms: C_11  and  C_12
REMARK    4  A    between atoms: C_13  and  C_14
REMARK    5  A    between atoms: N_16  and  C_17
REMARK    6  A    between atoms: C_17  and  C_18
REMARK    7  A    between atoms: C_18  and  C_19
REMARK    8  A    between atoms: C_19  and  C_20
REMARK                            x       y       z     vdW  Elec       q    Type
REMARK                         _______ _______ _______ _____ _____    ______ ____
ROOT
ATOM      1  C   UNL     1       4.505   4.877  18.946  0.00  0.00    +0.000 A 
ATOM      2  O   UNL     1       5.576   4.193  19.436  0.00  0.00    +0.000 OA
ATOM      3  N   UNL     1       6.749   4.775  19.022  0.00  0.00    +0.000 NA
ATOM      4  C   UNL     1       6.391   5.808  18.255  0.00  0.00    +0.000 A 
ATOM      5  C   UNL     1       7.456   6.622  17.629  0.00  0.00    +0.000 C 
ATOM      6  C   UNL     1       4.971   5.935  18.178  0.00  0.00    +0.000 A 
ENDROOT
BRANCH   1  13
ATOM      7  C   UNL     1       3.005   3.137  16.957  0.00  0.00    +0.000 C 
ATOM      8  C   UNL     1       2.470   3.503  18.318  0.00  0.00    +0.000 A 
ATOM      9  C   UNL     1       1.187   3.033  18.664  0.00  0.00    +0.000 A 
ATOM     10  C   UNL     1       0.636   3.297  19.916  0.00  0.00    +0.000 A 
ATOM     11  C   UNL     1       1.354   4.040  20.840  0.00  0.00    +0.000 A 
ATOM     12  C   UNL     1       2.614   4.536  20.503  0.00  0.00    +0.000 A 
ATOM     13  C   UNL     1       3.197   4.284  19.247  0.00  0.00    +0.000 A 
ENDBRANCH   1  13
BRANCH   6  14
ATOM     14  C   UNL     1       4.142   6.905  17.488  0.00  0.00    +0.000 C 
ATOM     15  O   UNL     1       4.250   7.125  16.287  0.00  0.00    +0.000 OA
ATOM     16  N   UNL     1       3.268   7.607  18.283  0.00  0.00    +0.000 N 
ATOM     17  H   UNL     1       3.349   7.528  19.292  0.00  0.00    +0.000 HD
BRANCH  16  18
ATOM     18  C   UNL     1       2.580   8.793  17.795  0.00  0.00    +0.000 C 
BRANCH  18  19
ATOM     19  C   UNL     1       1.094   8.797  18.144  0.00  0.00    +0.000 C 
BRANCH  19  20
ATOM     20  C   UNL     1       0.717   9.627  19.386  0.00  0.00    +0.000 C 
ATOM     21  C   UNL     1       0.997   8.892  20.692  0.00  0.00    +0.000 C 
ATOM     22  O   UNL     1      -0.679   9.961  19.316  0.00  0.00    +0.000 OA
ATOM     23  C   UNL     1      -0.740  11.376  19.123  0.00  0.00    +0.000 C 
ATOM     24  C   UNL     1       0.656  11.803  18.757  0.00  0.00    +0.000 C 
ATOM     25  O   UNL     1       1.488  10.838  19.391  0.00  0.00    +0.000 OA
ENDBRANCH  19  20
ENDBRANCH  18  19
ENDBRANCH  16  18
ENDBRANCH   6  14
TORSDOF 5
ENDMDL
MODEL 8
REMARK VINA RESULT:      -7.7      1.772      2.258
REMARK  Name = 
REMARK  8 active torsions:
REMARK  status: ('A' for Active; 'I' for Inactive)
REMARK    1  A    between atoms: C_1  and  C_2
REMARK    2  A    between atoms: C_7  and  C_8
REMARK    3  A    between atoms: C_11  and  C_12
REMARK    4  A    between atoms: C_13  and  C_14
REMARK    5  A    between atoms: N_16  and  C_17
REMARK    6  A    between atoms: C_17  and  C_18
REMARK    7  A    between atoms: C_18  and  C_19
REMARK    8  A    between atoms: C_19  and  C_20
REMARK                            x       y       z     vdW  Elec       q    Type
REMARK                         _______ _______ _______ _____ _____    ______ ____
ROOT
ATOM      1  C   UNL     1       4.266   4.595  18.160  0.00  0.00    +0.000 A 
ATOM      2  O   UNL     1       4.374   3.422  17.475  0.00  0.00    +0.000 OA
ATOM      3  N   UNL     1       3.205   2.707  17.561  0.00  0.00    +0.000 NA
ATOM      4  C   UNL     1       2.386   3.438  18.323  0.00  0.00    +0.000 A 
ATOM      5  C   UNL     1       1.040   2.902  18.624  0.00  0.00    +0.000 C 
ATOM      6  C   UNL     1       3.001   4.662  18.726  0.00  0.00    +0.000 A 
ENDROOT
BRANCH   1  13
ATOM      7  C   UNL     1       4.928   6.720  16.092  0.00  0.00    +0.000 C 
ATOM      8  C   UNL     1       5.834   6.363  17.242  0.00  0.00    +0.000 A 
ATOM      9  C   UNL     1       7.069   7.035  17.334  0.00  0.00    +0.000 A 
ATOM     10  C   UNL     1       7.947   6.788  18.388  0.00  0.00    +0.000 A 
ATOM     11  C   UNL     1       7.609   5.861  19.362  0.00  0.00    +0.000 A 
ATOM     12  C   UNL     1       6.402   5.166  19.269  0.00  0.00    +0.000 A 
ATOM     13  C   UNL     1       5.494   5.396  18.218  0.00  0.00    +0.000 A 
ENDBRANCH   1  13
BRANCH   6  14
ATOM     14  C   UNL     1       2.493   5.758  19.528  0.00  0.00    +0.000 C 
ATOM     15  O   UNL     1       2.033   5.592  20.653  0.00  0.00    +0.000 OA
ATOM     16  N   UNL     1       2.504   6.990  18.919  0.00  0.00    +0.000 N 
ATOM     17  H   UNL     1       2.712   7.047  17.927  0.00  0.00    +0.000 HD
BRANCH  16  18
ATOM     18  C   UNL     1       1.779   8.122  19.479  0.00  0.00    +0.000 C 
BRANCH  18  19
ATOM     19  C   UNL     1       1.611   9.264  18.481  0.00  0.00    +0.000 C 
BRANCH  19  20
ATOM     20  C   UNL     1       0.486  10.263  18.816  0.00  0.00    +0.000 C 
ATOM     21  C   UNL     1      -0.759  10.055  17.963  0.00  0.00    +0.000 C 
ATOM     22  O   UNL     1       0.980  11.600  18.626  0.00  0.00    +0.000 OA
ATOM     23  C   UNL     1       1.041  12.191  19.925  0.00  0.00    +0.000 C 
ATOM     24  C   UNL     1       0.882  11.057  20.902  0.00  0.00    +0.000 C 
ATOM     25  O   UNL     1       0.108  10.097  20.192  0.00  0.00    +0.000 OA
ENDBRANCH  19  20
ENDBRANCH  18  19
ENDBRANCH  16  18
ENDBRANCH   6  14
TORSDOF 5
ENDMDL
MODEL 9
REMARK VINA RESULT:      -7.7      2.014      4.174
REMARK  Name = 
REMARK  8 active torsions:
REMARK  status: ('A' for Active; 'I' for Inactive)
REMARK    1  A    between atoms: C_1  and  C_2
REMARK    2  A    between atoms: C_7  and  C_8
REMARK    3  A    between atoms: C_11  and  C_12
REMARK    4  A    between atoms: C_13  and  C_14
REMARK    5  A    between atoms: N_16  and  C_17
REMARK    6  A    between atoms: C_17  and  C_18
REMARK    7  A    between atoms: C_18  and  C_19
REMARK    8  A    between atoms: C_19  and  C_20
REMARK                            x       y       z     vdW  Elec       q    Type
REMARK                         _______ _______ _______ _____ _____    ______ ____
ROOT
ATOM      1  C   UNL     1       4.579   4.703  19.033  0.00  0.00    +0.000 A 
ATOM      2  O   UNL     1       5.681   4.055  19.501  0.00  0.00    +0.000 OA
ATOM      3  N   UNL     1       6.826   4.679  19.067  0.00  0.00    +0.000 NA
ATOM      4  C   UNL     1       6.417   5.702  18.312  0.00  0.00    +0.000 A 
ATOM      5  C   UNL     1       7.442   6.555  17.670  0.00  0.00    +0.000 C 
ATOM      6  C   UNL     1       4.992   5.780  18.262  0.00  0.00    +0.000 A 
ENDROOT
BRANCH   1  13
ATOM      7  C   UNL     1       3.508   2.319  17.483  0.00  0.00    +0.000 C 
ATOM      8  C   UNL     1       2.769   2.977  18.619  0.00  0.00    +0.000 A 
ATOM      9  C   UNL     1       1.496   2.471  18.951  0.00  0.00    +0.000 A 
ATOM     10  C   UNL     1       0.764   3.000  20.012  0.00  0.00    +0.000 A 
ATOM     11  C   UNL     1       1.288   4.048  20.754  0.00  0.00    +0.000 A 
ATOM     12  C   UNL     1       2.534   4.579  20.420  0.00  0.00    +0.000 A 
ATOM     13  C   UNL     1       3.298   4.064  19.355  0.00  0.00    +0.000 A 
ENDBRANCH   1  13
BRANCH   6  14
ATOM     14  C   UNL     1       4.118   6.723  17.591  0.00  0.00    +0.000 C 
ATOM     15  O   UNL     1       4.277   7.049  16.420  0.00  0.00    +0.000 OA
ATOM     16  N   UNL     1       3.133   7.275  18.376  0.00  0.00    +0.000 N 
ATOM     17  H   UNL     1       3.160   7.123  19.379  0.00  0.00    +0.000 HD
BRANCH  16  18
ATOM     18  C   UNL     1       2.366   8.429  17.932  0.00  0.00    +0.000 C 
BRANCH  18  19
ATOM     19  C   UNL     1       1.443   8.975  19.018  0.00  0.00    +0.000 C 
BRANCH  19  20
ATOM     20  C   UNL     1       1.002  10.439  18.826  0.00  0.00    +0.000 C 
ATOM     21  C   UNL     1       2.062  11.287  18.131  0.00  0.00    +0.000 C 
ATOM     22  O   UNL     1       0.702  11.007  20.111  0.00  0.00    +0.000 OA
ATOM     23  C   UNL     1      -0.708  11.239  20.125  0.00  0.00    +0.000 C 
ATOM     24  C   UNL     1      -1.260  10.489  18.943  0.00  0.00    +0.000 C 
ATOM     25  O   UNL     1      -0.182  10.468  18.014  0.00  0.00    +0.000 OA
ENDBRANCH  19  20
ENDBRANCH  18  19
ENDBRANCH  16  18
ENDBRANCH   6  14
TORSDOF 5
ENDMDL
