MODEL 1
REMARK VINA RESULT:      -6.5      0.000      0.000
REMARK  Name = 
REMARK  8 active torsions:
REMARK  status: ('A' for Active; 'I' for Inactive)
REMARK    1  A    between atoms: C_1  and  C_2
REMARK    2  A    between atoms: C_2  and  C_3
REMARK    3  A    between atoms: C_2  and  N_4
REMARK    4  A    between atoms: C_2  and  C_12
REMARK    5  A    between atoms: N_5  and  C_6
REMARK    6  A    between atoms: C_6  and  C_7
REMARK    7  A    between atoms: C_6  and  C_8
REMARK    8  A    between atoms: C_6  and  C_9
REMARK                            x       y       z     vdW  Elec       q    Type
REMARK                         _______ _______ _______ _____ _____    ______ ____
ROOT
ATOM      1  N   UNL     1       5.779   3.991  18.897  0.00  0.00    +0.000 NA
ATOM      2  N   UNL     1       4.897   3.457  19.633  0.00  0.00    +0.000 NA
ENDROOT
BRANCH   1   4
ATOM      3  C   UNL     1       5.003   3.773  16.561  0.00  0.00    +0.000 C 
ATOM      4  C   UNL     1       5.685   4.690  17.609  0.00  0.00    +0.000 C 
ATOM      5  C   UNL     1       5.116   6.111  17.868  0.00  0.00    +0.000 C 
BRANCH   4   6
ATOM      6  C   UNL     1       7.091   5.006  17.042  0.00  0.00    +0.000 C 
ATOM      7  N   UNL     1       8.079   4.207  17.285  0.00  0.00    +0.000 NA
ATOM      8  N   UNL     1       7.333   6.122  16.207  0.00  0.00    +0.000 N 
ATOM      9  H   UNL     1       7.992   3.355  17.864  0.00  0.00    +0.000 HD
ATOM     10  H   UNL     1       6.587   6.769  15.933  0.00  0.00    +0.000 HD
ATOM     11  H   UNL     1       8.269   6.236  15.789  0.00  0.00    +0.000 HD
ENDBRANCH   4   6
ENDBRANCH   1   4
BRANCH   2  12
ATOM     12  C   UNL     1       3.455   3.123  19.474  0.00  0.00    +0.000 C 
ATOM     13  C   UNL     1       2.966   2.762  20.894  0.00  0.00    +0.000 C 
ATOM     14  C   UNL     1       2.544   4.287  19.019  0.00  0.00    +0.000 C 
BRANCH  12  15
ATOM     15  C   UNL     1       3.235   1.880  18.587  0.00  0.00    +0.000 C 
ATOM     16  N   UNL     1       4.147   0.963  18.502  0.00  0.00    +0.000 NA
ATOM     17  N   UNL     1       2.068   1.715  17.799  0.00  0.00    +0.000 N 
ATOM     18  H   UNL     1       5.041   0.992  19.015  0.00  0.00    +0.000 HD
ATOM     19  H   UNL     1       1.323   2.419  17.786  0.00  0.00    +0.000 HD
ATOM     20  H   UNL     1       1.974   0.885  17.196  0.00  0.00    +0.000 HD
ENDBRANCH  12  15
ENDBRANCH   2  12
TORSDOF 4
ENDMDL
MODEL 2
REMARK VINA RESULT:      -6.3      0.585      1.053
REMARK  Name = 
REMARK  8 active torsions:
REMARK  status: ('A' for Active; 'I' for Inactive)
REMARK    1  A    between atoms: C_1  and  C_2
REMARK    2  A    between atoms: C_2  and  C_3
REMARK    3  A    between atoms: C_2  and  N_4
REMARK    4  A    between atoms: C_2  and  C_12
REMARK    5  A    between atoms: N_5  and  C_6
REMARK    6  A    between atoms: C_6  and  C_7
REMARK    7  A    between atoms: C_6  and  C_8
REMARK    8  A    between atoms: C_6  and  C_9
REMARK                            x       y       z     vdW  Elec       q    Type
REMARK                         _______ _______ _______ _____ _____    ______ ____
ROOT
ATOM      1  N   UNL     1       5.478   4.397  18.664  0.00  0.00    +0.000 NA
ATOM      2  N   UNL     1       4.487   3.961  19.322  0.00  0.00    +0.000 NA
ENDROOT
BRANCH   1   4
ATOM      3  C   UNL     1       5.097   3.828  16.290  0.00  0.00    +0.000 C 
ATOM      4  C   UNL     1       5.592   4.904  17.292  0.00  0.00    +0.000 C 
ATOM      5  C   UNL     1       4.979   6.330  17.248  0.00  0.00    +0.000 C 
BRANCH   4   6
ATOM      6  C   UNL     1       7.070   5.178  16.920  0.00  0.00    +0.000 C 
ATOM      7  N   UNL     1       7.959   4.253  17.085  0.00  0.00    +0.000 NA
ATOM      8  N   UNL     1       7.487   6.400  16.343  0.00  0.00    +0.000 N 
ATOM      9  H   UNL     1       7.743   3.321  17.477  0.00  0.00    +0.000 HD
ATOM     10  H   UNL     1       6.829   7.159  16.137  0.00  0.00    +0.000 HD
ATOM     11  H   UNL     1       8.467   6.496  16.036  0.00  0.00    +0.000 HD
ENDBRANCH   4   6
ENDBRANCH   1   4
BRANCH   2  12
ATOM     12  C   UNL     1       3.084   3.588  18.990  0.00  0.00    +0.000 C 
ATOM     13  C   UNL     1       2.361   3.485  20.351  0.00  0.00    +0.000 C 
ATOM     14  C   UNL     1       2.283   4.640  18.188  0.00  0.00    +0.000 C 
BRANCH  12  15
ATOM     15  C   UNL     1       2.989   2.202  18.318  0.00  0.00    +0.000 C 
ATOM     16  N   UNL     1       1.931   1.868  17.648  0.00  0.00    +0.000 NA
ATOM     17  N   UNL     1       4.013   1.231  18.448  0.00  0.00    +0.000 N 
ATOM     18  H   UNL     1       1.120   2.488  17.508  0.00  0.00    +0.000 HD
ATOM     19  H   UNL     1       4.860   1.412  18.997  0.00  0.00    +0.000 HD
ATOM     20  H   UNL     1       3.897   0.305  18.011  0.00  0.00    +0.000 HD
ENDBRANCH  12  15
ENDBRANCH   2  12
TORSDOF 4
ENDMDL
MODEL 3
REMARK VINA RESULT:      -6.1      0.858      1.537
REMARK  Name = 
REMARK  8 active torsions:
REMARK  status: ('A' for Active; 'I' for Inactive)
REMARK    1  A    between atoms: C_1  and  C_2
REMARK    2  A    between atoms: C_2  and  C_3
REMARK    3  A    between atoms: C_2  and  N_4
REMARK    4  A    between atoms: C_2  and  C_12
REMARK    5  A    between atoms: N_5  and  C_6
REMARK    6  A    between atoms: C_6  and  C_7
REMARK    7  A    between atoms: C_6  and  C_8
REMARK    8  A    between atoms: C_6  and  C_9
REMARK                            x       y       z     vdW  Elec       q    Type
REMARK                         _______ _______ _______ _____ _____    ______ ____
ROOT
ATOM      1  N   UNL     1       5.426   3.919  18.698  0.00  0.00    +0.000 NA
ATOM      2  N   UNL     1       4.444   3.672  19.460  0.00  0.00    +0.000 NA
ENDROOT
BRANCH   1   4
ATOM      3  C   UNL     1       4.858   4.000  16.295  0.00  0.00    +0.000 C 
ATOM      4  C   UNL     1       5.538   4.732  17.482  0.00  0.00    +0.000 C 
ATOM      5  C   UNL     1       5.115   6.185  17.827  0.00  0.00    +0.000 C 
BRANCH   4   6
ATOM      6  C   UNL     1       7.020   4.918  17.069  0.00  0.00    +0.000 C 
ATOM      7  N   UNL     1       7.329   5.759  16.138  0.00  0.00    +0.000 NA
ATOM      8  N   UNL     1       8.073   4.235  17.720  0.00  0.00    +0.000 N 
ATOM      9  H   UNL     1       6.630   6.321  15.624  0.00  0.00    +0.000 HD
ATOM     10  H   UNL     1       7.905   3.590  18.500  0.00  0.00    +0.000 HD
ATOM     11  H   UNL     1       9.046   4.460  17.463  0.00  0.00    +0.000 HD
ENDBRANCH   4   6
ENDBRANCH   1   4
BRANCH   2  12
ATOM     12  C   UNL     1       2.976   3.906  19.393  0.00  0.00    +0.000 C 
ATOM     13  C   UNL     1       2.413   3.314  20.704  0.00  0.00    +0.000 C 
ATOM     14  C   UNL     1       2.532   5.387  19.399  0.00  0.00    +0.000 C 
BRANCH  12  15
ATOM     15  C   UNL     1       2.312   3.143  18.228  0.00  0.00    +0.000 C 
ATOM     16  N   UNL     1       1.465   3.740  17.450  0.00  0.00    +0.000 NA
ATOM     17  N   UNL     1       2.554   1.766  17.995  0.00  0.00    +0.000 N 
ATOM     18  H   UNL     1       1.200   4.732  17.542  0.00  0.00    +0.000 HD
ATOM     19  H   UNL     1       3.182   1.221  18.595  0.00  0.00    +0.000 HD
ATOM     20  H   UNL     1       2.067   1.285  17.226  0.00  0.00    +0.000 HD
ENDBRANCH  12  15
ENDBRANCH   2  12
TORSDOF 4
ENDMDL
MODEL 4
REMARK VINA RESULT:      -6.1      1.515      1.959
REMARK  Name = 
REMARK  8 active torsions:
REMARK  status: ('A' for Active; 'I' for Inactive)
REMARK    1  A    between atoms: C_1  and  C_2
REMARK    2  A    between atoms: C_2  and  C_3
REMARK    3  A    between atoms: C_2  and  N_4
REMARK    4  A    between atoms: C_2  and  C_12
REMARK    5  A    between atoms: N_5  and  C_6
REMARK    6  A    between atoms: C_6  and  C_7
REMARK    7  A    between atoms: C_6  and  C_8
REMARK    8  A    between atoms: C_6  and  C_9
REMARK                            x       y       z     vdW  Elec       q    Type
REMARK                         _______ _______ _______ _____ _____    ______ ____
ROOT
ATOM      1  N   UNL     1       5.596   5.980  18.880  0.00  0.00    +0.000 NA
ATOM      2  N   UNL     1       4.597   5.436  19.436  0.00  0.00    +0.000 NA
ENDROOT
BRANCH   1   4
ATOM      3  C   UNL     1       4.899   6.135  16.514  0.00  0.00    +0.000 C 
ATOM      4  C   UNL     1       6.084   5.942  17.496  0.00  0.00    +0.000 C 
ATOM      5  C   UNL     1       7.323   6.873  17.391  0.00  0.00    +0.000 C 
BRANCH   4   6
ATOM      6  C   UNL     1       6.692   4.559  17.156  0.00  0.00    +0.000 C 
ATOM      7  N   UNL     1       7.624   4.063  17.902  0.00  0.00    +0.000 NA
ATOM      8  N   UNL     1       6.221   3.774  16.077  0.00  0.00    +0.000 N 
ATOM      9  H   UNL     1       8.014   4.552  18.726  0.00  0.00    +0.000 HD
ATOM     10  H   UNL     1       5.451   4.083  15.474  0.00  0.00    +0.000 HD
ATOM     11  H   UNL     1       6.603   2.825  15.949  0.00  0.00    +0.000 HD
ENDBRANCH   4   6
ENDBRANCH   1   4
BRANCH   2  12
ATOM     12  C   UNL     1       3.604   4.401  19.038  0.00  0.00    +0.000 C 
ATOM     13  C   UNL     1       2.653   4.266  20.248  0.00  0.00    +0.000 C 
ATOM     14  C   UNL     1       2.690   4.773  17.848  0.00  0.00    +0.000 C 
BRANCH  12  15
ATOM     15  C   UNL     1       4.254   3.019  18.815  0.00  0.00    +0.000 C 
ATOM     16  N   UNL     1       3.946   2.308  17.775  0.00  0.00    +0.000 NA
ATOM     17  N   UNL     1       5.159   2.453  19.748  0.00  0.00    +0.000 N 
ATOM     18  H   UNL     1       3.285   2.613  17.046  0.00  0.00    +0.000 HD
ATOM     19  H   UNL     1       5.417   2.942  20.611  0.00  0.00    +0.000 HD
ATOM     20  H   UNL     1       5.546   1.514  19.577  0.00  0.00    +0.000 HD
ENDBRANCH  12  15
ENDBRANCH   2  12
TORSDOF 4
ENDMDL
MODEL 5
REMARK VINA RESULT:      -6.0      1.501      1.840
REMARK  Name = 
REMARK  8 active torsions:
REMARK  status: ('A' for Active; 'I' for Inactive)
REMARK    1  A    between atoms: C_1  and  C_2
REMARK    2  A    between atoms: C_2  and  C_3
REMARK    3  A    between atoms: C_2  and  N_4
REMARK    4  A    between atoms: C_2  and  C_12
REMARK    5  A    between atoms: N_5  and  C_6
REMARK    6  A    between atoms: C_6  and  C_7
REMARK    7  A    between atoms: C_6  and  C_8
REMARK    8  A    between atoms: C_6  and  C_9
REMARK                            x       y       z     vdW  Elec       q    Type
REMARK                         _______ _______ _______ _____ _____    ______ ____
ROOT
ATOM      1  N   UNL     1       3.987   5.272  19.390  0.00  0.00    +0.000 NA
ATOM      2  N   UNL     1       3.354   4.512  20.181  0.00  0.00    +0.000 NA
ENDROOT
BRANCH   1   4
ATOM      3  C   UNL     1       3.019   4.526  17.243  0.00  0.00    +0.000 C 
ATOM      4  C   UNL     1       4.231   5.194  17.945  0.00  0.00    +0.000 C 
ATOM      5  C   UNL     1       4.725   6.583  17.459  0.00  0.00    +0.000 C 
BRANCH   4   6
ATOM      6  C   UNL     1       5.449   4.291  17.632  0.00  0.00    +0.000 C 
ATOM      7  N   UNL     1       6.404   4.175  18.497  0.00  0.00    +0.000 NA
ATOM      8  N   UNL     1       5.537   3.529  16.444  0.00  0.00    +0.000 N 
ATOM      9  H   UNL     1       6.415   4.673  19.402  0.00  0.00    +0.000 HD
ATOM     10  H   UNL     1       4.794   3.534  15.737  0.00  0.00    +0.000 HD
ATOM     11  H   UNL     1       6.330   2.880  16.327  0.00  0.00    +0.000 HD
ENDBRANCH   4   6
ENDBRANCH   1   4
BRANCH   2  12
ATOM     12  C   UNL     1       2.753   3.153  20.080  0.00  0.00    +0.000 C 
ATOM     13  C   UNL     1       2.382   2.768  21.529  0.00  0.00    +0.000 C 
ATOM     14  C   UNL     1       1.428   3.064  19.288  0.00  0.00    +0.000 C 
BRANCH  12  15
ATOM     15  C   UNL     1       3.762   2.102  19.574  0.00  0.00    +0.000 C 
ATOM     16  N   UNL     1       4.939   2.009  20.108  0.00  0.00    +0.000 NA
ATOM     17  N   UNL     1       3.470   1.241  18.485  0.00  0.00    +0.000 N 
ATOM     18  H   UNL     1       5.264   2.598  20.889  0.00  0.00    +0.000 HD
ATOM     19  H   UNL     1       2.574   1.285  17.990  0.00  0.00    +0.000 HD
ATOM     20  H   UNL     1       4.183   0.574  18.157  0.00  0.00    +0.000 HD
ENDBRANCH  12  15
ENDBRANCH   2  12
TORSDOF 4
ENDMDL
MODEL 6
REMARK VINA RESULT:      -6.0      1.839      4.631
REMARK  Name = 
REMARK  8 active torsions:
REMARK  status: ('A' for Active; 'I' for Inactive)
REMARK    1  A    between atoms: C_1  and  C_2
REMARK    2  A    between atoms: C_2  and  C_3
REMARK    3  A    between atoms: C_2  and  N_4
REMARK    4  A    between atoms: C_2  and  C_12
REMARK    5  A    between atoms: N_5  and  C_6
REMARK    6  A    between atoms: C_6  and  C_7
REMARK    7  A    between atoms: C_6  and  C_8
REMARK    8  A    between atoms: C_6  and  C_9
REMARK                            x       y       z     vdW  Elec       q    Type
REMARK                         _______ _______ _______ _____ _____    ______ ____
ROOT
ATOM      1  N   UNL     1       4.198   6.068  17.383  0.00  0.00    +0.000 NA
ATOM      2  N   UNL     1       5.351   6.576  17.245  0.00  0.00    +0.000 NA
ENDROOT
BRANCH   1   4
ATOM      3  C   UNL     1       3.899   5.318  19.718  0.00  0.00    +0.000 C 
ATOM      4  C   UNL     1       3.711   4.965  18.219  0.00  0.00    +0.000 C 
ATOM      5  C   UNL     1       2.308   4.547  17.703  0.00  0.00    +0.000 C 
BRANCH   4   6
ATOM      6  C   UNL     1       4.538   3.677  17.982  0.00  0.00    +0.000 C 
ATOM      7  N   UNL     1       4.883   3.345  16.781  0.00  0.00    +0.000 NA
ATOM      8  N   UNL     1       4.988   2.865  19.049  0.00  0.00    +0.000 N 
ATOM      9  H   UNL     1       4.622   3.890  15.943  0.00  0.00    +0.000 HD
ATOM     10  H   UNL     1       4.794   3.095  20.029  0.00  0.00    +0.000 HD
ATOM     11  H   UNL     1       5.607   2.067  18.839  0.00  0.00    +0.000 HD
ENDBRANCH   4   6
ENDBRANCH   1   4
BRANCH   2  12
ATOM     12  C   UNL     1       6.724   6.204  17.683  0.00  0.00    +0.000 C 
ATOM     13  C   UNL     1       7.559   7.495  17.531  0.00  0.00    +0.000 C 
ATOM     14  C   UNL     1       6.868   5.805  19.169  0.00  0.00    +0.000 C 
BRANCH  12  15
ATOM     15  C   UNL     1       7.364   5.139  16.768  0.00  0.00    +0.000 C 
ATOM     16  N   UNL     1       8.019   4.143  17.276  0.00  0.00    +0.000 NA
ATOM     17  N   UNL     1       7.310   5.231  15.354  0.00  0.00    +0.000 N 
ATOM     18  H   UNL     1       8.138   3.991  18.289  0.00  0.00    +0.000 HD
ATOM     19  H   UNL     1       6.843   6.012  14.883  0.00  0.00    +0.000 HD
ATOM     20  H   UNL     1       7.778   4.516  14.778  0.00  0.00    +0.000 HD
ENDBRANCH  12  15
ENDBRANCH   2  12
TORSDOF 4
ENDMDL
MODEL 7
REMARK VINA RESULT:      -5.9      1.616      4.398
REMARK  Name = 
REMARK  8 active torsions:
REMARK  status: ('A' for Active; 'I' for Inactive)
REMARK    1  A    between atoms: C_1  and  C_2
REMARK    2  A    between atoms: C_2  and  C_3
REMARK    3  A    between atoms: C_2  and  N_4
REMARK    4  A    between atoms: C_2  and  C_12
REMARK    5  A    between atoms: N_5  and  C_6
REMARK    6  A    between atoms: C_6  and  C_7
REMARK    7  A    between atoms: C_6  and  C_8
REMARK    8  A    between atoms: C_6  and  C_9
REMARK                            x       y       z     vdW  Elec       q    Type
REMARK                         _______ _______ _______ _____ _____    ______ ____
ROOT
ATOM      1  N   UNL     1       2.500   3.958  17.894  0.00  0.00    +0.000 NA
ATOM      2  N   UNL     1       3.284   4.863  17.479  0.00  0.00    +0.000 NA
ENDROOT
BRANCH   1   4
ATOM      3  C   UNL     1       2.706   3.940  20.356  0.00  0.00    +0.000 C 
ATOM      4  C   UNL     1       2.554   3.083  19.072  0.00  0.00    +0.000 C 
ATOM      5  C   UNL     1       1.393   2.058  18.970  0.00  0.00    +0.000 C 
BRANCH   4   6
ATOM      6  C   UNL     1       3.800   2.164  19.028  0.00  0.00    +0.000 C 
ATOM      7  N   UNL     1       3.966   1.352  18.036  0.00  0.00    +0.000 NA
ATOM      8  N   UNL     1       4.810   2.218  20.016  0.00  0.00    +0.000 N 
ATOM      9  H   UNL     1       3.295   1.261  17.256  0.00  0.00    +0.000 HD
ATOM     10  H   UNL     1       4.768   2.873  20.804  0.00  0.00    +0.000 HD
ATOM     11  H   UNL     1       5.658   1.645  19.892  0.00  0.00    +0.000 HD
ENDBRANCH   4   6
ENDBRANCH   1   4
BRANCH   2  12
ATOM     12  C   UNL     1       4.652   5.320  17.847  0.00  0.00    +0.000 C 
ATOM     13  C   UNL     1       4.881   6.609  17.026  0.00  0.00    +0.000 C 
ATOM     14  C   UNL     1       4.844   5.743  19.321  0.00  0.00    +0.000 C 
BRANCH  12  15
ATOM     15  C   UNL     1       5.741   4.313  17.423  0.00  0.00    +0.000 C 
ATOM     16  N   UNL     1       6.822   4.178  18.126  0.00  0.00    +0.000 NA
ATOM     17  N   UNL     1       5.634   3.543  16.237  0.00  0.00    +0.000 N 
ATOM     18  H   UNL     1       7.012   4.702  18.993  0.00  0.00    +0.000 HD
ATOM     19  H   UNL     1       4.826   3.627  15.612  0.00  0.00    +0.000 HD
ATOM     20  H   UNL     1       6.398   2.904  15.973  0.00  0.00    +0.000 HD
ENDBRANCH  12  15
ENDBRANCH   2  12
TORSDOF 4
ENDMDL
MODEL 8
REMARK VINA RESULT:      -5.9      1.593      4.438
REMARK  Name = 
REMARK  8 active torsions:
REMARK  status: ('A' for Active; 'I' for Inactive)
REMARK    1  A    between atoms: C_1  and  C_2
REMARK    2  A    between atoms: C_2  and  C_3
REMARK    3  A    between atoms: C_2  and  N_4
REMARK    4  A    between atoms: C_2  and  C_12
REMARK    5  A    between atoms: N_5  and  C_6
REMARK    6  A    between atoms: C_6  and  C_7
REMARK    7  A    between atoms: C_6  and  C_8
REMARK    8  A    between atoms: C_6  and  C_9
REMARK                            x       y       z     vdW  Elec       q    Type
REMARK                         _______ _______ _______ _____ _____    ______ ____
ROOT
ATOM      1  N   UNL     1       2.520   3.881  17.911  0.00  0.00    +0.000 NA
ATOM      2  N   UNL     1       3.259   4.793  17.433  0.00  0.00    +0.000 NA
ENDROOT
BRANCH   1   4
ATOM      3  C   UNL     1       2.800   3.981  20.364  0.00  0.00    +0.000 C 
ATOM      4  C   UNL     1       2.639   3.063  19.124  0.00  0.00    +0.000 C 
ATOM      5  C   UNL     1       1.511   1.997  19.103  0.00  0.00    +0.000 C 
BRANCH   4   6
ATOM      6  C   UNL     1       3.913   2.184  19.081  0.00  0.00    +0.000 C 
ATOM      7  N   UNL     1       4.815   2.310  19.999  0.00  0.00    +0.000 NA
ATOM      8  N   UNL     1       4.109   1.191  18.093  0.00  0.00    +0.000 N 
ATOM      9  H   UNL     1       4.746   2.991  20.774  0.00  0.00    +0.000 HD
ATOM     10  H   UNL     1       3.414   1.002  17.363  0.00  0.00    +0.000 HD
ATOM     11  H   UNL     1       4.935   0.578  18.162  0.00  0.00    +0.000 HD
ENDBRANCH   4   6
ENDBRANCH   1   4
BRANCH   2  12
ATOM     12  C   UNL     1       4.620   5.313  17.738  0.00  0.00    +0.000 C 
ATOM     13  C   UNL     1       4.788   6.556  16.837  0.00  0.00    +0.000 C 
ATOM     14  C   UNL     1       4.832   5.830  19.180  0.00  0.00    +0.000 C 
BRANCH  12  15
ATOM     15  C   UNL     1       5.730   4.315  17.348  0.00  0.00    +0.000 C 
ATOM     16  N   UNL     1       5.585   3.538  16.321  0.00  0.00    +0.000 NA
ATOM     17  N   UNL     1       6.915   4.170  18.114  0.00  0.00    +0.000 N 
ATOM     18  H   UNL     1       4.756   3.546  15.707  0.00  0.00    +0.000 HD
ATOM     19  H   UNL     1       7.079   4.723  18.961  0.00  0.00    +0.000 HD
ATOM     20  H   UNL     1       7.618   3.469  17.837  0.00  0.00    +0.000 HD
ENDBRANCH  12  15
ENDBRANCH   2  12
TORSDOF 4
ENDMDL
MODEL 9
REMARK VINA RESULT:      -5.9      1.614      4.968
REMARK  Name = 
REMARK  8 active torsions:
REMARK  status: ('A' for Active; 'I' for Inactive)
REMARK    1  A    between atoms: C_1  and  C_2
REMARK    2  A    between atoms: C_2  and  C_3
REMARK    3  A    between atoms: C_2  and  N_4
REMARK    4  A    between atoms: C_2  and  C_12
REMARK    5  A    between atoms: N_5  and  C_6
REMARK    6  A    between atoms: C_6  and  C_7
REMARK    7  A    between atoms: C_6  and  C_8
REMARK    8  A    between atoms: C_6  and  C_9
REMARK                            x       y       z     vdW  Elec       q    Type
REMARK                         _______ _______ _______ _____ _____    ______ ____
ROOT
ATOM      1  N   UNL     1       4.588   3.403  17.520  0.00  0.00    +0.000 NA
ATOM      2  N   UNL     1       5.057   3.908  16.456  0.00  0.00    +0.000 NA
ENDROOT
BRANCH   1   4
ATOM      3  C   UNL     1       5.415   4.866  19.331  0.00  0.00    +0.000 C 
ATOM      4  C   UNL     1       4.235   4.003  18.812  0.00  0.00    +0.000 C 
ATOM      5  C   UNL     1       2.823   4.634  18.686  0.00  0.00    +0.000 C 
BRANCH   4   6
ATOM      6  C   UNL     1       4.006   2.913  19.888  0.00  0.00    +0.000 C 
ATOM      7  N   UNL     1       2.910   2.906  20.575  0.00  0.00    +0.000 NA
ATOM      8  N   UNL     1       4.936   1.872  20.116  0.00  0.00    +0.000 N 
ATOM      9  H   UNL     1       2.163   3.611  20.461  0.00  0.00    +0.000 HD
ATOM     10  H   UNL     1       5.803   1.787  19.574  0.00  0.00    +0.000 HD
ATOM     11  H   UNL     1       4.693   1.125  20.784  0.00  0.00    +0.000 HD
ENDBRANCH   4   6
ENDBRANCH   1   4
BRANCH   2  12
ATOM     12  C   UNL     1       5.630   5.230  16.082  0.00  0.00    +0.000 C 
ATOM     13  C   UNL     1       5.742   5.199  14.541  0.00  0.00    +0.000 C 
ATOM     14  C   UNL     1       4.743   6.457  16.396  0.00  0.00    +0.000 C 
BRANCH  12  15
ATOM     15  C   UNL     1       7.055   5.431  16.637  0.00  0.00    +0.000 C 
ATOM     16  N   UNL     1       7.572   6.618  16.706  0.00  0.00    +0.000 NA
ATOM     17  N   UNL     1       7.868   4.341  17.038  0.00  0.00    +0.000 N 
ATOM     18  H   UNL     1       7.079   7.477  16.422  0.00  0.00    +0.000 HD
ATOM     19  H   UNL     1       7.539   3.372  16.973  0.00  0.00    +0.000 HD
ATOM     20  H   UNL     1       8.826   4.515  17.373  0.00  0.00    +0.000 HD
ENDBRANCH  12  15
ENDBRANCH   2  12
TORSDOF 4
ENDMDL
