MODEL 1
REMARK VINA RESULT:      -8.3      0.000      0.000
REMARK  Name = 
REMARK  10 active torsions:
REMARK  status: ('A' for Active; 'I' for Inactive)
REMARK    1  A    between atoms: C_1  and  C_2
REMARK    2  A    between atoms: C_2  and  C_3
REMARK    3  A    between atoms: C_4  and  N_5
REMARK    4  A    between atoms: N_5  and  C_6
REMARK    5  A    between atoms: C_8  and  N_9
REMARK    6  A    between atoms: N_9  and  C_10
REMARK    7  A    between atoms: C_10  and  C_11
REMARK    8  A    between atoms: C_16  and  C_17
REMARK    9  A    between atoms: C_23  and  C_24
REMARK   10  A    between atoms: C_27  and  C_28
REMARK                            x       y       z     vdW  Elec       q    Type
REMARK                         _______ _______ _______ _____ _____    ______ ____
ROOT
ATOM      1  C   UNL     1       4.290   4.915  19.155  0.00  0.00    +0.000 A 
ATOM      2  C   UNL     1       3.582   6.114  19.059  0.00  0.00    +0.000 A 
ATOM      3  C   UNL     1       2.449   6.334  19.833  0.00  0.00    +0.000 A 
ATOM      4  N   UNL     1       1.934   5.377  20.621  0.00  0.00    +0.000 NA
ATOM      5  C   UNL     1       2.570   4.173  20.629  0.00  0.00    +0.000 A 
ATOM      6  C   UNL     1       3.733   3.891  19.921  0.00  0.00    +0.000 A 
ENDROOT
BRANCH   1   7
ATOM      7  N   UNL     1       5.591   4.817  18.602  0.00  0.00    +0.000 N 
ATOM      8  H   UNL     1       6.248   4.318  19.199  0.00  0.00    +0.000 HD
BRANCH   7  12
ATOM      9  C   UNL     1       6.736   7.223  17.410  0.00  0.00    +0.000 C 
ATOM     10  C   UNL     1       6.167   6.109  16.510  0.00  0.00    +0.000 C 
ATOM     11  C   UNL     1       5.027   6.669  15.656  0.00  0.00    +0.000 C 
ATOM     12  C   UNL     1       5.851   4.718  17.190  0.00  0.00    +0.000 C 
ATOM     13  C   UNL     1       7.298   4.296  16.872  0.00  0.00    +0.000 C 
ATOM     14  C   UNL     1       7.321   5.362  15.740  0.00  0.00    +0.000 C 
BRANCH  14  15
ATOM     15  C   UNL     1       7.059   4.822  14.301  0.00  0.00    +0.000 C 
ATOM     16  N   UNL     1       7.763   5.457  13.310  0.00  0.00    +0.000 N 
ATOM     17  O   UNL     1       6.320   3.887  13.999  0.00  0.00    +0.000 OA
ATOM     18  H   UNL     1       7.665   5.103  12.368  0.00  0.00    +0.000 HD
ATOM     19  H   UNL     1       8.427   6.196  13.486  0.00  0.00    +0.000 HD
ENDBRANCH  14  15
ENDBRANCH   7  12
ENDBRANCH   1   7
BRANCH   3  20
ATOM     20  N   UNL     1       1.874   7.605  19.737  0.00  0.00    +0.000 N 
ATOM     21  H   UNL     1       1.122   7.534  19.052  0.00  0.00    +0.000 HD
BRANCH  20  22
ATOM     22  C   UNL     1       1.424   8.215  20.972  0.00  0.00    +0.000 C 
BRANCH  22  23
ATOM     23  C   UNL     1       0.722   9.512  20.626  0.00  0.00    +0.000 A 
ATOM     24  C   UNL     1       0.928  10.065  19.361  0.00  0.00    +0.000 A 
ATOM     25  N   UNL     1       0.371  11.215  18.917  0.00  0.00    +0.000 NA
ATOM     26  C   UNL     1      -0.457  11.855  19.761  0.00  0.00    +0.000 A 
ATOM     27  C   UNL     1      -0.751  11.393  21.031  0.00  0.00    +0.000 A 
ATOM     28  C   UNL     1      -0.161  10.199  21.486  0.00  0.00    +0.000 A 
BRANCH  28  29
ATOM     29  C   UNL     1      -0.537   9.739  22.872  0.00  0.00    +0.000 C 
ATOM     30  F   UNL     1       0.497   9.606  23.747  0.00  0.00    +0.000 F 
ATOM     31  F   UNL     1      -1.413  10.593  23.473  0.00  0.00    +0.000 F 
ATOM     32  F   UNL     1      -1.156   8.524  22.861  0.00  0.00    +0.000 F 
ENDBRANCH  28  29
ENDBRANCH  22  23
ENDBRANCH  20  22
ENDBRANCH   3  20
BRANCH   6  33
ATOM     33  C   UNL     1       4.354   2.610  20.064  0.00  0.00    +0.000 C 
ATOM     34  N   UNL     1       4.840   1.568  20.199  0.00  0.00    +0.000 NA
ENDBRANCH   6  33
TORSDOF 8
ENDMDL
MODEL 2
REMARK VINA RESULT:      -8.2      1.953      2.269
REMARK  Name = 
REMARK  10 active torsions:
REMARK  status: ('A' for Active; 'I' for Inactive)
REMARK    1  A    between atoms: C_1  and  C_2
REMARK    2  A    between atoms: C_2  and  C_3
REMARK    3  A    between atoms: C_4  and  N_5
REMARK    4  A    between atoms: N_5  and  C_6
REMARK    5  A    between atoms: C_8  and  N_9
REMARK    6  A    between atoms: N_9  and  C_10
REMARK    7  A    between atoms: C_10  and  C_11
REMARK    8  A    between atoms: C_16  and  C_17
REMARK    9  A    between atoms: C_23  and  C_24
REMARK   10  A    between atoms: C_27  and  C_28
REMARK                            x       y       z     vdW  Elec       q    Type
REMARK                         _______ _______ _______ _____ _____    ______ ____
ROOT
ATOM      1  C   UNL     1       3.936   4.893  19.100  0.00  0.00    +0.000 A 
ATOM      2  C   UNL     1       3.530   6.128  19.605  0.00  0.00    +0.000 A 
ATOM      3  C   UNL     1       2.337   6.251  20.308  0.00  0.00    +0.000 A 
ATOM      4  N   UNL     1       1.486   5.221  20.442  0.00  0.00    +0.000 NA
ATOM      5  C   UNL     1       1.841   4.045  19.856  0.00  0.00    +0.000 A 
ATOM      6  C   UNL     1       3.036   3.831  19.178  0.00  0.00    +0.000 A 
ENDROOT
BRANCH   1   7
ATOM      7  N   UNL     1       5.271   4.716  18.659  0.00  0.00    +0.000 N 
ATOM      8  H   UNL     1       5.833   4.143  19.287  0.00  0.00    +0.000 HD
BRANCH   7  12
ATOM      9  C   UNL     1       6.498   7.155  17.628  0.00  0.00    +0.000 C 
ATOM     10  C   UNL     1       6.015   6.061  16.656  0.00  0.00    +0.000 C 
ATOM     11  C   UNL     1       4.948   6.638  15.722  0.00  0.00    +0.000 C 
ATOM     12  C   UNL     1       5.650   4.653  17.273  0.00  0.00    +0.000 C 
ATOM     13  C   UNL     1       7.122   4.245  17.068  0.00  0.00    +0.000 C 
ATOM     14  C   UNL     1       7.234   5.339  15.969  0.00  0.00    +0.000 C 
BRANCH  14  15
ATOM     15  C   UNL     1       7.099   4.834  14.499  0.00  0.00    +0.000 C 
ATOM     16  N   UNL     1       7.839   5.531  13.580  0.00  0.00    +0.000 N 
ATOM     17  O   UNL     1       6.427   3.876  14.119  0.00  0.00    +0.000 OA
ATOM     18  H   UNL     1       7.823   5.204  12.623  0.00  0.00    +0.000 HD
ATOM     19  H   UNL     1       8.453   6.294  13.824  0.00  0.00    +0.000 HD
ENDBRANCH  14  15
ENDBRANCH   7  12
ENDBRANCH   1   7
BRANCH   3  20
ATOM     20  N   UNL     1       2.072   7.509  20.859  0.00  0.00    +0.000 N 
ATOM     21  H   UNL     1       2.974   7.913  21.109  0.00  0.00    +0.000 HD
BRANCH  20  22
ATOM     22  C   UNL     1       1.274   8.417  20.062  0.00  0.00    +0.000 C 
BRANCH  22  23
ATOM     23  C   UNL     1       0.523   9.334  21.006  0.00  0.00    +0.000 A 
ATOM     24  C   UNL     1       0.674   9.143  22.381  0.00  0.00    +0.000 A 
ATOM     25  N   UNL     1       0.064   9.881  23.337  0.00  0.00    +0.000 NA
ATOM     26  C   UNL     1      -0.729  10.883  22.919  0.00  0.00    +0.000 A 
ATOM     27  C   UNL     1      -0.938  11.178  21.585  0.00  0.00    +0.000 A 
ATOM     28  C   UNL     1      -0.306  10.400  20.597  0.00  0.00    +0.000 A 
BRANCH  28  29
ATOM     29  C   UNL     1      -0.561  10.784  19.161  0.00  0.00    +0.000 C 
ATOM     30  F   UNL     1      -1.113   9.814  18.383  0.00  0.00    +0.000 F 
ATOM     31  F   UNL     1      -1.402  11.851  19.060  0.00  0.00    +0.000 F 
ATOM     32  F   UNL     1       0.583  11.154  18.517  0.00  0.00    +0.000 F 
ENDBRANCH  28  29
ENDBRANCH  22  23
ENDBRANCH  20  22
ENDBRANCH   3  20
BRANCH   6  33
ATOM     33  C   UNL     1       3.333   2.529  18.664  0.00  0.00    +0.000 C 
ATOM     34  N   UNL     1       3.547   1.471  18.244  0.00  0.00    +0.000 NA
ENDBRANCH   6  33
TORSDOF 8
ENDMDL
MODEL 3
REMARK VINA RESULT:      -8.1      4.661      9.029
REMARK  Name = 
REMARK  10 active torsions:
REMARK  status: ('A' for Active; 'I' for Inactive)
REMARK    1  A    between atoms: C_1  and  C_2
REMARK    2  A    between atoms: C_2  and  C_3
REMARK    3  A    between atoms: C_4  and  N_5
REMARK    4  A    between atoms: N_5  and  C_6
REMARK    5  A    between atoms: C_8  and  N_9
REMARK    6  A    between atoms: N_9  and  C_10
REMARK    7  A    between atoms: C_10  and  C_11
REMARK    8  A    between atoms: C_16  and  C_17
REMARK    9  A    between atoms: C_23  and  C_24
REMARK   10  A    between atoms: C_27  and  C_28
REMARK                            x       y       z     vdW  Elec       q    Type
REMARK                         _______ _______ _______ _____ _____    ______ ____
ROOT
ATOM      1  C   UNL     1       1.037   9.327  19.636  0.00  0.00    +0.000 A 
ATOM      2  C   UNL     1       1.877   8.778  18.667  0.00  0.00    +0.000 A 
ATOM      3  C   UNL     1       2.417   7.508  18.831  0.00  0.00    +0.000 A 
ATOM      4  N   UNL     1       2.239   6.804  19.960  0.00  0.00    +0.000 NA
ATOM      5  C   UNL     1       1.504   7.390  20.945  0.00  0.00    +0.000 A 
ATOM      6  C   UNL     1       0.893   8.634  20.839  0.00  0.00    +0.000 A 
ENDROOT
BRANCH   1   7
ATOM      7  N   UNL     1       0.261  10.472  19.331  0.00  0.00    +0.000 N 
ATOM      8  H   UNL     1       0.806  11.238  18.940  0.00  0.00    +0.000 HD
BRANCH   7  12
ATOM      9  C   UNL     1      -0.753  12.956  18.183  0.00  0.00    +0.000 C 
ATOM     10  C   UNL     1      -1.729  11.831  18.576  0.00  0.00    +0.000 C 
ATOM     11  C   UNL     1      -2.709  12.347  19.633  0.00  0.00    +0.000 C 
ATOM     12  C   UNL     1      -1.109  10.414  18.897  0.00  0.00    +0.000 C 
ATOM     13  C   UNL     1      -1.254  10.074  17.400  0.00  0.00    +0.000 C 
ATOM     14  C   UNL     1      -2.361  11.161  17.298  0.00  0.00    +0.000 C 
BRANCH  14  15
ATOM     15  C   UNL     1      -3.828  10.635  17.354  0.00  0.00    +0.000 C 
ATOM     16  N   UNL     1      -4.683  11.218  16.454  0.00  0.00    +0.000 N 
ATOM     17  O   UNL     1      -4.255   9.751  18.094  0.00  0.00    +0.000 OA
ATOM     18  H   UNL     1      -5.632  10.868  16.419  0.00  0.00    +0.000 HD
ATOM     19  H   UNL     1      -4.394  11.911  15.781  0.00  0.00    +0.000 HD
ENDBRANCH  14  15
ENDBRANCH   7  12
ENDBRANCH   1   7
BRANCH   3  20
ATOM     20  N   UNL     1       3.161   7.010  17.756  0.00  0.00    +0.000 N 
ATOM     21  H   UNL     1       3.986   7.605  17.673  0.00  0.00    +0.000 HD
BRANCH  20  22
ATOM     22  C   UNL     1       3.509   5.605  17.796  0.00  0.00    +0.000 C 
BRANCH  22  23
ATOM     23  C   UNL     1       5.006   5.498  18.001  0.00  0.00    +0.000 A 
ATOM     24  C   UNL     1       5.497   5.432  19.306  0.00  0.00    +0.000 A 
ATOM     25  N   UNL     1       6.805   5.337  19.639  0.00  0.00    +0.000 NA
ATOM     26  C   UNL     1       7.688   5.284  18.626  0.00  0.00    +0.000 A 
ATOM     27  C   UNL     1       7.317   5.322  17.294  0.00  0.00    +0.000 A 
ATOM     28  C   UNL     1       5.955   5.427  16.959  0.00  0.00    +0.000 A 
BRANCH  28  29
ATOM     29  C   UNL     1       5.615   5.446  15.489  0.00  0.00    +0.000 C 
ATOM     30  F   UNL     1       4.992   6.571  15.045  0.00  0.00    +0.000 F 
ATOM     31  F   UNL     1       6.723   5.312  14.708  0.00  0.00    +0.000 F 
ATOM     32  F   UNL     1       4.791   4.417  15.139  0.00  0.00    +0.000 F 
ENDBRANCH  28  29
ENDBRANCH  22  23
ENDBRANCH  20  22
ENDBRANCH   3  20
BRANCH   6  33
ATOM     33  C   UNL     1       0.085   9.119  21.915  0.00  0.00    +0.000 C 
ATOM     34  N   UNL     1      -0.586   9.523  22.769  0.00  0.00    +0.000 NA
ENDBRANCH   6  33
TORSDOF 8
ENDMDL
MODEL 4
REMARK VINA RESULT:      -8.0      2.137      2.469
REMARK  Name = 
REMARK  10 active torsions:
REMARK  status: ('A' for Active; 'I' for Inactive)
REMARK    1  A    between atoms: C_1  and  C_2
REMARK    2  A    between atoms: C_2  and  C_3
REMARK    3  A    between atoms: C_4  and  N_5
REMARK    4  A    between atoms: N_5  and  C_6
REMARK    5  A    between atoms: C_8  and  N_9
REMARK    6  A    between atoms: N_9  and  C_10
REMARK    7  A    between atoms: C_10  and  C_11
REMARK    8  A    between atoms: C_16  and  C_17
REMARK    9  A    between atoms: C_23  and  C_24
REMARK   10  A    between atoms: C_27  and  C_28
REMARK                            x       y       z     vdW  Elec       q    Type
REMARK                         _______ _______ _______ _____ _____    ______ ____
ROOT
ATOM      1  C   UNL     1       3.574   4.561  19.360  0.00  0.00    +0.000 A 
ATOM      2  C   UNL     1       2.973   5.707  19.882  0.00  0.00    +0.000 A 
ATOM      3  C   UNL     1       1.766   5.628  20.567  0.00  0.00    +0.000 A 
ATOM      4  N   UNL     1       1.084   4.477  20.665  0.00  0.00    +0.000 NA
ATOM      5  C   UNL     1       1.625   3.383  20.063  0.00  0.00    +0.000 A 
ATOM      6  C   UNL     1       2.847   3.371  19.401  0.00  0.00    +0.000 A 
ENDROOT
BRANCH   1   7
ATOM      7  N   UNL     1       4.926   4.602  18.938  0.00  0.00    +0.000 N 
ATOM      8  H   UNL     1       5.525   3.947  19.436  0.00  0.00    +0.000 HD
BRANCH   7  12
ATOM      9  C   UNL     1       7.703   5.458  18.669  0.00  0.00    +0.000 C 
ATOM     10  C   UNL     1       6.718   5.650  17.500  0.00  0.00    +0.000 C 
ATOM     11  C   UNL     1       6.608   7.138  17.160  0.00  0.00    +0.000 C 
ATOM     12  C   UNL     1       5.331   4.897  17.590  0.00  0.00    +0.000 C 
ATOM     13  C   UNL     1       5.999   3.700  16.885  0.00  0.00    +0.000 C 
ATOM     14  C   UNL     1       7.060   4.680  16.308  0.00  0.00    +0.000 C 
BRANCH  14  15
ATOM     15  C   UNL     1       6.815   5.150  14.841  0.00  0.00    +0.000 C 
ATOM     16  N   UNL     1       7.945   5.522  14.159  0.00  0.00    +0.000 N 
ATOM     17  O   UNL     1       5.732   5.184  14.260  0.00  0.00    +0.000 OA
ATOM     18  H   UNL     1       7.839   5.782  13.188  0.00  0.00    +0.000 HD
ATOM     19  H   UNL     1       8.873   5.471  14.552  0.00  0.00    +0.000 HD
ENDBRANCH  14  15
ENDBRANCH   7  12
ENDBRANCH   1   7
BRANCH   3  20
ATOM     20  N   UNL     1       1.302   6.818  21.138  0.00  0.00    +0.000 N 
ATOM     21  H   UNL     1       1.640   6.831  22.100  0.00  0.00    +0.000 HD
BRANCH  20  22
ATOM     22  C   UNL     1       1.616   8.046  20.437  0.00  0.00    +0.000 C 
BRANCH  22  23
ATOM     23  C   UNL     1       0.804   9.163  21.060  0.00  0.00    +0.000 A 
ATOM     24  C   UNL     1       0.767   9.262  22.453  0.00  0.00    +0.000 A 
ATOM     25  N   UNL     1       0.084  10.203  23.144  0.00  0.00    +0.000 NA
ATOM     26  C   UNL     1      -0.590  11.118  22.425  0.00  0.00    +0.000 A 
ATOM     27  C   UNL     1      -0.610  11.130  21.042  0.00  0.00    +0.000 A 
ATOM     28  C   UNL     1       0.098  10.143  20.332  0.00  0.00    +0.000 A 
BRANCH  28  29
ATOM     29  C   UNL     1       0.051  10.223  18.827  0.00  0.00    +0.000 C 
ATOM     30  F   UNL     1      -1.133   9.869  18.256  0.00  0.00    +0.000 F 
ATOM     31  F   UNL     1       0.310  11.481  18.374  0.00  0.00    +0.000 F 
ATOM     32  F   UNL     1       0.985   9.420  18.240  0.00  0.00    +0.000 F 
ENDBRANCH  28  29
ENDBRANCH  22  23
ENDBRANCH  20  22
ENDBRANCH   3  20
BRANCH   6  33
ATOM     33  C   UNL     1       3.350   2.142  18.867  0.00  0.00    +0.000 C 
ATOM     34  N   UNL     1       3.732   1.142  18.427  0.00  0.00    +0.000 NA
ENDBRANCH   6  33
TORSDOF 8
ENDMDL
MODEL 5
REMARK VINA RESULT:      -8.0      0.887      1.317
REMARK  Name = 
REMARK  10 active torsions:
REMARK  status: ('A' for Active; 'I' for Inactive)
REMARK    1  A    between atoms: C_1  and  C_2
REMARK    2  A    between atoms: C_2  and  C_3
REMARK    3  A    between atoms: C_4  and  N_5
REMARK    4  A    between atoms: N_5  and  C_6
REMARK    5  A    between atoms: C_8  and  N_9
REMARK    6  A    between atoms: N_9  and  C_10
REMARK    7  A    between atoms: C_10  and  C_11
REMARK    8  A    between atoms: C_16  and  C_17
REMARK    9  A    between atoms: C_23  and  C_24
REMARK   10  A    between atoms: C_27  and  C_28
REMARK                            x       y       z     vdW  Elec       q    Type
REMARK                         _______ _______ _______ _____ _____    ______ ____
ROOT
ATOM      1  C   UNL     1       3.836   4.933  19.695  0.00  0.00    +0.000 A 
ATOM      2  C   UNL     1       2.941   5.996  19.824  0.00  0.00    +0.000 A 
ATOM      3  C   UNL     1       1.739   5.835  20.502  0.00  0.00    +0.000 A 
ATOM      4  N   UNL     1       1.345   4.639  20.967  0.00  0.00    +0.000 NA
ATOM      5  C   UNL     1       2.176   3.584  20.746  0.00  0.00    +0.000 A 
ATOM      6  C   UNL     1       3.413   3.673  20.119  0.00  0.00    +0.000 A 
ENDROOT
BRANCH   1   7
ATOM      7  N   UNL     1       5.168   5.178  19.278  0.00  0.00    +0.000 N 
ATOM      8  H   UNL     1       5.864   4.689  19.838  0.00  0.00    +0.000 HD
BRANCH   7  12
ATOM      9  C   UNL     1       8.047   5.271  18.810  0.00  0.00    +0.000 C 
ATOM     10  C   UNL     1       7.071   5.776  17.730  0.00  0.00    +0.000 C 
ATOM     11  C   UNL     1       7.344   7.254  17.439  0.00  0.00    +0.000 C 
ATOM     12  C   UNL     1       5.543   5.418  17.910  0.00  0.00    +0.000 C 
ATOM     13  C   UNL     1       5.811   4.121  17.122  0.00  0.00    +0.000 C 
ATOM     14  C   UNL     1       7.054   4.807  16.488  0.00  0.00    +0.000 C 
BRANCH  14  15
ATOM     15  C   UNL     1       6.844   5.395  15.059  0.00  0.00    +0.000 C 
ATOM     16  N   UNL     1       7.975   5.449  14.286  0.00  0.00    +0.000 N 
ATOM     17  O   UNL     1       5.776   5.771  14.578  0.00  0.00    +0.000 OA
ATOM     18  H   UNL     1       7.873   5.773  13.333  0.00  0.00    +0.000 HD
ATOM     19  H   UNL     1       8.874   5.110  14.592  0.00  0.00    +0.000 HD
ENDBRANCH  14  15
ENDBRANCH   7  12
ENDBRANCH   1   7
BRANCH   3  20
ATOM     20  N   UNL     1       0.962   6.987  20.662  0.00  0.00    +0.000 N 
ATOM     21  H   UNL     1       0.255   6.766  21.363  0.00  0.00    +0.000 HD
BRANCH  20  22
ATOM     22  C   UNL     1       1.667   8.214  20.972  0.00  0.00    +0.000 C 
BRANCH  22  23
ATOM     23  C   UNL     1       0.818   9.375  20.499  0.00  0.00    +0.000 A 
ATOM     24  C   UNL     1       0.965   9.816  19.182  0.00  0.00    +0.000 A 
ATOM     25  N   UNL     1       0.278  10.840  18.626  0.00  0.00    +0.000 NA
ATOM     26  C   UNL     1      -0.626  11.460  19.404  0.00  0.00    +0.000 A 
ATOM     27  C   UNL     1      -0.871  11.099  20.716  0.00  0.00    +0.000 A 
ATOM     28  C   UNL     1      -0.147  10.037  21.288  0.00  0.00    +0.000 A 
BRANCH  28  29
ATOM     29  C   UNL     1      -0.474   9.681  22.717  0.00  0.00    +0.000 C 
ATOM     30  F   UNL     1      -1.326  10.530  23.353  0.00  0.00    +0.000 F 
ATOM     31  F   UNL     1      -1.048   8.450  22.817  0.00  0.00    +0.000 F 
ATOM     32  F   UNL     1       0.639   9.635  23.503  0.00  0.00    +0.000 F 
ENDBRANCH  28  29
ENDBRANCH  22  23
ENDBRANCH  20  22
ENDBRANCH   3  20
BRANCH   6  33
ATOM     33  C   UNL     1       4.234   2.507  20.006  0.00  0.00    +0.000 C 
ATOM     34  N   UNL     1       4.896   1.559  19.940  0.00  0.00    +0.000 NA
ENDBRANCH   6  33
TORSDOF 8
ENDMDL
MODEL 6
REMARK VINA RESULT:      -8.0      3.921      8.596
REMARK  Name = 
REMARK  10 active torsions:
REMARK  status: ('A' for Active; 'I' for Inactive)
REMARK    1  A    between atoms: C_1  and  C_2
REMARK    2  A    between atoms: C_2  and  C_3
REMARK    3  A    between atoms: C_4  and  N_5
REMARK    4  A    between atoms: N_5  and  C_6
REMARK    5  A    between atoms: C_8  and  N_9
REMARK    6  A    between atoms: N_9  and  C_10
REMARK    7  A    between atoms: C_10  and  C_11
REMARK    8  A    between atoms: C_16  and  C_17
REMARK    9  A    between atoms: C_23  and  C_24
REMARK   10  A    between atoms: C_27  and  C_28
REMARK                            x       y       z     vdW  Elec       q    Type
REMARK                         _______ _______ _______ _____ _____    ______ ____
ROOT
ATOM      1  C   UNL     1       1.100   9.469  19.386  0.00  0.00    +0.000 A 
ATOM      2  C   UNL     1       1.770   8.556  18.572  0.00  0.00    +0.000 A 
ATOM      3  C   UNL     1       2.187   7.328  19.073  0.00  0.00    +0.000 A 
ATOM      4  N   UNL     1       2.055   7.013  20.371  0.00  0.00    +0.000 NA
ATOM      5  C   UNL     1       1.495   7.952  21.182  0.00  0.00    +0.000 A 
ATOM      6  C   UNL     1       1.011   9.181  20.748  0.00  0.00    +0.000 A 
ENDROOT
BRANCH   1   7
ATOM      7  N   UNL     1       0.422  10.568  18.804  0.00  0.00    +0.000 N 
ATOM      8  H   UNL     1       0.958  11.033  18.073  0.00  0.00    +0.000 HD
BRANCH   7  12
ATOM      9  C   UNL     1      -0.611  13.224  18.173  0.00  0.00    +0.000 C 
ATOM     10  C   UNL     1      -1.572  12.107  18.622  0.00  0.00    +0.000 C 
ATOM     11  C   UNL     1      -2.290  12.532  19.905  0.00  0.00    +0.000 C 
ATOM     12  C   UNL     1      -1.007  10.632  18.649  0.00  0.00    +0.000 C 
ATOM     13  C   UNL     1      -1.461  10.491  17.183  0.00  0.00    +0.000 C 
ATOM     14  C   UNL     1      -2.485  11.635  17.429  0.00  0.00    +0.000 C 
BRANCH  14  15
ATOM     15  C   UNL     1      -3.948  11.178  17.716  0.00  0.00    +0.000 C 
ATOM     16  N   UNL     1      -4.907  12.129  17.475  0.00  0.00    +0.000 N 
ATOM     17  O   UNL     1      -4.300  10.064  18.100  0.00  0.00    +0.000 OA
ATOM     18  H   UNL     1      -5.873  11.857  17.596  0.00  0.00    +0.000 HD
ATOM     19  H   UNL     1      -4.699  13.046  17.110  0.00  0.00    +0.000 HD
ENDBRANCH  14  15
ENDBRANCH   7  12
ENDBRANCH   1   7
BRANCH   3  20
ATOM     20  N   UNL     1       2.757   6.446  18.149  0.00  0.00    +0.000 N 
ATOM     21  H   UNL     1       3.747   6.377  18.385  0.00  0.00    +0.000 HD
BRANCH  20  22
ATOM     22  C   UNL     1       2.140   5.142  18.023  0.00  0.00    +0.000 C 
BRANCH  22  23
ATOM     23  C   UNL     1       2.957   4.155  18.831  0.00  0.00    +0.000 A 
ATOM     24  C   UNL     1       4.331   4.075  18.593  0.00  0.00    +0.000 A 
ATOM     25  N   UNL     1       5.181   3.241  19.235  0.00  0.00    +0.000 NA
ATOM     26  C   UNL     1       4.655   2.448  20.185  0.00  0.00    +0.000 A 
ATOM     27  C   UNL     1       3.313   2.454  20.519  0.00  0.00    +0.000 A 
ATOM     28  C   UNL     1       2.435   3.320  19.841  0.00  0.00    +0.000 A 
BRANCH  28  29
ATOM     29  C   UNL     1       0.988   3.291  20.266  0.00  0.00    +0.000 C 
ATOM     30  F   UNL     1       0.412   4.507  20.471  0.00  0.00    +0.000 F 
ATOM     31  F   UNL     1       0.200   2.666  19.348  0.00  0.00    +0.000 F 
ATOM     32  F   UNL     1       0.809   2.609  21.433  0.00  0.00    +0.000 F 
ENDBRANCH  28  29
ENDBRANCH  22  23
ENDBRANCH  20  22
ENDBRANCH   3  20
BRANCH   6  33
ATOM     33  C   UNL     1       0.376  10.060  21.682  0.00  0.00    +0.000 C 
ATOM     34  N   UNL     1      -0.115  10.784  22.441  0.00  0.00    +0.000 NA
ENDBRANCH   6  33
TORSDOF 8
ENDMDL
MODEL 7
REMARK VINA RESULT:      -8.0      1.920      2.252
REMARK  Name = 
REMARK  10 active torsions:
REMARK  status: ('A' for Active; 'I' for Inactive)
REMARK    1  A    between atoms: C_1  and  C_2
REMARK    2  A    between atoms: C_2  and  C_3
REMARK    3  A    between atoms: C_4  and  N_5
REMARK    4  A    between atoms: N_5  and  C_6
REMARK    5  A    between atoms: C_8  and  N_9
REMARK    6  A    between atoms: N_9  and  C_10
REMARK    7  A    between atoms: C_10  and  C_11
REMARK    8  A    between atoms: C_16  and  C_17
REMARK    9  A    between atoms: C_23  and  C_24
REMARK   10  A    between atoms: C_27  and  C_28
REMARK                            x       y       z     vdW  Elec       q    Type
REMARK                         _______ _______ _______ _____ _____    ______ ____
ROOT
ATOM      1  C   UNL     1       3.939   4.942  19.502  0.00  0.00    +0.000 A 
ATOM      2  C   UNL     1       3.055   6.020  19.561  0.00  0.00    +0.000 A 
ATOM      3  C   UNL     1       1.890   5.943  20.315  0.00  0.00    +0.000 A 
ATOM      4  N   UNL     1       1.519   4.809  20.928  0.00  0.00    +0.000 NA
ATOM      5  C   UNL     1       2.334   3.729  20.780  0.00  0.00    +0.000 A 
ATOM      6  C   UNL     1       3.537   3.740  20.083  0.00  0.00    +0.000 A 
ENDROOT
BRANCH   1   7
ATOM      7  N   UNL     1       5.247   5.129  18.991  0.00  0.00    +0.000 N 
ATOM      8  H   UNL     1       5.980   4.918  19.666  0.00  0.00    +0.000 HD
BRANCH   7  12
ATOM      9  C   UNL     1       6.512   7.416  17.690  0.00  0.00    +0.000 C 
ATOM     10  C   UNL     1       5.990   6.237  16.847  0.00  0.00    +0.000 C 
ATOM     11  C   UNL     1       4.922   6.737  15.871  0.00  0.00    +0.000 C 
ATOM     12  C   UNL     1       5.604   4.911  17.614  0.00  0.00    +0.000 C 
ATOM     13  C   UNL     1       7.063   4.448  17.435  0.00  0.00    +0.000 C 
ATOM     14  C   UNL     1       7.182   5.418  16.224  0.00  0.00    +0.000 C 
BRANCH  14  15
ATOM     15  C   UNL     1       7.012   4.763  14.819  0.00  0.00    +0.000 C 
ATOM     16  N   UNL     1       7.684   5.395  13.804  0.00  0.00    +0.000 N 
ATOM     17  O   UNL     1       6.372   3.745  14.564  0.00  0.00    +0.000 OA
ATOM     18  H   UNL     1       7.645   4.973  12.886  0.00  0.00    +0.000 HD
ATOM     19  H   UNL     1       8.271   6.204  13.945  0.00  0.00    +0.000 HD
ENDBRANCH  14  15
ENDBRANCH   7  12
ENDBRANCH   1   7
BRANCH   3  20
ATOM     20  N   UNL     1       1.125   7.112  20.389  0.00  0.00    +0.000 N 
ATOM     21  H   UNL     1       0.428   6.959  21.118  0.00  0.00    +0.000 HD
BRANCH  20  22
ATOM     22  C   UNL     1       1.846   8.354  20.583  0.00  0.00    +0.000 C 
BRANCH  22  23
ATOM     23  C   UNL     1       0.908   9.342  21.246  0.00  0.00    +0.000 A 
ATOM     24  C   UNL     1       0.703   9.245  22.624  0.00  0.00    +0.000 A 
ATOM     25  N   UNL     1      -0.105  10.054  23.346  0.00  0.00    +0.000 NA
ATOM     26  C   UNL     1      -0.739  11.035  22.678  0.00  0.00    +0.000 A 
ATOM     27  C   UNL     1      -0.598  11.239  21.318  0.00  0.00    +0.000 A 
ATOM     28  C   UNL     1       0.240  10.387  20.574  0.00  0.00    +0.000 A 
BRANCH  28  29
ATOM     29  C   UNL     1       0.365  10.674  19.099  0.00  0.00    +0.000 C 
ATOM     30  F   UNL     1       1.632  10.866  18.642  0.00  0.00    +0.000 F 
ATOM     31  F   UNL     1      -0.147   9.667  18.338  0.00  0.00    +0.000 F 
ATOM     32  F   UNL     1      -0.321  11.796  18.734  0.00  0.00    +0.000 F 
ENDBRANCH  28  29
ENDBRANCH  22  23
ENDBRANCH  20  22
ENDBRANCH   3  20
BRANCH   6  33
ATOM     33  C   UNL     1       4.347   2.561  20.054  0.00  0.00    +0.000 C 
ATOM     34  N   UNL     1       5.015   1.615  20.054  0.00  0.00    +0.000 NA
ENDBRANCH   6  33
TORSDOF 8
ENDMDL
MODEL 8
REMARK VINA RESULT:      -7.9      2.608      3.145
REMARK  Name = 
REMARK  10 active torsions:
REMARK  status: ('A' for Active; 'I' for Inactive)
REMARK    1  A    between atoms: C_1  and  C_2
REMARK    2  A    between atoms: C_2  and  C_3
REMARK    3  A    between atoms: C_4  and  N_5
REMARK    4  A    between atoms: N_5  and  C_6
REMARK    5  A    between atoms: C_8  and  N_9
REMARK    6  A    between atoms: N_9  and  C_10
REMARK    7  A    between atoms: C_10  and  C_11
REMARK    8  A    between atoms: C_16  and  C_17
REMARK    9  A    between atoms: C_23  and  C_24
REMARK   10  A    between atoms: C_27  and  C_28
REMARK                            x       y       z     vdW  Elec       q    Type
REMARK                         _______ _______ _______ _____ _____    ______ ____
ROOT
ATOM      1  C   UNL     1       3.063   4.566  18.810  0.00  0.00    +0.000 A 
ATOM      2  C   UNL     1       2.469   5.688  19.388  0.00  0.00    +0.000 A 
ATOM      3  C   UNL     1       1.735   5.577  20.563  0.00  0.00    +0.000 A 
ATOM      4  N   UNL     1       1.483   4.387  21.130  0.00  0.00    +0.000 NA
ATOM      5  C   UNL     1       1.978   3.285  20.502  0.00  0.00    +0.000 A 
ATOM      6  C   UNL     1       2.759   3.317  19.352  0.00  0.00    +0.000 A 
ENDROOT
BRANCH   1   7
ATOM      7  N   UNL     1       4.045   4.729  17.801  0.00  0.00    +0.000 N 
ATOM      8  H   UNL     1       3.659   4.730  16.858  0.00  0.00    +0.000 HD
BRANCH   7  12
ATOM      9  C   UNL     1       5.681   4.978  15.397  0.00  0.00    +0.000 C 
ATOM     10  C   UNL     1       6.259   5.370  16.770  0.00  0.00    +0.000 C 
ATOM     11  C   UNL     1       7.487   4.508  17.076  0.00  0.00    +0.000 C 
ATOM     12  C   UNL     1       5.243   5.506  17.972  0.00  0.00    +0.000 C 
ATOM     13  C   UNL     1       5.062   6.986  17.579  0.00  0.00    +0.000 C 
ATOM     14  C   UNL     1       6.449   6.929  16.878  0.00  0.00    +0.000 C 
BRANCH  14  15
ATOM     15  C   UNL     1       7.644   7.502  17.701  0.00  0.00    +0.000 C 
ATOM     16  N   UNL     1       8.086   8.734  17.295  0.00  0.00    +0.000 N 
ATOM     17  O   UNL     1       8.181   6.967  18.670  0.00  0.00    +0.000 OA
ATOM     18  H   UNL     1       8.823   9.167  17.836  0.00  0.00    +0.000 HD
ATOM     19  H   UNL     1       7.661   9.257  16.544  0.00  0.00    +0.000 HD
ENDBRANCH  14  15
ENDBRANCH   7  12
ENDBRANCH   1   7
BRANCH   3  20
ATOM     20  N   UNL     1       1.268   6.775  21.115  0.00  0.00    +0.000 N 
ATOM     21  H   UNL     1       1.493   6.745  22.109  0.00  0.00    +0.000 HD
BRANCH  20  22
ATOM     22  C   UNL     1       1.723   8.002  20.494  0.00  0.00    +0.000 C 
BRANCH  22  23
ATOM     23  C   UNL     1       0.924   9.148  21.078  0.00  0.00    +0.000 A 
ATOM     24  C   UNL     1       0.693   9.165  22.455  0.00  0.00    +0.000 A 
ATOM     25  N   UNL     1      -0.004  10.121  23.112  0.00  0.00    +0.000 NA
ATOM     26  C   UNL     1      -0.488  11.136  22.376  0.00  0.00    +0.000 A 
ATOM     27  C   UNL     1      -0.305  11.235  21.008  0.00  0.00    +0.000 A 
ATOM     28  C   UNL     1       0.415  10.232  20.333  0.00  0.00    +0.000 A 
BRANCH  28  29
ATOM     29  C   UNL     1       0.594  10.408  18.846  0.00  0.00    +0.000 C 
ATOM     30  F   UNL     1       0.131   9.388  18.074  0.00  0.00    +0.000 F 
ATOM     31  F   UNL     1      -0.034  11.526  18.385  0.00  0.00    +0.000 F 
ATOM     32  F   UNL     1       1.906  10.553  18.500  0.00  0.00    +0.000 F 
ENDBRANCH  28  29
ENDBRANCH  22  23
ENDBRANCH  20  22
ENDBRANCH   3  20
BRANCH   6  33
ATOM     33  C   UNL     1       3.284   2.097  18.820  0.00  0.00    +0.000 C 
ATOM     34  N   UNL     1       3.695   1.113  18.368  0.00  0.00    +0.000 NA
ENDBRANCH   6  33
TORSDOF 8
ENDMDL
MODEL 9
REMARK VINA RESULT:      -7.8      2.587      3.105
REMARK  Name = 
REMARK  10 active torsions:
REMARK  status: ('A' for Active; 'I' for Inactive)
REMARK    1  A    between atoms: C_1  and  C_2
REMARK    2  A    between atoms: C_2  and  C_3
REMARK    3  A    between atoms: C_4  and  N_5
REMARK    4  A    between atoms: N_5  and  C_6
REMARK    5  A    between atoms: C_8  and  N_9
REMARK    6  A    between atoms: N_9  and  C_10
REMARK    7  A    between atoms: C_10  and  C_11
REMARK    8  A    between atoms: C_16  and  C_17
REMARK    9  A    between atoms: C_23  and  C_24
REMARK   10  A    between atoms: C_27  and  C_28
REMARK                            x       y       z     vdW  Elec       q    Type
REMARK                         _______ _______ _______ _____ _____    ______ ____
ROOT
ATOM      1  C   UNL     1       2.625   5.706  19.191  0.00  0.00    +0.000 A 
ATOM      2  C   UNL     1       2.464   6.925  18.531  0.00  0.00    +0.000 A 
ATOM      3  C   UNL     1       1.931   8.026  19.193  0.00  0.00    +0.000 A 
ATOM      4  N   UNL     1       1.459   7.937  20.446  0.00  0.00    +0.000 NA
ATOM      5  C   UNL     1       1.523   6.718  21.047  0.00  0.00    +0.000 A 
ATOM      6  C   UNL     1       2.084   5.583  20.471  0.00  0.00    +0.000 A 
ENDROOT
BRANCH   1   7
ATOM      7  N   UNL     1       3.434   4.695  18.616  0.00  0.00    +0.000 N 
ATOM      8  H   UNL     1       3.079   3.754  18.775  0.00  0.00    +0.000 HD
BRANCH   7  12
ATOM      9  C   UNL     1       6.276   5.229  19.010  0.00  0.00    +0.000 C 
ATOM     10  C   UNL     1       5.629   5.461  17.631  0.00  0.00    +0.000 C 
ATOM     11  C   UNL     1       5.781   6.930  17.232  0.00  0.00    +0.000 C 
ATOM     12  C   UNL     1       4.183   4.868  17.400  0.00  0.00    +0.000 C 
ATOM     13  C   UNL     1       4.853   3.568  16.915  0.00  0.00    +0.000 C 
ATOM     14  C   UNL     1       6.130   4.393  16.587  0.00  0.00    +0.000 C 
BRANCH  14  15
ATOM     15  C   UNL     1       6.301   4.804  15.092  0.00  0.00    +0.000 C 
ATOM     16  N   UNL     1       7.554   5.249  14.756  0.00  0.00    +0.000 N 
ATOM     17  O   UNL     1       5.441   4.733  14.216  0.00  0.00    +0.000 OA
ATOM     18  H   UNL     1       7.724   5.474  13.785  0.00  0.00    +0.000 HD
ATOM     19  H   UNL     1       8.324   5.285  15.407  0.00  0.00    +0.000 HD
ENDBRANCH  14  15
ENDBRANCH   7  12
ENDBRANCH   1   7
BRANCH   3  20
ATOM     20  N   UNL     1       1.907   9.226  18.473  0.00  0.00    +0.000 N 
ATOM     21  H   UNL     1       2.656   9.167  17.784  0.00  0.00    +0.000 HD
BRANCH  20  22
ATOM     22  C   UNL     1       0.645   9.602  17.870  0.00  0.00    +0.000 C 
BRANCH  22  23
ATOM     23  C   UNL     1       0.121  10.822  18.599  0.00  0.00    +0.000 A 
ATOM     24  C   UNL     1       1.008  11.559  19.386  0.00  0.00    +0.000 A 
ATOM     25  N   UNL     1       0.681  12.665  20.093  0.00  0.00    +0.000 NA
ATOM     26  C   UNL     1      -0.592  13.088  20.008  0.00  0.00    +0.000 A 
ATOM     27  C   UNL     1      -1.553  12.450  19.244  0.00  0.00    +0.000 A 
ATOM     28  C   UNL     1      -1.205  11.296  18.518  0.00  0.00    +0.000 A 
BRANCH  28  29
ATOM     29  C   UNL     1      -2.293  10.658  17.692  0.00  0.00    +0.000 C 
ATOM     30  F   UNL     1      -2.659   9.403  18.071  0.00  0.00    +0.000 F 
ATOM     31  F   UNL     1      -3.441  11.391  17.707  0.00  0.00    +0.000 F 
ATOM     32  F   UNL     1      -1.943  10.548  16.378  0.00  0.00    +0.000 F 
ENDBRANCH  28  29
ENDBRANCH  22  23
ENDBRANCH  20  22
ENDBRANCH   3  20
BRANCH   6  33
ATOM     33  C   UNL     1       2.160   4.371  21.226  0.00  0.00    +0.000 C 
ATOM     34  N   UNL     1       2.221   3.376  21.816  0.00  0.00    +0.000 NA
ENDBRANCH   6  33
TORSDOF 8
ENDMDL
