MODEL 1
REMARK VINA RESULT:      -7.6      0.000      0.000
REMARK  Name = 
REMARK  6 active torsions:
REMARK  status: ('A' for Active; 'I' for Inactive)
REMARK    1  A    between atoms: C_2  and  C_3
REMARK    2  A    between atoms: C_3  and  N_4
REMARK    3  A    between atoms: N_4  and  C_5
REMARK    4  A    between atoms: N_11  and  N_12
REMARK    5  A    between atoms: C_13  and  C_14
REMARK    6  A    between atoms: C_17  and  N_18
REMARK                            x       y       z     vdW  Elec       q    Type
REMARK                         _______ _______ _______ _____ _____    ______ ____
ROOT
ATOM      1  O   UNL     1       7.406   5.496  19.909  0.00  0.00    +0.000 OA
ATOM      2  C   UNL     1       7.180   5.622  18.706  0.00  0.00    +0.000 C 
ATOM      3  N   UNL     1       7.566   6.713  17.932  0.00  0.00    +0.000 N 
ATOM      4  H   UNL     1       7.203   6.825  16.991  0.00  0.00    +0.000 HD
ENDROOT
BRANCH   3   5
ATOM      5  N   UNL     1       8.303   7.708  18.510  0.00  0.00    +0.000 NA
ATOM      6  C   UNL     1       8.225   8.888  17.983  0.00  0.00    +0.000 C 
BRANCH   6   7
ATOM      7  C   UNL     1       8.977   9.971  18.558  0.00  0.00    +0.000 A 
ATOM      8  C   UNL     1       9.219  10.318  19.876  0.00  0.00    +0.000 A 
ATOM      9  C   UNL     1      10.015  11.490  19.860  0.00  0.00    +0.000 A 
ATOM     10  C   UNL     1      10.205  11.779  18.530  0.00  0.00    +0.000 A 
ATOM     11  O   UNL     1       9.589  10.870  17.722  0.00  0.00    +0.000 OA
BRANCH  10  12
ATOM     12  N   UNL     1      10.909  12.843  17.886  0.00  0.00    +0.000 N 
ATOM     13  O   UNL     1      10.255  13.866  17.640  0.00  0.00    +0.000 OA
ATOM     14  O   UNL     1      12.107  12.664  17.626  0.00  0.00    +0.000 OA
ENDBRANCH  10  12
ENDBRANCH   6   7
ENDBRANCH   3   5
BRANCH   2  15
ATOM     15  C   UNL     1       6.382   4.569  17.927  0.00  0.00    +0.000 C 
BRANCH  15  16
ATOM     16  N   UNL     1       5.607   3.748  18.865  0.00  0.00    +0.000 N 
ATOM     17  H   UNL     1       5.991   2.800  18.900  0.00  0.00    +0.000 HD
BRANCH  16  18
ATOM     18  C   UNL     1       4.212   3.705  18.713  0.00  0.00    +0.000 A 
ATOM     19  C   UNL     1       3.566   4.810  18.132  0.00  0.00    +0.000 A 
ATOM     20  C   UNL     1       2.193   4.800  17.872  0.00  0.00    +0.000 A 
ATOM     21  C   UNL     1       1.441   3.666  18.158  0.00  0.00    +0.000 A 
ATOM     22  C   UNL     1       2.066   2.547  18.699  0.00  0.00    +0.000 A 
ATOM     23  C   UNL     1       3.442   2.565  18.964  0.00  0.00    +0.000 A 
ENDBRANCH  16  18
ENDBRANCH  15  16
ENDBRANCH   2  15
TORSDOF 6
ENDMDL
MODEL 2
REMARK VINA RESULT:      -7.2      0.864      1.030
REMARK  Name = 
REMARK  6 active torsions:
REMARK  status: ('A' for Active; 'I' for Inactive)
REMARK    1  A    between atoms: C_2  and  C_3
REMARK    2  A    between atoms: C_3  and  N_4
REMARK    3  A    between atoms: N_4  and  C_5
REMARK    4  A    between atoms: N_11  and  N_12
REMARK    5  A    between atoms: C_13  and  C_14
REMARK    6  A    between atoms: C_17  and  N_18
REMARK                            x       y       z     vdW  Elec       q    Type
REMARK                         _______ _______ _______ _____ _____    ______ ____
ROOT
ATOM      1  O   UNL     1       7.827   5.630  19.041  0.00  0.00    +0.000 OA
ATOM      2  C   UNL     1       7.396   6.046  17.964  0.00  0.00    +0.000 C 
ATOM      3  N   UNL     1       7.581   7.338  17.478  0.00  0.00    +0.000 N 
ATOM      4  H   UNL     1       7.060   7.656  16.668  0.00  0.00    +0.000 HD
ENDROOT
BRANCH   3   5
ATOM      5  N   UNL     1       8.339   8.216  18.200  0.00  0.00    +0.000 NA
ATOM      6  C   UNL     1       8.302   9.461  17.848  0.00  0.00    +0.000 C 
BRANCH   6   7
ATOM      7  C   UNL     1       9.078  10.427  18.579  0.00  0.00    +0.000 A 
ATOM      8  C   UNL     1       9.403  10.511  19.923  0.00  0.00    +0.000 A 
ATOM      9  C   UNL     1      10.182  11.682  20.091  0.00  0.00    +0.000 A 
ATOM     10  C   UNL     1      10.281  12.234  18.836  0.00  0.00    +0.000 A 
ATOM     11  O   UNL     1       9.623  11.488  17.903  0.00  0.00    +0.000 OA
BRANCH  10  12
ATOM     12  N   UNL     1      10.929  13.421  18.375  0.00  0.00    +0.000 N 
ATOM     13  O   UNL     1      11.982  13.731  18.950  0.00  0.00    +0.000 OA
ATOM     14  O   UNL     1      10.396  14.042  17.445  0.00  0.00    +0.000 OA
ENDBRANCH  10  12
ENDBRANCH   6   7
ENDBRANCH   3   5
BRANCH   2  15
ATOM     15  C   UNL     1       6.549   5.159  17.044  0.00  0.00    +0.000 C 
BRANCH  15  16
ATOM     16  N   UNL     1       5.906   4.104  17.837  0.00  0.00    +0.000 N 
ATOM     17  H   UNL     1       6.276   3.189  17.567  0.00  0.00    +0.000 HD
BRANCH  16  18
ATOM     18  C   UNL     1       4.503   4.070  17.882  0.00  0.00    +0.000 A 
ATOM     19  C   UNL     1       3.808   5.280  18.046  0.00  0.00    +0.000 A 
ATOM     20  C   UNL     1       2.411   5.331  18.014  0.00  0.00    +0.000 A 
ATOM     21  C   UNL     1       1.680   4.171  17.781  0.00  0.00    +0.000 A 
ATOM     22  C   UNL     1       2.349   2.967  17.580  0.00  0.00    +0.000 A 
ATOM     23  C   UNL     1       3.749   2.921  17.621  0.00  0.00    +0.000 A 
ENDBRANCH  16  18
ENDBRANCH  15  16
ENDBRANCH   2  15
TORSDOF 6
ENDMDL
MODEL 3
REMARK VINA RESULT:      -7.2      2.756      9.563
REMARK  Name = 
REMARK  6 active torsions:
REMARK  status: ('A' for Active; 'I' for Inactive)
REMARK    1  A    between atoms: C_2  and  C_3
REMARK    2  A    between atoms: C_3  and  N_4
REMARK    3  A    between atoms: N_4  and  C_5
REMARK    4  A    between atoms: N_11  and  N_12
REMARK    5  A    between atoms: C_13  and  C_14
REMARK    6  A    between atoms: C_17  and  N_18
REMARK                            x       y       z     vdW  Elec       q    Type
REMARK                         _______ _______ _______ _____ _____    ______ ____
ROOT
ATOM      1  O   UNL     1       8.556   7.577  19.005  0.00  0.00    +0.000 OA
ATOM      2  C   UNL     1       8.108   8.254  18.080  0.00  0.00    +0.000 C 
ATOM      3  N   UNL     1       7.198   7.799  17.128  0.00  0.00    +0.000 N 
ATOM      4  H   UNL     1       7.002   8.357  16.303  0.00  0.00    +0.000 HD
ENDROOT
BRANCH   3   5
ATOM      5  N   UNL     1       6.706   6.530  17.235  0.00  0.00    +0.000 NA
ATOM      6  C   UNL     1       5.499   6.398  17.686  0.00  0.00    +0.000 C 
BRANCH   6   7
ATOM      7  C   UNL     1       4.931   5.082  17.813  0.00  0.00    +0.000 A 
ATOM      8  C   UNL     1       4.350   4.242  16.878  0.00  0.00    +0.000 A 
ATOM      9  C   UNL     1       3.951   3.068  17.563  0.00  0.00    +0.000 A 
ATOM     10  C   UNL     1       4.317   3.271  18.872  0.00  0.00    +0.000 A 
ATOM     11  O   UNL     1       4.918   4.482  19.046  0.00  0.00    +0.000 OA
BRANCH  10  12
ATOM     12  N   UNL     1       4.168   2.451  20.033  0.00  0.00    +0.000 N 
ATOM     13  O   UNL     1       3.138   2.624  20.699  0.00  0.00    +0.000 OA
ATOM     14  O   UNL     1       5.069   1.638  20.282  0.00  0.00    +0.000 OA
ENDBRANCH  10  12
ENDBRANCH   6   7
ENDBRANCH   3   5
BRANCH   2  15
ATOM     15  C   UNL     1       8.559   9.703  17.855  0.00  0.00    +0.000 C 
BRANCH  15  16
ATOM     16  N   UNL     1       9.193  10.213  19.076  0.00  0.00    +0.000 N 
ATOM     17  H   UNL     1       8.485  10.615  19.696  0.00  0.00    +0.000 HD
BRANCH  16  18
ATOM     18  C   UNL     1      10.281  11.091  18.941  0.00  0.00    +0.000 A 
ATOM     19  C   UNL     1      10.512  11.685  17.690  0.00  0.00    +0.000 A 
ATOM     20  C   UNL     1      11.523  12.633  17.506  0.00  0.00    +0.000 A 
ATOM     21  C   UNL     1      12.304  13.032  18.585  0.00  0.00    +0.000 A 
ATOM     22  C   UNL     1      12.069  12.483  19.842  0.00  0.00    +0.000 A 
ATOM     23  C   UNL     1      11.059  11.528  20.019  0.00  0.00    +0.000 A 
ENDBRANCH  16  18
ENDBRANCH  15  16
ENDBRANCH   2  15
TORSDOF 6
ENDMDL
MODEL 4
REMARK VINA RESULT:      -7.0      0.983      1.145
REMARK  Name = 
REMARK  6 active torsions:
REMARK  status: ('A' for Active; 'I' for Inactive)
REMARK    1  A    between atoms: C_2  and  C_3
REMARK    2  A    between atoms: C_3  and  N_4
REMARK    3  A    between atoms: N_4  and  C_5
REMARK    4  A    between atoms: N_11  and  N_12
REMARK    5  A    between atoms: C_13  and  C_14
REMARK    6  A    between atoms: C_17  and  N_18
REMARK                            x       y       z     vdW  Elec       q    Type
REMARK                         _______ _______ _______ _____ _____    ______ ____
ROOT
ATOM      1  O   UNL     1       7.578   5.421  19.483  0.00  0.00    +0.000 OA
ATOM      2  C   UNL     1       7.133   5.705  18.370  0.00  0.00    +0.000 C 
ATOM      3  N   UNL     1       7.351   6.911  17.709  0.00  0.00    +0.000 N 
ATOM      4  H   UNL     1       6.819   7.138  16.875  0.00  0.00    +0.000 HD
ENDROOT
BRANCH   3   5
ATOM      5  N   UNL     1       8.161   7.846  18.288  0.00  0.00    +0.000 NA
ATOM      6  C   UNL     1       8.047   9.068  17.874  0.00  0.00    +0.000 C 
BRANCH   6   7
ATOM      7  C   UNL     1       8.874  10.092  18.455  0.00  0.00    +0.000 A 
ATOM      8  C   UNL     1       9.455  10.198  19.707  0.00  0.00    +0.000 A 
ATOM      9  C   UNL     1      10.155  11.429  19.740  0.00  0.00    +0.000 A 
ATOM     10  C   UNL     1       9.953  11.992  18.503  0.00  0.00    +0.000 A 
ATOM     11  O   UNL     1       9.184  11.198  17.705  0.00  0.00    +0.000 OA
BRANCH  10  12
ATOM     12  N   UNL     1      10.397  13.231  17.945  0.00  0.00    +0.000 N 
ATOM     13  O   UNL     1      10.256  14.236  18.656  0.00  0.00    +0.000 OA
ATOM     14  O   UNL     1      10.885  13.206  16.807  0.00  0.00    +0.000 OA
ENDBRANCH  10  12
ENDBRANCH   6   7
ENDBRANCH   3   5
BRANCH   2  15
ATOM     15  C   UNL     1       6.227   4.737  17.599  0.00  0.00    +0.000 C 
BRANCH  15  16
ATOM     16  N   UNL     1       4.928   5.374  17.351  0.00  0.00    +0.000 N 
ATOM     17  H   UNL     1       5.010   6.388  17.459  0.00  0.00    +0.000 HD
BRANCH  16  18
ATOM     18  C   UNL     1       3.810   4.896  18.053  0.00  0.00    +0.000 A 
ATOM     19  C   UNL     1       3.526   5.442  19.316  0.00  0.00    +0.000 A 
ATOM     20  C   UNL     1       2.383   5.075  20.031  0.00  0.00    +0.000 A 
ATOM     21  C   UNL     1       1.478   4.174  19.479  0.00  0.00    +0.000 A 
ATOM     22  C   UNL     1       1.720   3.648  18.214  0.00  0.00    +0.000 A 
ATOM     23  C   UNL     1       2.872   4.015  17.504  0.00  0.00    +0.000 A 
ENDBRANCH  16  18
ENDBRANCH  15  16
ENDBRANCH   2  15
TORSDOF 6
ENDMDL
MODEL 5
REMARK VINA RESULT:      -7.0      6.484      8.086
REMARK  Name = 
REMARK  6 active torsions:
REMARK  status: ('A' for Active; 'I' for Inactive)
REMARK    1  A    between atoms: C_2  and  C_3
REMARK    2  A    between atoms: C_3  and  N_4
REMARK    3  A    between atoms: N_4  and  C_5
REMARK    4  A    between atoms: N_11  and  N_12
REMARK    5  A    between atoms: C_13  and  C_14
REMARK    6  A    between atoms: C_17  and  N_18
REMARK                            x       y       z     vdW  Elec       q    Type
REMARK                         _______ _______ _______ _____ _____    ______ ____
ROOT
ATOM      1  O   UNL     1       1.952   3.664  17.379  0.00  0.00    +0.000 OA
ATOM      2  C   UNL     1       2.726   4.341  18.055  0.00  0.00    +0.000 C 
ATOM      3  N   UNL     1       4.044   4.628  17.710  0.00  0.00    +0.000 N 
ATOM      4  H   UNL     1       4.669   5.049  18.389  0.00  0.00    +0.000 HD
ENDROOT
BRANCH   3   5
ATOM      5  N   UNL     1       4.525   4.187  16.510  0.00  0.00    +0.000 NA
ATOM      6  C   UNL     1       5.318   4.979  15.860  0.00  0.00    +0.000 C 
BRANCH   6   7
ATOM      7  C   UNL     1       5.856   4.560  14.594  0.00  0.00    +0.000 A 
ATOM      8  C   UNL     1       7.058   4.847  13.970  0.00  0.00    +0.000 A 
ATOM      9  C   UNL     1       7.054   4.171  12.725  0.00  0.00    +0.000 A 
ATOM     10  C   UNL     1       5.847   3.516  12.673  0.00  0.00    +0.000 A 
ATOM     11  O   UNL     1       5.106   3.733  13.797  0.00  0.00    +0.000 OA
BRANCH  10  12
ATOM     12  N   UNL     1       5.266   2.685  11.666  0.00  0.00    +0.000 N 
ATOM     13  O   UNL     1       5.941   1.713  11.300  0.00  0.00    +0.000 OA
ATOM     14  O   UNL     1       4.145   2.995  11.242  0.00  0.00    +0.000 OA
ENDBRANCH  10  12
ENDBRANCH   6   7
ENDBRANCH   3   5
BRANCH   2  15
ATOM     15  C   UNL     1       2.308   4.917  19.414  0.00  0.00    +0.000 C 
BRANCH  15  16
ATOM     16  N   UNL     1       3.000   6.192  19.640  0.00  0.00    +0.000 N 
ATOM     17  H   UNL     1       3.370   6.224  20.593  0.00  0.00    +0.000 HD
BRANCH  16  18
ATOM     18  C   UNL     1       2.314   7.380  19.340  0.00  0.00    +0.000 A 
ATOM     19  C   UNL     1       1.637   8.043  20.377  0.00  0.00    +0.000 A 
ATOM     20  C   UNL     1       1.006   9.273  20.168  0.00  0.00    +0.000 A 
ATOM     21  C   UNL     1       1.072   9.884  18.920  0.00  0.00    +0.000 A 
ATOM     22  C   UNL     1       1.769   9.262  17.889  0.00  0.00    +0.000 A 
ATOM     23  C   UNL     1       2.393   8.026  18.101  0.00  0.00    +0.000 A 
ENDBRANCH  16  18
ENDBRANCH  15  16
ENDBRANCH   2  15
TORSDOF 6
ENDMDL
MODEL 6
REMARK VINA RESULT:      -7.0      2.009      2.269
REMARK  Name = 
REMARK  6 active torsions:
REMARK  status: ('A' for Active; 'I' for Inactive)
REMARK    1  A    between atoms: C_2  and  C_3
REMARK    2  A    between atoms: C_3  and  N_4
REMARK    3  A    between atoms: N_4  and  C_5
REMARK    4  A    between atoms: N_11  and  N_12
REMARK    5  A    between atoms: C_13  and  C_14
REMARK    6  A    between atoms: C_17  and  N_18
REMARK                            x       y       z     vdW  Elec       q    Type
REMARK                         _______ _______ _______ _____ _____    ______ ____
ROOT
ATOM      1  O   UNL     1       5.450   6.866  15.602  0.00  0.00    +0.000 OA
ATOM      2  C   UNL     1       6.162   5.980  16.075  0.00  0.00    +0.000 C 
ATOM      3  N   UNL     1       7.407   6.187  16.662  0.00  0.00    +0.000 N 
ATOM      4  H   UNL     1       8.006   5.397  16.878  0.00  0.00    +0.000 HD
ENDROOT
BRANCH   3   5
ATOM      5  N   UNL     1       7.876   7.464  16.789  0.00  0.00    +0.000 NA
ATOM      6  C   UNL     1       7.888   7.976  17.979  0.00  0.00    +0.000 C 
BRANCH   6   7
ATOM      7  C   UNL     1       8.377   9.316  18.166  0.00  0.00    +0.000 A 
ATOM      8  C   UNL     1       8.065  10.503  17.525  0.00  0.00    +0.000 A 
ATOM      9  C   UNL     1       8.864  11.516  18.110  0.00  0.00    +0.000 A 
ATOM     10  C   UNL     1       9.611  10.878  19.071  0.00  0.00    +0.000 A 
ATOM     11  O   UNL     1       9.329   9.545  19.127  0.00  0.00    +0.000 OA
BRANCH  10  12
ATOM     12  N   UNL     1      10.600  11.368  19.978  0.00  0.00    +0.000 N 
ATOM     13  O   UNL     1      10.194  11.726  21.093  0.00  0.00    +0.000 OA
ATOM     14  O   UNL     1      11.775  11.397  19.586  0.00  0.00    +0.000 OA
ENDBRANCH  10  12
ENDBRANCH   6   7
ENDBRANCH   3   5
BRANCH   2  15
ATOM     15  C   UNL     1       5.747   4.504  16.019  0.00  0.00    +0.000 C 
BRANCH  15  16
ATOM     16  N   UNL     1       5.580   3.991  17.384  0.00  0.00    +0.000 N 
ATOM     17  H   UNL     1       5.862   3.008  17.424  0.00  0.00    +0.000 HD
BRANCH  16  18
ATOM     18  C   UNL     1       4.337   4.169  18.013  0.00  0.00    +0.000 A 
ATOM     19  C   UNL     1       4.298   4.857  19.238  0.00  0.00    +0.000 A 
ATOM     20  C   UNL     1       3.088   5.145  19.875  0.00  0.00    +0.000 A 
ATOM     21  C   UNL     1       1.885   4.780  19.279  0.00  0.00    +0.000 A 
ATOM     22  C   UNL     1       1.899   4.130  18.049  0.00  0.00    +0.000 A 
ATOM     23  C   UNL     1       3.115   3.838  17.418  0.00  0.00    +0.000 A 
ENDBRANCH  16  18
ENDBRANCH  15  16
ENDBRANCH   2  15
TORSDOF 6
ENDMDL
MODEL 7
REMARK VINA RESULT:      -6.9      5.867      7.603
REMARK  Name = 
REMARK  6 active torsions:
REMARK  status: ('A' for Active; 'I' for Inactive)
REMARK    1  A    between atoms: C_2  and  C_3
REMARK    2  A    between atoms: C_3  and  N_4
REMARK    3  A    between atoms: N_4  and  C_5
REMARK    4  A    between atoms: N_11  and  N_12
REMARK    5  A    between atoms: C_13  and  C_14
REMARK    6  A    between atoms: C_17  and  N_18
REMARK                            x       y       z     vdW  Elec       q    Type
REMARK                         _______ _______ _______ _____ _____    ______ ____
ROOT
ATOM      1  O   UNL     1       3.857   5.100  17.279  0.00  0.00    +0.000 OA
ATOM      2  C   UNL     1       4.851   4.969  17.994  0.00  0.00    +0.000 C 
ATOM      3  N   UNL     1       6.051   4.389  17.592  0.00  0.00    +0.000 N 
ATOM      4  H   UNL     1       6.764   4.166  18.278  0.00  0.00    +0.000 HD
ENDROOT
BRANCH   3   5
ATOM      5  N   UNL     1       6.185   3.975  16.297  0.00  0.00    +0.000 NA
ATOM      6  C   UNL     1       6.526   4.866  15.421  0.00  0.00    +0.000 C 
BRANCH   6   7
ATOM      7  C   UNL     1       6.686   4.480  14.044  0.00  0.00    +0.000 A 
ATOM      8  C   UNL     1       7.556   4.927  13.064  0.00  0.00    +0.000 A 
ATOM      9  C   UNL     1       7.260   4.203  11.883  0.00  0.00    +0.000 A 
ATOM     10  C   UNL     1       6.228   3.362  12.223  0.00  0.00    +0.000 A 
ATOM     11  O   UNL     1       5.867   3.509  13.529  0.00  0.00    +0.000 OA
BRANCH  10  12
ATOM     12  N   UNL     1       5.499   2.403  11.454  0.00  0.00    +0.000 N 
ATOM     13  O   UNL     1       6.115   1.380  11.125  0.00  0.00    +0.000 OA
ATOM     14  O   UNL     1       4.320   2.663  11.180  0.00  0.00    +0.000 OA
ENDBRANCH  10  12
ENDBRANCH   6   7
ENDBRANCH   3   5
BRANCH   2  15
ATOM     15  C   UNL     1       4.845   5.411  19.463  0.00  0.00    +0.000 C 
BRANCH  15  16
ATOM     16  N   UNL     1       3.481   5.784  19.857  0.00  0.00    +0.000 N 
ATOM     17  H   UNL     1       3.510   6.553  20.531  0.00  0.00    +0.000 HD
BRANCH  16  18
ATOM     18  C   UNL     1       2.620   4.771  20.307  0.00  0.00    +0.000 A 
ATOM     19  C   UNL     1       1.528   4.410  19.500  0.00  0.00    +0.000 A 
ATOM     20  C   UNL     1       0.682   3.353  19.845  0.00  0.00    +0.000 A 
ATOM     21  C   UNL     1       0.933   2.609  20.993  0.00  0.00    +0.000 A 
ATOM     22  C   UNL     1       2.030   2.926  21.789  0.00  0.00    +0.000 A 
ATOM     23  C   UNL     1       2.871   3.991  21.441  0.00  0.00    +0.000 A 
ENDBRANCH  16  18
ENDBRANCH  15  16
ENDBRANCH   2  15
TORSDOF 6
ENDMDL
MODEL 8
REMARK VINA RESULT:      -6.8      5.539      6.482
REMARK  Name = 
REMARK  6 active torsions:
REMARK  status: ('A' for Active; 'I' for Inactive)
REMARK    1  A    between atoms: C_2  and  C_3
REMARK    2  A    between atoms: C_3  and  N_4
REMARK    3  A    between atoms: N_4  and  C_5
REMARK    4  A    between atoms: N_11  and  N_12
REMARK    5  A    between atoms: C_13  and  C_14
REMARK    6  A    between atoms: C_17  and  N_18
REMARK                            x       y       z     vdW  Elec       q    Type
REMARK                         _______ _______ _______ _____ _____    ______ ____
ROOT
ATOM      1  O   UNL     1       5.286   5.667  19.700  0.00  0.00    +0.000 OA
ATOM      2  C   UNL     1       4.906   5.172  18.638  0.00  0.00    +0.000 C 
ATOM      3  N   UNL     1       4.040   5.787  17.738  0.00  0.00    +0.000 N 
ATOM      4  H   UNL     1       3.642   5.256  16.971  0.00  0.00    +0.000 HD
ENDROOT
BRANCH   3   5
ATOM      5  N   UNL     1       3.608   7.057  17.996  0.00  0.00    +0.000 NA
ATOM      6  C   UNL     1       2.369   7.203  18.342  0.00  0.00    +0.000 C 
BRANCH   6   7
ATOM      7  C   UNL     1       1.865   8.520  18.630  0.00  0.00    +0.000 A 
ATOM      8  C   UNL     1       1.762   9.653  17.840  0.00  0.00    +0.000 A 
ATOM      9  C   UNL     1       1.203  10.674  18.647  0.00  0.00    +0.000 A 
ATOM     10  C   UNL     1       1.001  10.094  19.877  0.00  0.00    +0.000 A 
ATOM     11  O   UNL     1       1.391   8.787  19.889  0.00  0.00    +0.000 OA
BRANCH  10  12
ATOM     12  N   UNL     1       0.477  10.623  21.097  0.00  0.00    +0.000 N 
ATOM     13  O   UNL     1      -0.440  11.449  20.988  0.00  0.00    +0.000 OA
ATOM     14  O   UNL     1       0.973  10.220  22.158  0.00  0.00    +0.000 OA
ENDBRANCH  10  12
ENDBRANCH   6   7
ENDBRANCH   3   5
BRANCH   2  15
ATOM     15  C   UNL     1       5.333   3.762  18.215  0.00  0.00    +0.000 C 
BRANCH  15  16
ATOM     16  N   UNL     1       4.848   2.786  19.198  0.00  0.00    +0.000 N 
ATOM     17  H   UNL     1       5.244   1.864  19.001  0.00  0.00    +0.000 HD
BRANCH  16  18
ATOM     18  C   UNL     1       3.463   2.689  19.407  0.00  0.00    +0.000 A 
ATOM     19  C   UNL     1       2.950   3.025  20.671  0.00  0.00    +0.000 A 
ATOM     20  C   UNL     1       1.575   3.034  20.924  0.00  0.00    +0.000 A 
ATOM     21  C   UNL     1       0.680   2.738  19.901  0.00  0.00    +0.000 A 
ATOM     22  C   UNL     1       1.164   2.437  18.632  0.00  0.00    +0.000 A 
ATOM     23  C   UNL     1       2.544   2.423  18.386  0.00  0.00    +0.000 A 
ENDBRANCH  16  18
ENDBRANCH  15  16
ENDBRANCH   2  15
TORSDOF 6
ENDMDL
MODEL 9
REMARK VINA RESULT:      -6.8      5.697      8.238
REMARK  Name = 
REMARK  6 active torsions:
REMARK  status: ('A' for Active; 'I' for Inactive)
REMARK    1  A    between atoms: C_2  and  C_3
REMARK    2  A    between atoms: C_3  and  N_4
REMARK    3  A    between atoms: N_4  and  C_5
REMARK    4  A    between atoms: N_11  and  N_12
REMARK    5  A    between atoms: C_13  and  C_14
REMARK    6  A    between atoms: C_17  and  N_18
REMARK                            x       y       z     vdW  Elec       q    Type
REMARK                         _______ _______ _______ _____ _____    ______ ____
ROOT
ATOM      1  O   UNL     1       1.054   8.842  20.266  0.00  0.00    +0.000 OA
ATOM      2  C   UNL     1       1.147   9.387  19.165  0.00  0.00    +0.000 C 
ATOM      3  N   UNL     1       1.920   8.916  18.106  0.00  0.00    +0.000 N 
ATOM      4  H   UNL     1       2.078   9.501  17.293  0.00  0.00    +0.000 HD
ENDROOT
BRANCH   3   5
ATOM      5  N   UNL     1       2.591   7.735  18.249  0.00  0.00    +0.000 NA
ATOM      6  C   UNL     1       3.478   7.444  17.352  0.00  0.00    +0.000 C 
BRANCH   6   7
ATOM      7  C   UNL     1       4.216   6.214  17.460  0.00  0.00    +0.000 A 
ATOM      8  C   UNL     1       3.814   4.893  17.355  0.00  0.00    +0.000 A 
ATOM      9  C   UNL     1       4.962   4.090  17.564  0.00  0.00    +0.000 A 
ATOM     10  C   UNL     1       5.989   4.976  17.783  0.00  0.00    +0.000 A 
ATOM     11  O   UNL     1       5.562   6.270  17.720  0.00  0.00    +0.000 OA
BRANCH  10  12
ATOM     12  N   UNL     1       7.375   4.767  18.063  0.00  0.00    +0.000 N 
ATOM     13  O   UNL     1       8.052   4.279  17.147  0.00  0.00    +0.000 OA
ATOM     14  O   UNL     1       7.789   5.085  19.186  0.00  0.00    +0.000 OA
ENDBRANCH  10  12
ENDBRANCH   6   7
ENDBRANCH   3   5
BRANCH   2  15
ATOM     15  C   UNL     1       0.428  10.707  18.862  0.00  0.00    +0.000 C 
BRANCH  15  16
ATOM     16  N   UNL     1      -1.000  10.570  19.175  0.00  0.00    +0.000 N 
ATOM     17  H   UNL     1      -1.162   9.702  19.692  0.00  0.00    +0.000 HD
BRANCH  16  18
ATOM     18  C   UNL     1      -1.924  10.696  18.126  0.00  0.00    +0.000 A 
ATOM     19  C   UNL     1      -1.786   9.860  17.006  0.00  0.00    +0.000 A 
ATOM     20  C   UNL     1      -2.718   9.872  15.965  0.00  0.00    +0.000 A 
ATOM     21  C   UNL     1      -3.832  10.701  16.041  0.00  0.00    +0.000 A 
ATOM     22  C   UNL     1      -4.008  11.512  17.158  0.00  0.00    +0.000 A 
ATOM     23  C   UNL     1      -3.067  11.501  18.195  0.00  0.00    +0.000 A 
ENDBRANCH  16  18
ENDBRANCH  15  16
ENDBRANCH   2  15
TORSDOF 6
ENDMDL
