MODEL 1
REMARK VINA RESULT:      -9.5      0.000      0.000
REMARK  Name = 
REMARK  7 active torsions:
REMARK  status: ('A' for Active; 'I' for Inactive)
REMARK    1  A    between atoms: N_12  and  C_13
REMARK    2  A    between atoms: C_13  and  C_14
REMARK    3  A    between atoms: C_14  and  C_15
REMARK    4  A    between atoms: C_15  and  C_16
REMARK    5  A    between atoms: C_16  and  N_17
REMARK    6  A    between atoms: N_20  and  C_21
REMARK    7  A    between atoms: C_25  and  C_26
REMARK                            x       y       z     vdW  Elec       q    Type
REMARK                         _______ _______ _______ _____ _____    ______ ____
ROOT
ATOM      1  C   UNL     1       2.000   2.322  19.861  0.00  0.00    +0.000 C 
ENDROOT
BRANCH   1   2
ATOM      2  N   UNL     1       3.060   1.891  18.946  0.00  0.00    +0.000 NA
ATOM      3  C   UNL     1       2.789   2.207  17.526  0.00  0.00    +0.000 C 
ATOM      4  C   UNL     1       3.008   3.684  17.138  0.00  0.00    +0.000 C 
ATOM      5  N   UNL     1       4.381   4.109  17.444  0.00  0.00    +0.000 N 
ATOM      6  C   UNL     1       4.798   3.837  18.835  0.00  0.00    +0.000 C 
ATOM      7  C   UNL     1       4.398   2.411  19.312  0.00  0.00    +0.000 C 
BRANCH   5   8
ATOM      8  C   UNL     1       5.338   4.282  16.456  0.00  0.00    +0.000 A 
ATOM      9  C   UNL     1       6.580   4.889  16.692  0.00  0.00    +0.000 A 
ATOM     10  C   UNL     1       7.533   5.050  15.678  0.00  0.00    +0.000 A 
ATOM     11  C   UNL     1       7.261   4.608  14.388  0.00  0.00    +0.000 A 
ATOM     12  C   UNL     1       6.039   3.993  14.106  0.00  0.00    +0.000 A 
ATOM     13  C   UNL     1       5.106   3.820  15.149  0.00  0.00    +0.000 A 
BRANCH  12  14
ATOM     14  C   UNL     1       5.697   3.532  12.714  0.00  0.00    +0.000 C 
ATOM     15  F   UNL     1       5.864   2.191  12.526  0.00  0.00    +0.000 F 
ATOM     16  F   UNL     1       4.408   3.797  12.368  0.00  0.00    +0.000 F 
ATOM     17  F   UNL     1       6.469   4.135  11.765  0.00  0.00    +0.000 F 
ENDBRANCH  12  14
ENDBRANCH   5   8
ENDBRANCH   1   2
BRANCH   1  18
ATOM     18  C   UNL     1       1.209   3.538  19.332  0.00  0.00    +0.000 C 
BRANCH  18  19
ATOM     19  C   UNL     1       1.162   4.749  20.279  0.00  0.00    +0.000 C 
BRANCH  19  20
ATOM     20  C   UNL     1       2.415   5.631  20.213  0.00  0.00    +0.000 C 
BRANCH  20  32
ATOM     21  O   UNL     1       3.119   6.949  17.782  0.00  0.00    +0.000 OA
ATOM     22  C   UNL     1       2.447   7.536  18.630  0.00  0.00    +0.000 A 
ATOM     23  C   UNL     1       1.944   8.896  18.332  0.00  0.00    +0.000 A 
ATOM     24  C   UNL     1       1.193   9.570  19.213  0.00  0.00    +0.000 A 
ATOM     25  C   UNL     1       0.986   8.910  20.509  0.00  0.00    +0.000 A 
ATOM     26  N   UNL     1       0.285   9.675  21.454  0.00  0.00    +0.000 N 
ATOM     27  C   UNL     1      -0.639  10.681  21.247  0.00  0.00    +0.000 A 
ATOM     28  C   UNL     1      -1.035  11.094  22.499  0.00  0.00    +0.000 A 
ATOM     29  N   UNL     1      -0.375  10.398  23.470  0.00  0.00    +0.000 NA
ATOM     30  C   UNL     1       0.389   9.543  22.821  0.00  0.00    +0.000 A 
ATOM     31  N   UNL     1       1.409   7.734  20.833  0.00  0.00    +0.000 NA
ATOM     32  N   UNL     1       2.097   7.020  19.870  0.00  0.00    +0.000 N 
ENDBRANCH  20  32
ENDBRANCH  19  20
ENDBRANCH  18  19
ENDBRANCH   1  18
TORSDOF 7
ENDMDL
MODEL 2
REMARK VINA RESULT:      -8.7      4.531      8.520
REMARK  Name = 
REMARK  7 active torsions:
REMARK  status: ('A' for Active; 'I' for Inactive)
REMARK    1  A    between atoms: N_12  and  C_13
REMARK    2  A    between atoms: C_13  and  C_14
REMARK    3  A    between atoms: C_14  and  C_15
REMARK    4  A    between atoms: C_15  and  C_16
REMARK    5  A    between atoms: C_16  and  N_17
REMARK    6  A    between atoms: N_20  and  C_21
REMARK    7  A    between atoms: C_25  and  C_26
REMARK                            x       y       z     vdW  Elec       q    Type
REMARK                         _______ _______ _______ _____ _____    ______ ____
ROOT
ATOM      1  C   UNL     1       2.355   2.108  19.739  0.00  0.00    +0.000 C 
ENDROOT
BRANCH   1   2
ATOM      2  N   UNL     1       1.341   3.157  19.895  0.00  0.00    +0.000 NA
ATOM      3  C   UNL     1       1.613   4.090  21.010  0.00  0.00    +0.000 C 
ATOM      4  C   UNL     1       2.705   5.141  20.722  0.00  0.00    +0.000 C 
ATOM      5  N   UNL     1       2.367   5.937  19.535  0.00  0.00    +0.000 N 
ATOM      6  C   UNL     1       2.052   5.129  18.339  0.00  0.00    +0.000 C 
ATOM      7  C   UNL     1       1.108   3.935  18.656  0.00  0.00    +0.000 C 
BRANCH   5   8
ATOM      8  C   UNL     1       1.912   7.244  19.627  0.00  0.00    +0.000 A 
ATOM      9  C   UNL     1       1.985   8.157  18.565  0.00  0.00    +0.000 A 
ATOM     10  C   UNL     1       1.515   9.470  18.681  0.00  0.00    +0.000 A 
ATOM     11  C   UNL     1       0.959   9.911  19.876  0.00  0.00    +0.000 A 
ATOM     12  C   UNL     1       0.860   9.035  20.961  0.00  0.00    +0.000 A 
ATOM     13  C   UNL     1       1.318   7.711  20.812  0.00  0.00    +0.000 A 
BRANCH  12  14
ATOM     14  C   UNL     1       0.294   9.487  22.281  0.00  0.00    +0.000 C 
ATOM     15  F   UNL     1      -0.851   8.836  22.636  0.00  0.00    +0.000 F 
ATOM     16  F   UNL     1       1.158   9.310  23.318  0.00  0.00    +0.000 F 
ATOM     17  F   UNL     1      -0.022  10.814  22.283  0.00  0.00    +0.000 F 
ENDBRANCH  12  14
ENDBRANCH   5   8
ENDBRANCH   1   2
BRANCH   1  18
ATOM     18  C   UNL     1       2.708   1.831  18.262  0.00  0.00    +0.000 C 
BRANCH  18  19
ATOM     19  C   UNL     1       4.169   2.117  17.876  0.00  0.00    +0.000 C 
BRANCH  19  20
ATOM     20  C   UNL     1       4.824   3.220  18.716  0.00  0.00    +0.000 C 
BRANCH  20  32
ATOM     21  O   UNL     1       6.112   5.584  19.663  0.00  0.00    +0.000 OA
ATOM     22  C   UNL     1       6.195   5.268  18.477  0.00  0.00    +0.000 A 
ATOM     23  C   UNL     1       7.039   6.085  17.575  0.00  0.00    +0.000 A 
ATOM     24  C   UNL     1       7.178   5.774  16.279  0.00  0.00    +0.000 A 
ATOM     25  C   UNL     1       6.375   4.638  15.808  0.00  0.00    +0.000 A 
ATOM     26  N   UNL     1       6.455   4.393  14.428  0.00  0.00    +0.000 N 
ATOM     27  C   UNL     1       7.483   4.684  13.550  0.00  0.00    +0.000 A 
ATOM     28  C   UNL     1       7.068   4.226  12.319  0.00  0.00    +0.000 A 
ATOM     29  N   UNL     1       5.818   3.686  12.399  0.00  0.00    +0.000 NA
ATOM     30  C   UNL     1       5.483   3.778  13.670  0.00  0.00    +0.000 A 
ATOM     31  N   UNL     1       5.613   3.897  16.540  0.00  0.00    +0.000 NA
ATOM     32  N   UNL     1       5.564   4.179  17.892  0.00  0.00    +0.000 N 
ENDBRANCH  20  32
ENDBRANCH  19  20
ENDBRANCH  18  19
ENDBRANCH   1  18
TORSDOF 7
ENDMDL
MODEL 3
REMARK VINA RESULT:      -8.7      6.862      8.352
REMARK  Name = 
REMARK  7 active torsions:
REMARK  status: ('A' for Active; 'I' for Inactive)
REMARK    1  A    between atoms: N_12  and  C_13
REMARK    2  A    between atoms: C_13  and  C_14
REMARK    3  A    between atoms: C_14  and  C_15
REMARK    4  A    between atoms: C_15  and  C_16
REMARK    5  A    between atoms: C_16  and  N_17
REMARK    6  A    between atoms: N_20  and  C_21
REMARK    7  A    between atoms: C_25  and  C_26
REMARK                            x       y       z     vdW  Elec       q    Type
REMARK                         _______ _______ _______ _____ _____    ______ ____
ROOT
ATOM      1  C   UNL     1       7.476   8.315  17.448  0.00  0.00    +0.000 C 
ENDROOT
BRANCH   1   2
ATOM      2  N   UNL     1       7.178   6.940  17.034  0.00  0.00    +0.000 NA
ATOM      3  C   UNL     1       7.226   5.960  18.142  0.00  0.00    +0.000 C 
ATOM      4  C   UNL     1       5.999   5.980  19.077  0.00  0.00    +0.000 C 
ATOM      5  N   UNL     1       4.759   5.755  18.322  0.00  0.00    +0.000 N 
ATOM      6  C   UNL     1       4.586   6.659  17.166  0.00  0.00    +0.000 C 
ATOM      7  C   UNL     1       5.885   6.809  16.324  0.00  0.00    +0.000 C 
BRANCH   5   8
ATOM      8  C   UNL     1       4.078   4.548  18.364  0.00  0.00    +0.000 A 
ATOM      9  C   UNL     1       4.448   3.433  17.597  0.00  0.00    +0.000 A 
ATOM     10  C   UNL     1       3.747   2.222  17.660  0.00  0.00    +0.000 A 
ATOM     11  C   UNL     1       2.643   2.097  18.496  0.00  0.00    +0.000 A 
ATOM     12  C   UNL     1       2.240   3.179  19.282  0.00  0.00    +0.000 A 
ATOM     13  C   UNL     1       2.977   4.379  19.220  0.00  0.00    +0.000 A 
BRANCH  12  14
ATOM     14  C   UNL     1       1.029   3.090  20.174  0.00  0.00    +0.000 C 
ATOM     15  F   UNL     1       0.605   4.298  20.642  0.00  0.00    +0.000 F 
ATOM     16  F   UNL     1      -0.047   2.534  19.554  0.00  0.00    +0.000 F 
ATOM     17  F   UNL     1       1.257   2.327  21.281  0.00  0.00    +0.000 F 
ENDBRANCH  12  14
ENDBRANCH   5   8
ENDBRANCH   1   2
BRANCH   1  18
ATOM     18  C   UNL     1       8.631   8.397  18.469  0.00  0.00    +0.000 C 
BRANCH  18  19
ATOM     19  C   UNL     1       8.928   9.806  19.007  0.00  0.00    +0.000 C 
BRANCH  19  20
ATOM     20  C   UNL     1       9.652  10.710  18.002  0.00  0.00    +0.000 C 
BRANCH  20  32
ATOM     21  O   UNL     1      12.132  11.372  19.250  0.00  0.00    +0.000 OA
ATOM     22  C   UNL     1      11.262  12.231  19.111  0.00  0.00    +0.000 A 
ATOM     23  C   UNL     1      11.555  13.623  19.523  0.00  0.00    +0.000 A 
ATOM     24  C   UNL     1      10.649  14.599  19.376  0.00  0.00    +0.000 A 
ATOM     25  C   UNL     1       9.336  14.177  18.870  0.00  0.00    +0.000 A 
ATOM     26  N   UNL     1       8.370  15.194  18.821  0.00  0.00    +0.000 N 
ATOM     27  C   UNL     1       8.548  16.558  18.688  0.00  0.00    +0.000 A 
ATOM     28  C   UNL     1       7.284  17.105  18.681  0.00  0.00    +0.000 A 
ATOM     29  N   UNL     1       6.336  16.134  18.827  0.00  0.00    +0.000 NA
ATOM     30  C   UNL     1       7.007  15.003  18.886  0.00  0.00    +0.000 A 
ATOM     31  N   UNL     1       9.016  12.981  18.507  0.00  0.00    +0.000 NA
ATOM     32  N   UNL     1       9.999  12.012  18.576  0.00  0.00    +0.000 N 
ENDBRANCH  20  32
ENDBRANCH  19  20
ENDBRANCH  18  19
ENDBRANCH   1  18
TORSDOF 7
ENDMDL
MODEL 4
REMARK VINA RESULT:      -8.6      2.433      3.651
REMARK  Name = 
REMARK  7 active torsions:
REMARK  status: ('A' for Active; 'I' for Inactive)
REMARK    1  A    between atoms: N_12  and  C_13
REMARK    2  A    between atoms: C_13  and  C_14
REMARK    3  A    between atoms: C_14  and  C_15
REMARK    4  A    between atoms: C_15  and  C_16
REMARK    5  A    between atoms: C_16  and  N_17
REMARK    6  A    between atoms: N_20  and  C_21
REMARK    7  A    between atoms: C_25  and  C_26
REMARK                            x       y       z     vdW  Elec       q    Type
REMARK                         _______ _______ _______ _____ _____    ______ ____
ROOT
ATOM      1  C   UNL     1       3.715   5.927  19.193  0.00  0.00    +0.000 C 
ENDROOT
BRANCH   1   2
ATOM      2  N   UNL     1       3.500   5.891  17.743  0.00  0.00    +0.000 NA
ATOM      3  C   UNL     1       4.425   6.758  16.980  0.00  0.00    +0.000 C 
ATOM      4  C   UNL     1       5.852   6.194  16.817  0.00  0.00    +0.000 C 
ATOM      5  N   UNL     1       5.825   4.876  16.170  0.00  0.00    +0.000 N 
ATOM      6  C   UNL     1       4.921   3.905  16.820  0.00  0.00    +0.000 C 
ATOM      7  C   UNL     1       3.539   4.522  17.179  0.00  0.00    +0.000 C 
BRANCH   5   8
ATOM      8  C   UNL     1       6.198   4.696  14.846  0.00  0.00    +0.000 A 
ATOM      9  C   UNL     1       7.423   5.140  14.329  0.00  0.00    +0.000 A 
ATOM     10  C   UNL     1       7.779   4.943  12.989  0.00  0.00    +0.000 A 
ATOM     11  C   UNL     1       6.907   4.294  12.122  0.00  0.00    +0.000 A 
ATOM     12  C   UNL     1       5.677   3.829  12.594  0.00  0.00    +0.000 A 
ATOM     13  C   UNL     1       5.352   4.017  13.952  0.00  0.00    +0.000 A 
BRANCH  12  14
ATOM     14  C   UNL     1       4.693   3.151  11.677  0.00  0.00    +0.000 C 
ATOM     15  F   UNL     1       5.122   1.942  11.213  0.00  0.00    +0.000 F 
ATOM     16  F   UNL     1       3.490   2.916  12.268  0.00  0.00    +0.000 F 
ATOM     17  F   UNL     1       4.423   3.895  10.566  0.00  0.00    +0.000 F 
ENDBRANCH  12  14
ENDBRANCH   5   8
ENDBRANCH   1   2
BRANCH   1  18
ATOM     18  C   UNL     1       2.407   6.136  19.988  0.00  0.00    +0.000 C 
BRANCH  18  19
ATOM     19  C   UNL     1       1.932   7.595  20.088  0.00  0.00    +0.000 C 
BRANCH  19  20
ATOM     20  C   UNL     1       1.092   7.885  21.338  0.00  0.00    +0.000 C 
BRANCH  20  32
ATOM     21  O   UNL     1       0.709   9.841  23.381  0.00  0.00    +0.000 OA
ATOM     22  C   UNL     1       0.240  10.021  22.258  0.00  0.00    +0.000 A 
ATOM     23  C   UNL     1      -0.448  11.299  21.964  0.00  0.00    +0.000 A 
ATOM     24  C   UNL     1      -0.961  11.552  20.753  0.00  0.00    +0.000 A 
ATOM     25  C   UNL     1      -0.872  10.454  19.782  0.00  0.00    +0.000 A 
ATOM     26  N   UNL     1      -1.505  10.701  18.553  0.00  0.00    +0.000 N 
ATOM     27  C   UNL     1      -1.751  11.909  17.928  0.00  0.00    +0.000 A 
ATOM     28  C   UNL     1      -2.383  11.599  16.745  0.00  0.00    +0.000 A 
ATOM     29  N   UNL     1      -2.557  10.251  16.627  0.00  0.00    +0.000 NA
ATOM     30  C   UNL     1      -2.005   9.737  17.707  0.00  0.00    +0.000 A 
ATOM     31  N   UNL     1      -0.298   9.315  19.981  0.00  0.00    +0.000 NA
ATOM     32  N   UNL     1       0.309   9.117  21.207  0.00  0.00    +0.000 N 
ENDBRANCH  20  32
ENDBRANCH  19  20
ENDBRANCH  18  19
ENDBRANCH   1  18
TORSDOF 7
ENDMDL
MODEL 5
REMARK VINA RESULT:      -8.5      2.231      3.026
REMARK  Name = 
REMARK  7 active torsions:
REMARK  status: ('A' for Active; 'I' for Inactive)
REMARK    1  A    between atoms: N_12  and  C_13
REMARK    2  A    between atoms: C_13  and  C_14
REMARK    3  A    between atoms: C_14  and  C_15
REMARK    4  A    between atoms: C_15  and  C_16
REMARK    5  A    between atoms: C_16  and  N_17
REMARK    6  A    between atoms: N_20  and  C_21
REMARK    7  A    between atoms: C_25  and  C_26
REMARK                            x       y       z     vdW  Elec       q    Type
REMARK                         _______ _______ _______ _____ _____    ______ ____
ROOT
ATOM      1  C   UNL     1       2.164   4.060  20.073  0.00  0.00    +0.000 C 
ENDROOT
BRANCH   1   2
ATOM      2  N   UNL     1       3.528   3.762  19.625  0.00  0.00    +0.000 NA
ATOM      3  C   UNL     1       3.588   2.889  18.432  0.00  0.00    +0.000 C 
ATOM      4  C   UNL     1       3.269   3.595  17.098  0.00  0.00    +0.000 C 
ATOM      5  N   UNL     1       4.171   4.733  16.876  0.00  0.00    +0.000 N 
ATOM      6  C   UNL     1       4.226   5.686  18.004  0.00  0.00    +0.000 C 
ATOM      7  C   UNL     1       4.342   4.975  19.383  0.00  0.00    +0.000 C 
BRANCH   5   8
ATOM      8  C   UNL     1       5.212   4.682  15.963  0.00  0.00    +0.000 A 
ATOM      9  C   UNL     1       6.502   5.156  16.244  0.00  0.00    +0.000 A 
ATOM     10  C   UNL     1       7.539   5.090  15.306  0.00  0.00    +0.000 A 
ATOM     11  C   UNL     1       7.309   4.547  14.047  0.00  0.00    +0.000 A 
ATOM     12  C   UNL     1       6.041   4.057  13.722  0.00  0.00    +0.000 A 
ATOM     13  C   UNL     1       5.020   4.112  14.692  0.00  0.00    +0.000 A 
BRANCH  12  14
ATOM     14  C   UNL     1       5.747   3.492  12.357  0.00  0.00    +0.000 C 
ATOM     15  F   UNL     1       4.462   3.693  11.949  0.00  0.00    +0.000 F 
ATOM     16  F   UNL     1       6.534   4.024  11.382  0.00  0.00    +0.000 F 
ATOM     17  F   UNL     1       5.945   2.144  12.301  0.00  0.00    +0.000 F 
ENDBRANCH  12  14
ENDBRANCH   5   8
ENDBRANCH   1   2
BRANCH   1  18
ATOM     18  C   UNL     1       2.092   5.293  20.999  0.00  0.00    +0.000 C 
BRANCH  18  19
ATOM     19  C   UNL     1       1.228   6.452  20.477  0.00  0.00    +0.000 C 
BRANCH  19  20
ATOM     20  C   UNL     1       1.921   7.818  20.547  0.00  0.00    +0.000 C 
BRANCH  20  32
ATOM     21  O   UNL     1       1.452   9.376  22.892  0.00  0.00    +0.000 OA
ATOM     22  C   UNL     1       0.862   9.642  21.846  0.00  0.00    +0.000 A 
ATOM     23  C   UNL     1      -0.024  10.828  21.804  0.00  0.00    +0.000 A 
ATOM     24  C   UNL     1      -0.675  11.172  20.685  0.00  0.00    +0.000 A 
ATOM     25  C   UNL     1      -0.520  10.253  19.550  0.00  0.00    +0.000 A 
ATOM     26  N   UNL     1      -1.291  10.574  18.422  0.00  0.00    +0.000 N 
ATOM     27  C   UNL     1      -1.761  11.808  18.012  0.00  0.00    +0.000 A 
ATOM     28  C   UNL     1      -2.448  11.579  16.841  0.00  0.00    +0.000 A 
ATOM     29  N   UNL     1      -2.439  10.252  16.525  0.00  0.00    +0.000 NA
ATOM     30  C   UNL     1      -1.724   9.678  17.471  0.00  0.00    +0.000 A 
ATOM     31  N   UNL     1       0.225   9.199  19.529  0.00  0.00    +0.000 NA
ATOM     32  N   UNL     1       0.963   8.921  20.664  0.00  0.00    +0.000 N 
ENDBRANCH  20  32
ENDBRANCH  19  20
ENDBRANCH  18  19
ENDBRANCH   1  18
TORSDOF 7
ENDMDL
MODEL 6
REMARK VINA RESULT:      -8.5      7.434      8.976
REMARK  Name = 
REMARK  7 active torsions:
REMARK  status: ('A' for Active; 'I' for Inactive)
REMARK    1  A    between atoms: N_12  and  C_13
REMARK    2  A    between atoms: C_13  and  C_14
REMARK    3  A    between atoms: C_14  and  C_15
REMARK    4  A    between atoms: C_15  and  C_16
REMARK    5  A    between atoms: C_16  and  N_17
REMARK    6  A    between atoms: N_20  and  C_21
REMARK    7  A    between atoms: C_25  and  C_26
REMARK                            x       y       z     vdW  Elec       q    Type
REMARK                         _______ _______ _______ _____ _____    ______ ____
ROOT
ATOM      1  C   UNL     1       7.862   7.550  17.054  0.00  0.00    +0.000 C 
ENDROOT
BRANCH   1   2
ATOM      2  N   UNL     1       7.553   6.145  17.337  0.00  0.00    +0.000 NA
ATOM      3  C   UNL     1       6.924   5.926  18.658  0.00  0.00    +0.000 C 
ATOM      4  C   UNL     1       5.431   6.304  18.734  0.00  0.00    +0.000 C 
ATOM      5  N   UNL     1       4.651   5.568  17.731  0.00  0.00    +0.000 N 
ATOM      6  C   UNL     1       5.179   5.682  16.355  0.00  0.00    +0.000 C 
ATOM      7  C   UNL     1       6.723   5.505  16.291  0.00  0.00    +0.000 C 
BRANCH   5   8
ATOM      8  C   UNL     1       3.829   4.504  18.070  0.00  0.00    +0.000 A 
ATOM      9  C   UNL     1       3.337   3.587  17.129  0.00  0.00    +0.000 A 
ATOM     10  C   UNL     1       2.512   2.516  17.497  0.00  0.00    +0.000 A 
ATOM     11  C   UNL     1       2.149   2.338  18.827  0.00  0.00    +0.000 A 
ATOM     12  C   UNL     1       2.620   3.224  19.801  0.00  0.00    +0.000 A 
ATOM     13  C   UNL     1       3.469   4.278  19.409  0.00  0.00    +0.000 A 
BRANCH  12  14
ATOM     14  C   UNL     1       2.221   3.081  21.246  0.00  0.00    +0.000 C 
ATOM     15  F   UNL     1       2.380   4.224  21.972  0.00  0.00    +0.000 F 
ATOM     16  F   UNL     1       0.919   2.718  21.404  0.00  0.00    +0.000 F 
ATOM     17  F   UNL     1       2.954   2.130  21.893  0.00  0.00    +0.000 F 
ENDBRANCH  12  14
ENDBRANCH   5   8
ENDBRANCH   1   2
BRANCH   1  18
ATOM     18  C   UNL     1       8.221   8.352  18.323  0.00  0.00    +0.000 C 
BRANCH  18  19
ATOM     19  C   UNL     1       8.420   9.862  18.107  0.00  0.00    +0.000 C 
BRANCH  19  20
ATOM     20  C   UNL     1       9.864  10.331  18.320  0.00  0.00    +0.000 C 
BRANCH  20  32
ATOM     21  O   UNL     1       9.235  10.552  21.095  0.00  0.00    +0.000 OA
ATOM     22  C   UNL     1       9.656  11.529  20.478  0.00  0.00    +0.000 A 
ATOM     23  C   UNL     1       9.909  12.788  21.214  0.00  0.00    +0.000 A 
ATOM     24  C   UNL     1      10.385  13.875  20.593  0.00  0.00    +0.000 A 
ATOM     25  C   UNL     1      10.549  13.757  19.139  0.00  0.00    +0.000 A 
ATOM     26  N   UNL     1      10.950  14.937  18.492  0.00  0.00    +0.000 N 
ATOM     27  C   UNL     1      11.671  16.003  18.996  0.00  0.00    +0.000 A 
ATOM     28  C   UNL     1      11.807  16.892  17.954  0.00  0.00    +0.000 A 
ATOM     29  N   UNL     1      11.179  16.427  16.835  0.00  0.00    +0.000 NA
ATOM     30  C   UNL     1      10.695  15.250  17.176  0.00  0.00    +0.000 A 
ATOM     31  N   UNL     1      10.334  12.693  18.439  0.00  0.00    +0.000 NA
ATOM     32  N   UNL     1       9.937  11.557  19.118  0.00  0.00    +0.000 N 
ENDBRANCH  20  32
ENDBRANCH  19  20
ENDBRANCH  18  19
ENDBRANCH   1  18
TORSDOF 7
ENDMDL
MODEL 7
REMARK VINA RESULT:      -8.4      6.966      8.237
REMARK  Name = 
REMARK  7 active torsions:
REMARK  status: ('A' for Active; 'I' for Inactive)
REMARK    1  A    between atoms: N_12  and  C_13
REMARK    2  A    between atoms: C_13  and  C_14
REMARK    3  A    between atoms: C_14  and  C_15
REMARK    4  A    between atoms: C_15  and  C_16
REMARK    5  A    between atoms: C_16  and  N_17
REMARK    6  A    between atoms: N_20  and  C_21
REMARK    7  A    between atoms: C_25  and  C_26
REMARK                            x       y       z     vdW  Elec       q    Type
REMARK                         _______ _______ _______ _____ _____    ______ ____
ROOT
ATOM      1  C   UNL     1       8.224   7.702  18.520  0.00  0.00    +0.000 C 
ENDROOT
BRANCH   1   2
ATOM      2  N   UNL     1       7.599   6.698  17.652  0.00  0.00    +0.000 NA
ATOM      3  C   UNL     1       7.510   5.353  18.262  0.00  0.00    +0.000 C 
ATOM      4  C   UNL     1       6.391   5.191  19.311  0.00  0.00    +0.000 C 
ATOM      5  N   UNL     1       5.080   5.518  18.735  0.00  0.00    +0.000 N 
ATOM      6  C   UNL     1       5.026   6.837  18.071  0.00  0.00    +0.000 C 
ATOM      7  C   UNL     1       6.260   7.100  17.162  0.00  0.00    +0.000 C 
BRANCH   5   8
ATOM      8  C   UNL     1       4.153   4.540  18.406  0.00  0.00    +0.000 A 
ATOM      9  C   UNL     1       4.229   3.778  17.230  0.00  0.00    +0.000 A 
ATOM     10  C   UNL     1       3.283   2.792  16.921  0.00  0.00    +0.000 A 
ATOM     11  C   UNL     1       2.224   2.545  17.787  0.00  0.00    +0.000 A 
ATOM     12  C   UNL     1       2.110   3.275  18.973  0.00  0.00    +0.000 A 
ATOM     13  C   UNL     1       3.088   4.244  19.274  0.00  0.00    +0.000 A 
BRANCH  12  14
ATOM     14  C   UNL     1       0.958   3.056  19.918  0.00  0.00    +0.000 C 
ATOM     15  F   UNL     1      -0.116   2.448  19.339  0.00  0.00    +0.000 F 
ATOM     16  F   UNL     1       1.289   2.283  20.989  0.00  0.00    +0.000 F 
ATOM     17  F   UNL     1       0.484   4.225  20.436  0.00  0.00    +0.000 F 
ENDBRANCH  12  14
ENDBRANCH   5   8
ENDBRANCH   1   2
BRANCH   1  18
ATOM     18  C   UNL     1       8.260   9.107  17.882  0.00  0.00    +0.000 C 
BRANCH  18  19
ATOM     19  C   UNL     1       9.115  10.142  18.632  0.00  0.00    +0.000 C 
BRANCH  19  20
ATOM     20  C   UNL     1       8.985  11.566  18.077  0.00  0.00    +0.000 C 
BRANCH  20  32
ATOM     21  O   UNL     1      11.731  12.288  17.788  0.00  0.00    +0.000 OA
ATOM     22  C   UNL     1      11.029  12.855  18.625  0.00  0.00    +0.000 A 
ATOM     23  C   UNL     1      11.606  13.967  19.413  0.00  0.00    +0.000 A 
ATOM     24  C   UNL     1      10.879  14.629  20.322  0.00  0.00    +0.000 A 
ATOM     25  C   UNL     1       9.519  14.120  20.541  0.00  0.00    +0.000 A 
ATOM     26  N   UNL     1       8.809  14.760  21.570  0.00  0.00    +0.000 N 
ATOM     27  C   UNL     1       8.952  16.046  22.056  0.00  0.00    +0.000 A 
ATOM     28  C   UNL     1       8.008  16.180  23.050  0.00  0.00    +0.000 A 
ATOM     29  N   UNL     1       7.306  15.021  23.211  0.00  0.00    +0.000 NA
ATOM     30  C   UNL     1       7.787  14.198  22.302  0.00  0.00    +0.000 A 
ATOM     31  N   UNL     1       8.963  13.149  19.897  0.00  0.00    +0.000 NA
ATOM     32  N   UNL     1       9.702  12.548  18.896  0.00  0.00    +0.000 N 
ENDBRANCH  20  32
ENDBRANCH  19  20
ENDBRANCH  18  19
ENDBRANCH   1  18
TORSDOF 7
ENDMDL
MODEL 8
REMARK VINA RESULT:      -8.4      5.498     10.954
REMARK  Name = 
REMARK  7 active torsions:
REMARK  status: ('A' for Active; 'I' for Inactive)
REMARK    1  A    between atoms: N_12  and  C_13
REMARK    2  A    between atoms: C_13  and  C_14
REMARK    3  A    between atoms: C_14  and  C_15
REMARK    4  A    between atoms: C_15  and  C_16
REMARK    5  A    between atoms: C_16  and  N_17
REMARK    6  A    between atoms: N_20  and  C_21
REMARK    7  A    between atoms: C_25  and  C_26
REMARK                            x       y       z     vdW  Elec       q    Type
REMARK                         _______ _______ _______ _____ _____    ______ ____
ROOT
ATOM      1  C   UNL     1       1.125   9.955  19.428  0.00  0.00    +0.000 C 
ENDROOT
BRANCH   1   2
ATOM      2  N   UNL     1      -0.286   9.726  19.756  0.00  0.00    +0.000 NA
ATOM      3  C   UNL     1      -0.746  10.454  20.959  0.00  0.00    +0.000 C 
ATOM      4  C   UNL     1      -1.005  11.960  20.745  0.00  0.00    +0.000 C 
ATOM      5  N   UNL     1      -1.991  12.176  19.678  0.00  0.00    +0.000 N 
ATOM      6  C   UNL     1      -1.668  11.487  18.411  0.00  0.00    +0.000 C 
ATOM      7  C   UNL     1      -1.204  10.019  18.631  0.00  0.00    +0.000 C 
BRANCH   5   8
ATOM      8  C   UNL     1      -3.298  12.553  19.946  0.00  0.00    +0.000 A 
ATOM      9  C   UNL     1      -3.661  13.310  21.070  0.00  0.00    +0.000 A 
ATOM     10  C   UNL     1      -4.988  13.683  21.317  0.00  0.00    +0.000 A 
ATOM     11  C   UNL     1      -5.997  13.299  20.440  0.00  0.00    +0.000 A 
ATOM     12  C   UNL     1      -5.682  12.549  19.304  0.00  0.00    +0.000 A 
ATOM     13  C   UNL     1      -4.336  12.208  19.064  0.00  0.00    +0.000 A 
BRANCH  12  14
ATOM     14  C   UNL     1      -6.753  12.089  18.350  0.00  0.00    +0.000 C 
ATOM     15  F   UNL     1      -6.406  12.214  17.037  0.00  0.00    +0.000 F 
ATOM     16  F   UNL     1      -7.090  10.781  18.522  0.00  0.00    +0.000 F 
ATOM     17  F   UNL     1      -7.911  12.794  18.492  0.00  0.00    +0.000 F 
ENDBRANCH  12  14
ENDBRANCH   5   8
ENDBRANCH   1   2
BRANCH   1  18
ATOM     18  C   UNL     1       1.483   9.526  17.989  0.00  0.00    +0.000 C 
BRANCH  18  19
ATOM     19  C   UNL     1       2.526   8.401  17.884  0.00  0.00    +0.000 C 
BRANCH  19  20
ATOM     20  C   UNL     1       2.369   7.313  18.953  0.00  0.00    +0.000 C 
BRANCH  20  32
ATOM     21  O   UNL     1       1.304   4.767  19.682  0.00  0.00    +0.000 OA
ATOM     22  C   UNL     1       2.236   4.841  18.882  0.00  0.00    +0.000 A 
ATOM     23  C   UNL     1       2.734   3.600  18.245  0.00  0.00    +0.000 A 
ATOM     24  C   UNL     1       3.733   3.627  17.354  0.00  0.00    +0.000 A 
ATOM     25  C   UNL     1       4.348   4.942  17.127  0.00  0.00    +0.000 A 
ATOM     26  N   UNL     1       5.459   4.932  16.269  0.00  0.00    +0.000 N 
ATOM     27  C   UNL     1       5.765   4.049  15.250  0.00  0.00    +0.000 A 
ATOM     28  C   UNL     1       6.952   4.491  14.712  0.00  0.00    +0.000 A 
ATOM     29  N   UNL     1       7.402   5.597  15.372  0.00  0.00    +0.000 NA
ATOM     30  C   UNL     1       6.484   5.852  16.281  0.00  0.00    +0.000 A 
ATOM     31  N   UNL     1       3.969   6.055  17.660  0.00  0.00    +0.000 NA
ATOM     32  N   UNL     1       2.873   6.014  18.500  0.00  0.00    +0.000 N 
ENDBRANCH  20  32
ENDBRANCH  19  20
ENDBRANCH  18  19
ENDBRANCH   1  18
TORSDOF 7
ENDMDL
MODEL 9
REMARK VINA RESULT:      -8.3      6.638      8.128
REMARK  Name = 
REMARK  7 active torsions:
REMARK  status: ('A' for Active; 'I' for Inactive)
REMARK    1  A    between atoms: N_12  and  C_13
REMARK    2  A    between atoms: C_13  and  C_14
REMARK    3  A    between atoms: C_14  and  C_15
REMARK    4  A    between atoms: C_15  and  C_16
REMARK    5  A    between atoms: C_16  and  N_17
REMARK    6  A    between atoms: N_20  and  C_21
REMARK    7  A    between atoms: C_25  and  C_26
REMARK                            x       y       z     vdW  Elec       q    Type
REMARK                         _______ _______ _______ _____ _____    ______ ____
ROOT
ATOM      1  C   UNL     1       7.428   7.491  17.281  0.00  0.00    +0.000 C 
ENDROOT
BRANCH   1   2
ATOM      2  N   UNL     1       6.326   7.127  18.177  0.00  0.00    +0.000 NA
ATOM      3  C   UNL     1       5.018   7.005  17.496  0.00  0.00    +0.000 C 
ATOM      4  C   UNL     1       4.831   5.707  16.684  0.00  0.00    +0.000 C 
ATOM      5  N   UNL     1       5.014   4.523  17.534  0.00  0.00    +0.000 N 
ATOM      6  C   UNL     1       6.281   4.519  18.294  0.00  0.00    +0.000 C 
ATOM      7  C   UNL     1       6.587   5.894  18.955  0.00  0.00    +0.000 C 
BRANCH   5   8
ATOM      8  C   UNL     1       3.946   3.752  17.966  0.00  0.00    +0.000 A 
ATOM      9  C   UNL     1       3.469   2.639  17.257  0.00  0.00    +0.000 A 
ATOM     10  C   UNL     1       2.391   1.873  17.716  0.00  0.00    +0.000 A 
ATOM     11  C   UNL     1       1.751   2.208  18.904  0.00  0.00    +0.000 A 
ATOM     12  C   UNL     1       2.193   3.305  19.647  0.00  0.00    +0.000 A 
ATOM     13  C   UNL     1       3.297   4.046  19.177  0.00  0.00    +0.000 A 
BRANCH  12  14
ATOM     14  C   UNL     1       1.504   3.716  20.921  0.00  0.00    +0.000 C 
ATOM     15  F   UNL     1       1.051   2.664  21.661  0.00  0.00    +0.000 F 
ATOM     16  F   UNL     1       2.308   4.435  21.752  0.00  0.00    +0.000 F 
ATOM     17  F   UNL     1       0.412   4.500  20.690  0.00  0.00    +0.000 F 
ENDBRANCH  12  14
ENDBRANCH   5   8
ENDBRANCH   1   2
BRANCH   1  18
ATOM     18  C   UNL     1       8.556   8.261  18.001  0.00  0.00    +0.000 C 
BRANCH  18  19
ATOM     19  C   UNL     1       8.354   9.783  18.091  0.00  0.00    +0.000 C 
BRANCH  19  20
ATOM     20  C   UNL     1       9.244  10.463  19.139  0.00  0.00    +0.000 C 
BRANCH  20  32
ATOM     21  O   UNL     1      11.689  11.199  17.864  0.00  0.00    +0.000 OA
ATOM     22  C   UNL     1      10.825  12.047  18.079  0.00  0.00    +0.000 A 
ATOM     23  C   UNL     1      11.040  13.429  17.592  0.00  0.00    +0.000 A 
ATOM     24  C   UNL     1      10.123  14.387  17.784  0.00  0.00    +0.000 A 
ATOM     25  C   UNL     1       8.951  13.995  18.578  0.00  0.00    +0.000 A 
ATOM     26  N   UNL     1       8.052  15.037  18.856  0.00  0.00    +0.000 N 
ATOM     27  C   UNL     1       7.812  16.194  18.138  0.00  0.00    +0.000 A 
ATOM     28  C   UNL     1       6.832  16.869  18.829  0.00  0.00    +0.000 A 
ATOM     29  N   UNL     1       6.474  16.187  19.955  0.00  0.00    +0.000 NA
ATOM     30  C   UNL     1       7.200  15.088  19.936  0.00  0.00    +0.000 A 
ATOM     31  N   UNL     1       8.713  12.813  19.040  0.00  0.00    +0.000 NA
ATOM     32  N   UNL     1       9.628  11.821  18.744  0.00  0.00    +0.000 N 
ENDBRANCH  20  32
ENDBRANCH  19  20
ENDBRANCH  18  19
ENDBRANCH   1  18
TORSDOF 7
ENDMDL
