MODEL 1
REMARK VINA RESULT:      -8.4      0.000      0.000
REMARK  Name = 
REMARK  11 active torsions:
REMARK  status: ('A' for Active; 'I' for Inactive)
REMARK    1  A    between atoms: C_3  and  O_4
REMARK    2  A    between atoms: O_4  and  C_5
REMARK    3  A    between atoms: C_7  and  C_8
REMARK    4  A    between atoms: C_8  and  O_9
REMARK    5  A    between atoms: C_10  and  O_11
REMARK    6  A    between atoms: C_12  and  O_13
REMARK    7  A    between atoms: C_14  and  C_15
REMARK    8  A    between atoms: C_18  and  O_19
REMARK    9  A    between atoms: C_20  and  O_21
REMARK   10  A    between atoms: C_26  and  O_27
REMARK   11  A    between atoms: C_29  and  O_30
REMARK                            x       y       z     vdW  Elec       q    Type
REMARK                         _______ _______ _______ _____ _____    ______ ____
ROOT
ATOM      1  O   UNL     1       2.200   9.324  17.441  0.00  0.00    +0.000 OA
ATOM      2  C   UNL     1       2.214   8.481  18.333  0.00  0.00    +0.000 A 
ATOM      3  C   UNL     1       2.805   7.119  18.108  0.00  0.00    +0.000 A 
ATOM      4  C   UNL     1       2.403   6.148  18.951  0.00  0.00    +0.000 A 
ATOM      5  O   UNL     1       1.521   6.340  20.010  0.00  0.00    +0.000 OA
ATOM      6  C   UNL     1       1.194   7.605  20.384  0.00  0.00    +0.000 A 
ATOM      7  C   UNL     1       0.471   7.726  21.572  0.00  0.00    +0.000 A 
ATOM      8  C   UNL     1       0.135   8.989  22.032  0.00  0.00    +0.000 A 
ATOM      9  C   UNL     1       0.513  10.124  21.324  0.00  0.00    +0.000 A 
ATOM     10  C   UNL     1       1.221   9.992  20.124  0.00  0.00    +0.000 A 
ATOM     11  C   UNL     1       1.554   8.724  19.636  0.00  0.00    +0.000 A 
ENDROOT
BRANCH   4  12
ATOM     12  C   UNL     1       2.776   4.710  18.851  0.00  0.00    +0.000 A 
ATOM     13  C   UNL     1       2.070   3.855  17.973  0.00  0.00    +0.000 A 
ATOM     14  C   UNL     1       2.395   2.498  17.856  0.00  0.00    +0.000 A 
ATOM     15  C   UNL     1       3.440   1.985  18.611  0.00  0.00    +0.000 A 
ATOM     16  C   UNL     1       4.102   2.803  19.520  0.00  0.00    +0.000 A 
ATOM     17  C   UNL     1       3.766   4.148  19.657  0.00  0.00    +0.000 A 
BRANCH  15  18
ATOM     18  O   UNL     1       3.845   0.691  18.453  0.00  0.00    +0.000 OA
ATOM     19  H   UNL     1       3.982   0.298  19.329  0.00  0.00    +0.000 HD
ENDBRANCH  15  18
BRANCH  16  20
ATOM     20  O   UNL     1       5.120   2.311  20.283  0.00  0.00    +0.000 OA
ATOM     21  H   UNL     1       4.688   1.920  21.061  0.00  0.00    +0.000 HD
ENDBRANCH  16  20
ENDBRANCH   4  12
BRANCH   8  22
ATOM     22  O   UNL     1      -0.568   9.155  23.188  0.00  0.00    +0.000 OA
ATOM     23  H   UNL     1      -0.016   8.885  23.941  0.00  0.00    +0.000 HD
ENDBRANCH   8  22
BRANCH  10  24
ATOM     24  O   UNL     1       1.608  11.120  19.456  0.00  0.00    +0.000 OA
ATOM     25  H   UNL     1       0.837  11.695  19.314  0.00  0.00    +0.000 HD
ENDBRANCH  10  24
BRANCH   3  26
ATOM     26  O   UNL     1       3.565   6.840  16.989  0.00  0.00    +0.000 OA
BRANCH  26  27
ATOM     27  C   UNL     1       4.692   5.946  17.014  0.00  0.00    +0.000 C 
ATOM     28  O   UNL     1       5.693   6.146  18.041  0.00  0.00    +0.000 OA
ATOM     29  C   UNL     1       6.987   6.048  17.395  0.00  0.00    +0.000 C 
ATOM     30  C   UNL     1       6.768   5.319  16.077  0.00  0.00    +0.000 C 
ATOM     31  C   UNL     1       5.409   5.841  15.656  0.00  0.00    +0.000 C 
BRANCH  30  32
ATOM     32  O   UNL     1       7.755   5.556  15.078  0.00  0.00    +0.000 OA
ATOM     33  H   UNL     1       8.436   4.862  15.130  0.00  0.00    +0.000 HD
ENDBRANCH  30  32
BRANCH  31  34
ATOM     34  O   UNL     1       4.792   4.916  14.751  0.00  0.00    +0.000 OA
ATOM     35  H   UNL     1       5.455   4.214  14.600  0.00  0.00    +0.000 HD
ENDBRANCH  31  34
BRANCH  29  36
ATOM     36  C   UNL     1       8.026   5.352  18.276  0.00  0.00    +0.000 C 
BRANCH  36  37
ATOM     37  O   UNL     1       8.355   4.056  17.776  0.00  0.00    +0.000 OA
ATOM     38  H   UNL     1       9.307   3.913  17.926  0.00  0.00    +0.000 HD
ENDBRANCH  36  37
ENDBRANCH  29  36
ENDBRANCH  26  27
ENDBRANCH   3  26
TORSDOF 11
ENDMDL
MODEL 2
REMARK VINA RESULT:      -8.2      1.768      5.681
REMARK  Name = 
REMARK  11 active torsions:
REMARK  status: ('A' for Active; 'I' for Inactive)
REMARK    1  A    between atoms: C_3  and  O_4
REMARK    2  A    between atoms: O_4  and  C_5
REMARK    3  A    between atoms: C_7  and  C_8
REMARK    4  A    between atoms: C_8  and  O_9
REMARK    5  A    between atoms: C_10  and  O_11
REMARK    6  A    between atoms: C_12  and  O_13
REMARK    7  A    between atoms: C_14  and  C_15
REMARK    8  A    between atoms: C_18  and  O_19
REMARK    9  A    between atoms: C_20  and  O_21
REMARK   10  A    between atoms: C_26  and  O_27
REMARK   11  A    between atoms: C_29  and  O_30
REMARK                            x       y       z     vdW  Elec       q    Type
REMARK                         _______ _______ _______ _____ _____    ______ ____
ROOT
ATOM      1  O   UNL     1       5.762   4.675  19.171  0.00  0.00    +0.000 OA
ATOM      2  C   UNL     1       4.573   4.947  19.312  0.00  0.00    +0.000 A 
ATOM      3  C   UNL     1       4.008   6.246  18.814  0.00  0.00    +0.000 A 
ATOM      4  C   UNL     1       2.849   6.644  19.374  0.00  0.00    +0.000 A 
ATOM      5  O   UNL     1       2.148   5.920  20.334  0.00  0.00    +0.000 OA
ATOM      6  C   UNL     1       2.504   4.635  20.591  0.00  0.00    +0.000 A 
ATOM      7  C   UNL     1       1.639   3.911  21.412  0.00  0.00    +0.000 A 
ATOM      8  C   UNL     1       1.921   2.582  21.685  0.00  0.00    +0.000 A 
ATOM      9  C   UNL     1       3.051   1.974  21.150  0.00  0.00    +0.000 A 
ATOM     10  C   UNL     1       3.923   2.714  20.345  0.00  0.00    +0.000 A 
ATOM     11  C   UNL     1       3.662   4.060  20.071  0.00  0.00    +0.000 A 
ENDROOT
BRANCH   4  12
ATOM     12  C   UNL     1       2.166   7.941  19.111  0.00  0.00    +0.000 A 
ATOM     13  C   UNL     1       2.320   8.582  17.860  0.00  0.00    +0.000 A 
ATOM     14  C   UNL     1       1.691   9.802  17.581  0.00  0.00    +0.000 A 
ATOM     15  C   UNL     1       0.893  10.389  18.552  0.00  0.00    +0.000 A 
ATOM     16  C   UNL     1       0.782   9.798  19.806  0.00  0.00    +0.000 A 
ATOM     17  C   UNL     1       1.425   8.595  20.095  0.00  0.00    +0.000 A 
BRANCH  15  18
ATOM     18  O   UNL     1       0.192  11.528  18.282  0.00  0.00    +0.000 OA
ATOM     19  H   UNL     1       0.393  11.811  17.376  0.00  0.00    +0.000 HD
ENDBRANCH  15  18
BRANCH  16  20
ATOM     20  O   UNL     1       0.016  10.370  20.778  0.00  0.00    +0.000 OA
ATOM     21  H   UNL     1      -0.029  11.312  20.543  0.00  0.00    +0.000 HD
ENDBRANCH  16  20
ENDBRANCH   4  12
BRANCH   8  22
ATOM     22  O   UNL     1       1.103   1.836  22.480  0.00  0.00    +0.000 OA
ATOM     23  H   UNL     1       1.553   1.009  22.718  0.00  0.00    +0.000 HD
ENDBRANCH   8  22
BRANCH  10  24
ATOM     24  O   UNL     1       5.014   2.090  19.805  0.00  0.00    +0.000 OA
ATOM     25  H   UNL     1       5.619   1.820  20.515  0.00  0.00    +0.000 HD
ENDBRANCH  10  24
BRANCH   3  26
ATOM     26  O   UNL     1       4.732   7.072  17.977  0.00  0.00    +0.000 OA
BRANCH  26  27
ATOM     27  C   UNL     1       5.292   6.622  16.730  0.00  0.00    +0.000 C 
ATOM     28  O   UNL     1       4.575   5.602  15.993  0.00  0.00    +0.000 OA
ATOM     29  C   UNL     1       5.555   4.626  15.559  0.00  0.00    +0.000 C 
ATOM     30  C   UNL     1       6.915   5.306  15.627  0.00  0.00    +0.000 C 
ATOM     31  C   UNL     1       6.762   6.183  16.853  0.00  0.00    +0.000 C 
BRANCH  30  32
ATOM     32  O   UNL     1       8.030   4.428  15.743  0.00  0.00    +0.000 OA
ATOM     33  H   UNL     1       7.711   3.527  15.929  0.00  0.00    +0.000 HD
ENDBRANCH  30  32
BRANCH  31  34
ATOM     34  O   UNL     1       7.694   7.271  16.792  0.00  0.00    +0.000 OA
ATOM     35  H   UNL     1       7.965   7.437  17.716  0.00  0.00    +0.000 HD
ENDBRANCH  31  34
BRANCH  29  36
ATOM     36  C   UNL     1       5.250   4.078  14.164  0.00  0.00    +0.000 C 
BRANCH  36  37
ATOM     37  O   UNL     1       6.346   3.326  13.644  0.00  0.00    +0.000 OA
ATOM     38  H   UNL     1       6.446   2.527  14.193  0.00  0.00    +0.000 HD
ENDBRANCH  36  37
ENDBRANCH  29  36
ENDBRANCH  26  27
ENDBRANCH   3  26
TORSDOF 11
ENDMDL
MODEL 3
REMARK VINA RESULT:      -7.9      4.604      8.469
REMARK  Name = 
REMARK  11 active torsions:
REMARK  status: ('A' for Active; 'I' for Inactive)
REMARK    1  A    between atoms: C_3  and  O_4
REMARK    2  A    between atoms: O_4  and  C_5
REMARK    3  A    between atoms: C_7  and  C_8
REMARK    4  A    between atoms: C_8  and  O_9
REMARK    5  A    between atoms: C_10  and  O_11
REMARK    6  A    between atoms: C_12  and  O_13
REMARK    7  A    between atoms: C_14  and  C_15
REMARK    8  A    between atoms: C_18  and  O_19
REMARK    9  A    between atoms: C_20  and  O_21
REMARK   10  A    between atoms: C_26  and  O_27
REMARK   11  A    between atoms: C_29  and  O_30
REMARK                            x       y       z     vdW  Elec       q    Type
REMARK                         _______ _______ _______ _____ _____    ______ ____
ROOT
ATOM      1  O   UNL     1      -1.791  13.974  19.946  0.00  0.00    +0.000 OA
ATOM      2  C   UNL     1      -0.764  13.559  19.418  0.00  0.00    +0.000 A 
ATOM      3  C   UNL     1      -0.502  12.087  19.277  0.00  0.00    +0.000 A 
ATOM      4  C   UNL     1       0.784  11.726  19.098  0.00  0.00    +0.000 A 
ATOM      5  O   UNL     1       1.847  12.618  19.004  0.00  0.00    +0.000 OA
ATOM      6  C   UNL     1       1.593  13.945  18.861  0.00  0.00    +0.000 A 
ATOM      7  C   UNL     1       2.693  14.753  18.572  0.00  0.00    +0.000 A 
ATOM      8  C   UNL     1       2.500  16.111  18.378  0.00  0.00    +0.000 A 
ATOM      9  C   UNL     1       1.229  16.666  18.467  0.00  0.00    +0.000 A 
ATOM     10  C   UNL     1       0.135  15.851  18.777  0.00  0.00    +0.000 A 
ATOM     11  C   UNL     1       0.313  14.481  18.992  0.00  0.00    +0.000 A 
ENDROOT
BRANCH   4  12
ATOM     12  C   UNL     1       1.285  10.325  19.039  0.00  0.00    +0.000 A 
ATOM     13  C   UNL     1       1.796   9.806  17.826  0.00  0.00    +0.000 A 
ATOM     14  C   UNL     1       2.275   8.493  17.737  0.00  0.00    +0.000 A 
ATOM     15  C   UNL     1       2.255   7.688  18.866  0.00  0.00    +0.000 A 
ATOM     16  C   UNL     1       1.701   8.168  20.048  0.00  0.00    +0.000 A 
ATOM     17  C   UNL     1       1.202   9.466  20.135  0.00  0.00    +0.000 A 
BRANCH  15  18
ATOM     18  O   UNL     1       2.799   6.436  18.840  0.00  0.00    +0.000 OA
ATOM     19  H   UNL     1       3.008   6.206  17.921  0.00  0.00    +0.000 HD
ENDBRANCH  15  18
BRANCH  16  20
ATOM     20  O   UNL     1       1.658   7.384  21.164  0.00  0.00    +0.000 OA
ATOM     21  H   UNL     1       2.029   7.933  21.874  0.00  0.00    +0.000 HD
ENDBRANCH  16  20
ENDBRANCH   4  12
BRANCH   8  22
ATOM     22  O   UNL     1       3.546  16.938  18.091  0.00  0.00    +0.000 OA
ATOM     23  H   UNL     1       3.453  17.269  17.182  0.00  0.00    +0.000 HD
ENDBRANCH   8  22
BRANCH  10  24
ATOM     24  O   UNL     1      -1.111  16.410  18.832  0.00  0.00    +0.000 OA
ATOM     25  H   UNL     1      -1.742  15.848  18.351  0.00  0.00    +0.000 HD
ENDBRANCH  10  24
BRANCH   3  26
ATOM     26  O   UNL     1      -1.493  11.154  19.509  0.00  0.00    +0.000 OA
BRANCH  26  27
ATOM     27  C   UNL     1      -2.403  10.711  18.486  0.00  0.00    +0.000 C 
ATOM     28  O   UNL     1      -1.854  10.374  17.189  0.00  0.00    +0.000 OA
ATOM     29  C   UNL     1      -2.713  10.984  16.194  0.00  0.00    +0.000 C 
ATOM     30  C   UNL     1      -4.039  11.284  16.880  0.00  0.00    +0.000 C 
ATOM     31  C   UNL     1      -3.586  11.672  18.273  0.00  0.00    +0.000 C 
BRANCH  30  32
ATOM     32  O   UNL     1      -4.820  12.309  16.275  0.00  0.00    +0.000 OA
ATOM     33  H   UNL     1      -5.453  11.905  15.654  0.00  0.00    +0.000 HD
ENDBRANCH  30  32
BRANCH  31  34
ATOM     34  O   UNL     1      -4.658  11.479  19.204  0.00  0.00    +0.000 OA
ATOM     35  H   UNL     1      -4.333  10.819  19.847  0.00  0.00    +0.000 HD
ENDBRANCH  31  34
BRANCH  29  36
ATOM     36  C   UNL     1      -2.888  10.101  14.957  0.00  0.00    +0.000 C 
BRANCH  36  37
ATOM     37  O   UNL     1      -4.240  10.100  14.500  0.00  0.00    +0.000 OA
ATOM     38  H   UNL     1      -4.819  10.079  15.284  0.00  0.00    +0.000 HD
ENDBRANCH  36  37
ENDBRANCH  29  36
ENDBRANCH  26  27
ENDBRANCH   3  26
TORSDOF 11
ENDMDL
MODEL 4
REMARK VINA RESULT:      -7.8      0.486      1.186
REMARK  Name = 
REMARK  11 active torsions:
REMARK  status: ('A' for Active; 'I' for Inactive)
REMARK    1  A    between atoms: C_3  and  O_4
REMARK    2  A    between atoms: O_4  and  C_5
REMARK    3  A    between atoms: C_7  and  C_8
REMARK    4  A    between atoms: C_8  and  O_9
REMARK    5  A    between atoms: C_10  and  O_11
REMARK    6  A    between atoms: C_12  and  O_13
REMARK    7  A    between atoms: C_14  and  C_15
REMARK    8  A    between atoms: C_18  and  O_19
REMARK    9  A    between atoms: C_20  and  O_21
REMARK   10  A    between atoms: C_26  and  O_27
REMARK   11  A    between atoms: C_29  and  O_30
REMARK                            x       y       z     vdW  Elec       q    Type
REMARK                         _______ _______ _______ _____ _____    ______ ____
ROOT
ATOM      1  O   UNL     1       2.136   9.428  17.445  0.00  0.00    +0.000 OA
ATOM      2  C   UNL     1       2.179   8.604  18.353  0.00  0.00    +0.000 A 
ATOM      3  C   UNL     1       2.822   7.262  18.157  0.00  0.00    +0.000 A 
ATOM      4  C   UNL     1       2.454   6.294  19.019  0.00  0.00    +0.000 A 
ATOM      5  O   UNL     1       1.563   6.474  20.073  0.00  0.00    +0.000 OA
ATOM      6  C   UNL     1       1.189   7.733  20.421  0.00  0.00    +0.000 A 
ATOM      7  C   UNL     1       0.459   7.851  21.604  0.00  0.00    +0.000 A 
ATOM      8  C   UNL     1       0.076   9.110  22.038  0.00  0.00    +0.000 A 
ATOM      9  C   UNL     1       0.412  10.243  21.308  0.00  0.00    +0.000 A 
ATOM     10  C   UNL     1       1.127  10.113  20.112  0.00  0.00    +0.000 A 
ATOM     11  C   UNL     1       1.508   8.849  19.650  0.00  0.00    +0.000 A 
ENDROOT
BRANCH   4  12
ATOM     12  C   UNL     1       2.881   4.869  18.949  0.00  0.00    +0.000 A 
ATOM     13  C   UNL     1       3.984   4.421  19.713  0.00  0.00    +0.000 A 
ATOM     14  C   UNL     1       4.411   3.089  19.670  0.00  0.00    +0.000 A 
ATOM     15  C   UNL     1       3.731   2.186  18.865  0.00  0.00    +0.000 A 
ATOM     16  C   UNL     1       2.683   2.628  18.064  0.00  0.00    +0.000 A 
ATOM     17  C   UNL     1       2.269   3.959  18.087  0.00  0.00    +0.000 A 
BRANCH  15  18
ATOM     18  O   UNL     1       4.060   0.862  18.869  0.00  0.00    +0.000 OA
ATOM     19  H   UNL     1       4.279   0.592  17.964  0.00  0.00    +0.000 HD
ENDBRANCH  15  18
BRANCH  16  20
ATOM     20  O   UNL     1       2.014   1.758  17.253  0.00  0.00    +0.000 OA
ATOM     21  H   UNL     1       2.476   0.909  17.357  0.00  0.00    +0.000 HD
ENDBRANCH  16  20
ENDBRANCH   4  12
BRANCH   8  22
ATOM     22  O   UNL     1      -0.636   9.273  23.190  0.00  0.00    +0.000 OA
ATOM     23  H   UNL     1      -1.426   9.808  23.006  0.00  0.00    +0.000 HD
ENDBRANCH   8  22
BRANCH  10  24
ATOM     24  O   UNL     1       1.473  11.242  19.422  0.00  0.00    +0.000 OA
ATOM     25  H   UNL     1       2.440  11.283  19.331  0.00  0.00    +0.000 HD
ENDBRANCH  10  24
BRANCH   3  26
ATOM     26  O   UNL     1       3.593   6.989  17.045  0.00  0.00    +0.000 OA
BRANCH  26  27
ATOM     27  C   UNL     1       4.694   6.062  17.067  0.00  0.00    +0.000 C 
ATOM     28  O   UNL     1       5.703   6.231  18.091  0.00  0.00    +0.000 OA
ATOM     29  C   UNL     1       6.992   6.096  17.442  0.00  0.00    +0.000 C 
ATOM     30  C   UNL     1       6.748   5.373  16.124  0.00  0.00    +0.000 C 
ATOM     31  C   UNL     1       5.404   5.935  15.708  0.00  0.00    +0.000 C 
BRANCH  30  32
ATOM     32  O   UNL     1       7.739   5.580  15.123  0.00  0.00    +0.000 OA
ATOM     33  H   UNL     1       8.507   5.012  15.310  0.00  0.00    +0.000 HD
ENDBRANCH  30  32
BRANCH  31  34
ATOM     34  O   UNL     1       4.757   5.029  14.804  0.00  0.00    +0.000 OA
ATOM     35  H   UNL     1       3.874   5.411  14.636  0.00  0.00    +0.000 HD
ENDBRANCH  31  34
BRANCH  29  36
ATOM     36  C   UNL     1       8.012   5.368  18.320  0.00  0.00    +0.000 C 
BRANCH  36  37
ATOM     37  O   UNL     1       8.332   4.080  17.797  0.00  0.00    +0.000 OA
ATOM     38  H   UNL     1       7.505   3.676  17.475  0.00  0.00    +0.000 HD
ENDBRANCH  36  37
ENDBRANCH  29  36
ENDBRANCH  26  27
ENDBRANCH   3  26
TORSDOF 11
ENDMDL
MODEL 5
REMARK VINA RESULT:      -7.6      1.624      4.652
REMARK  Name = 
REMARK  11 active torsions:
REMARK  status: ('A' for Active; 'I' for Inactive)
REMARK    1  A    between atoms: C_3  and  O_4
REMARK    2  A    between atoms: O_4  and  C_5
REMARK    3  A    between atoms: C_7  and  C_8
REMARK    4  A    between atoms: C_8  and  O_9
REMARK    5  A    between atoms: C_10  and  O_11
REMARK    6  A    between atoms: C_12  and  O_13
REMARK    7  A    between atoms: C_14  and  C_15
REMARK    8  A    between atoms: C_18  and  O_19
REMARK    9  A    between atoms: C_20  and  O_21
REMARK   10  A    between atoms: C_26  and  O_27
REMARK   11  A    between atoms: C_29  and  O_30
REMARK                            x       y       z     vdW  Elec       q    Type
REMARK                         _______ _______ _______ _____ _____    ______ ____
ROOT
ATOM      1  O   UNL     1       1.838   7.189  21.648  0.00  0.00    +0.000 OA
ATOM      2  C   UNL     1       1.971   7.371  20.441  0.00  0.00    +0.000 A 
ATOM      3  C   UNL     1       2.990   6.607  19.646  0.00  0.00    +0.000 A 
ATOM      4  C   UNL     1       3.362   7.154  18.472  0.00  0.00    +0.000 A 
ATOM      5  O   UNL     1       2.842   8.337  17.955  0.00  0.00    +0.000 OA
ATOM      6  C   UNL     1       1.740   8.888  18.527  0.00  0.00    +0.000 A 
ATOM      7  C   UNL     1       1.159   9.953  17.839  0.00  0.00    +0.000 A 
ATOM      8  C   UNL     1       0.010  10.538  18.348  0.00  0.00    +0.000 A 
ATOM      9  C   UNL     1      -0.559  10.073  19.527  0.00  0.00    +0.000 A 
ATOM     10  C   UNL     1       0.043   9.017  20.221  0.00  0.00    +0.000 A 
ATOM     11  C   UNL     1       1.211   8.425  19.731  0.00  0.00    +0.000 A 
ENDROOT
BRANCH   4  12
ATOM     12  C   UNL     1       4.427   6.628  17.575  0.00  0.00    +0.000 A 
ATOM     13  C   UNL     1       4.164   5.517  16.739  0.00  0.00    +0.000 A 
ATOM     14  C   UNL     1       5.144   4.997  15.884  0.00  0.00    +0.000 A 
ATOM     15  C   UNL     1       6.397   5.592  15.851  0.00  0.00    +0.000 A 
ATOM     16  C   UNL     1       6.685   6.647  16.711  0.00  0.00    +0.000 A 
ATOM     17  C   UNL     1       5.720   7.152  17.580  0.00  0.00    +0.000 A 
BRANCH  15  18
ATOM     18  O   UNL     1       7.344   5.172  14.963  0.00  0.00    +0.000 OA
ATOM     19  H   UNL     1       6.932   4.561  14.332  0.00  0.00    +0.000 HD
ENDBRANCH  15  18
BRANCH  16  20
ATOM     20  O   UNL     1       7.917   7.232  16.703  0.00  0.00    +0.000 OA
ATOM     21  H   UNL     1       7.873   7.923  17.386  0.00  0.00    +0.000 HD
ENDBRANCH  16  20
ENDBRANCH   4  12
BRANCH   8  22
ATOM     22  O   UNL     1      -0.593  11.580  17.708  0.00  0.00    +0.000 OA
ATOM     23  H   UNL     1       0.018  12.335  17.676  0.00  0.00    +0.000 HD
ENDBRANCH   8  22
BRANCH  10  24
ATOM     24  O   UNL     1      -0.548   8.555  21.364  0.00  0.00    +0.000 OA
ATOM     25  H   UNL     1      -1.391   9.018  21.505  0.00  0.00    +0.000 HD
ENDBRANCH  10  24
BRANCH   3  26
ATOM     26  O   UNL     1       3.644   5.513  20.177  0.00  0.00    +0.000 OA
BRANCH  26  27
ATOM     27  C   UNL     1       3.162   4.165  20.023  0.00  0.00    +0.000 C 
ATOM     28  O   UNL     1       3.942   3.254  19.212  0.00  0.00    +0.000 OA
ATOM     29  C   UNL     1       3.012   2.550  18.352  0.00  0.00    +0.000 C 
ATOM     30  C   UNL     1       1.633   2.695  18.982  0.00  0.00    +0.000 C 
ATOM     31  C   UNL     1       1.699   4.098  19.551  0.00  0.00    +0.000 C 
BRANCH  30  32
ATOM     32  O   UNL     1       0.535   2.540  18.089  0.00  0.00    +0.000 OA
ATOM     33  H   UNL     1       0.635   3.164  17.348  0.00  0.00    +0.000 HD
ENDBRANCH  30  32
BRANCH  31  34
ATOM     34  O   UNL     1       0.746   4.237  20.612  0.00  0.00    +0.000 OA
ATOM     35  H   UNL     1       0.363   3.347  20.741  0.00  0.00    +0.000 HD
ENDBRANCH  31  34
BRANCH  29  36
ATOM     36  C   UNL     1       3.404   1.085  18.148  0.00  0.00    +0.000 C 
BRANCH  36  37
ATOM     37  O   UNL     1       4.535   0.729  18.940  0.00  0.00    +0.000 OA
ATOM     38  H   UNL     1       4.221   0.556  19.846  0.00  0.00    +0.000 HD
ENDBRANCH  36  37
ENDBRANCH  29  36
ENDBRANCH  26  27
ENDBRANCH   3  26
TORSDOF 11
ENDMDL
MODEL 6
REMARK VINA RESULT:      -7.5      1.740      5.721
REMARK  Name = 
REMARK  11 active torsions:
REMARK  status: ('A' for Active; 'I' for Inactive)
REMARK    1  A    between atoms: C_3  and  O_4
REMARK    2  A    between atoms: O_4  and  C_5
REMARK    3  A    between atoms: C_7  and  C_8
REMARK    4  A    between atoms: C_8  and  O_9
REMARK    5  A    between atoms: C_10  and  O_11
REMARK    6  A    between atoms: C_12  and  O_13
REMARK    7  A    between atoms: C_14  and  C_15
REMARK    8  A    between atoms: C_18  and  O_19
REMARK    9  A    between atoms: C_20  and  O_21
REMARK   10  A    between atoms: C_26  and  O_27
REMARK   11  A    between atoms: C_29  and  O_30
REMARK                            x       y       z     vdW  Elec       q    Type
REMARK                         _______ _______ _______ _____ _____    ______ ____
ROOT
ATOM      1  O   UNL     1       5.676   4.638  19.080  0.00  0.00    +0.000 OA
ATOM      2  C   UNL     1       4.503   4.936  19.282  0.00  0.00    +0.000 A 
ATOM      3  C   UNL     1       3.953   6.266  18.855  0.00  0.00    +0.000 A 
ATOM      4  C   UNL     1       2.830   6.674  19.479  0.00  0.00    +0.000 A 
ATOM      5  O   UNL     1       2.152   5.935  20.443  0.00  0.00    +0.000 OA
ATOM      6  C   UNL     1       2.482   4.632  20.639  0.00  0.00    +0.000 A 
ATOM      7  C   UNL     1       1.633   3.902  21.471  0.00  0.00    +0.000 A 
ATOM      8  C   UNL     1       1.891   2.557  21.685  0.00  0.00    +0.000 A 
ATOM      9  C   UNL     1       2.978   1.939  21.080  0.00  0.00    +0.000 A 
ATOM     10  C   UNL     1       3.836   2.685  20.263  0.00  0.00    +0.000 A 
ATOM     11  C   UNL     1       3.601   4.047  20.049  0.00  0.00    +0.000 A 
ENDROOT
BRANCH   4  12
ATOM     12  C   UNL     1       2.173   7.997  19.292  0.00  0.00    +0.000 A 
ATOM     13  C   UNL     1       1.139   8.404  20.168  0.00  0.00    +0.000 A 
ATOM     14  C   UNL     1       0.500   9.641  20.020  0.00  0.00    +0.000 A 
ATOM     15  C   UNL     1       0.897  10.489  18.996  0.00  0.00    +0.000 A 
ATOM     16  C   UNL     1       1.871  10.075  18.093  0.00  0.00    +0.000 A 
ATOM     17  C   UNL     1       2.493   8.835  18.223  0.00  0.00    +0.000 A 
BRANCH  15  18
ATOM     18  O   UNL     1       0.362  11.739  18.879  0.00  0.00    +0.000 OA
ATOM     19  H   UNL     1      -0.601  11.660  18.799  0.00  0.00    +0.000 HD
ENDBRANCH  15  18
BRANCH  16  20
ATOM     20  O   UNL     1       2.261  10.889  17.070  0.00  0.00    +0.000 OA
ATOM     21  H   UNL     1       2.139  10.359  16.265  0.00  0.00    +0.000 HD
ENDBRANCH  16  20
ENDBRANCH   4  12
BRANCH   8  22
ATOM     22  O   UNL     1       1.086   1.804  22.488  0.00  0.00    +0.000 OA
ATOM     23  H   UNL     1       0.574   1.186  21.941  0.00  0.00    +0.000 HD
ENDBRANCH   8  22
BRANCH  10  24
ATOM     24  O   UNL     1       4.884   2.053  19.654  0.00  0.00    +0.000 OA
ATOM     25  H   UNL     1       5.691   2.181  20.181  0.00  0.00    +0.000 HD
ENDBRANCH  10  24
BRANCH   3  26
ATOM     26  O   UNL     1       4.663   7.103  18.017  0.00  0.00    +0.000 OA
BRANCH  26  27
ATOM     27  C   UNL     1       5.227   6.661  16.769  0.00  0.00    +0.000 C 
ATOM     28  O   UNL     1       4.539   5.611  16.047  0.00  0.00    +0.000 OA
ATOM     29  C   UNL     1       5.547   4.665  15.613  0.00  0.00    +0.000 C 
ATOM     30  C   UNL     1       6.884   5.391  15.662  0.00  0.00    +0.000 C 
ATOM     31  C   UNL     1       6.712   6.273  16.882  0.00  0.00    +0.000 C 
BRANCH  30  32
ATOM     32  O   UNL     1       8.030   4.553  15.775  0.00  0.00    +0.000 OA
ATOM     33  H   UNL     1       7.837   3.830  16.398  0.00  0.00    +0.000 HD
ENDBRANCH  30  32
BRANCH  31  34
ATOM     34  O   UNL     1       7.606   7.391  16.803  0.00  0.00    +0.000 OA
ATOM     35  H   UNL     1       7.780   7.655  17.728  0.00  0.00    +0.000 HD
ENDBRANCH  31  34
BRANCH  29  36
ATOM     36  C   UNL     1       5.249   4.094  14.224  0.00  0.00    +0.000 C 
BRANCH  36  37
ATOM     37  O   UNL     1       6.368   3.382  13.698  0.00  0.00    +0.000 OA
ATOM     38  H   UNL     1       6.126   3.062  12.810  0.00  0.00    +0.000 HD
ENDBRANCH  36  37
ENDBRANCH  29  36
ENDBRANCH  26  27
ENDBRANCH   3  26
TORSDOF 11
ENDMDL
MODEL 7
REMARK VINA RESULT:      -7.4      1.491      1.692
REMARK  Name = 
REMARK  11 active torsions:
REMARK  status: ('A' for Active; 'I' for Inactive)
REMARK    1  A    between atoms: C_3  and  O_4
REMARK    2  A    between atoms: O_4  and  C_5
REMARK    3  A    between atoms: C_7  and  C_8
REMARK    4  A    between atoms: C_8  and  O_9
REMARK    5  A    between atoms: C_10  and  O_11
REMARK    6  A    between atoms: C_12  and  O_13
REMARK    7  A    between atoms: C_14  and  C_15
REMARK    8  A    between atoms: C_18  and  O_19
REMARK    9  A    between atoms: C_20  and  O_21
REMARK   10  A    between atoms: C_26  and  O_27
REMARK   11  A    between atoms: C_29  and  O_30
REMARK                            x       y       z     vdW  Elec       q    Type
REMARK                         _______ _______ _______ _____ _____    ______ ____
ROOT
ATOM      1  O   UNL     1       1.926   8.974  17.096  0.00  0.00    +0.000 OA
ATOM      2  C   UNL     1       2.018   8.561  18.248  0.00  0.00    +0.000 A 
ATOM      3  C   UNL     1       2.599   7.209  18.546  0.00  0.00    +0.000 A 
ATOM      4  C   UNL     1       2.273   6.670  19.738  0.00  0.00    +0.000 A 
ATOM      5  O   UNL     1       1.479   7.296  20.694  0.00  0.00    +0.000 OA
ATOM      6  C   UNL     1       1.175   8.612  20.551  0.00  0.00    +0.000 A 
ATOM      7  C   UNL     1       0.550   9.220  21.640  0.00  0.00    +0.000 A 
ATOM      8  C   UNL     1       0.244  10.570  21.576  0.00  0.00    +0.000 A 
ATOM      9  C   UNL     1       0.555  11.313  20.443  0.00  0.00    +0.000 A 
ATOM     10  C   UNL     1       1.164  10.691  19.348  0.00  0.00    +0.000 A 
ATOM     11  C   UNL     1       1.465   9.325  19.389  0.00  0.00    +0.000 A 
ENDROOT
BRANCH   4  12
ATOM     12  C   UNL     1       2.646   5.304  20.198  0.00  0.00    +0.000 A 
ATOM     13  C   UNL     1       1.867   4.650  21.180  0.00  0.00    +0.000 A 
ATOM     14  C   UNL     1       2.191   3.366  21.635  0.00  0.00    +0.000 A 
ATOM     15  C   UNL     1       3.297   2.719  21.102  0.00  0.00    +0.000 A 
ATOM     16  C   UNL     1       4.104   3.376  20.179  0.00  0.00    +0.000 A 
ATOM     17  C   UNL     1       3.798   4.663  19.742  0.00  0.00    +0.000 A 
BRANCH  15  18
ATOM     18  O   UNL     1       3.587   1.432  21.452  0.00  0.00    +0.000 OA
ATOM     19  H   UNL     1       2.778   1.006  21.775  0.00  0.00    +0.000 HD
ENDBRANCH  15  18
BRANCH  16  20
ATOM     20  O   UNL     1       5.205   2.761  19.658  0.00  0.00    +0.000 OA
ATOM     21  H   UNL     1       4.938   2.474  18.769  0.00  0.00    +0.000 HD
ENDBRANCH  16  20
ENDBRANCH   4  12
BRANCH   8  22
ATOM     22  O   UNL     1      -0.364  11.206  22.617  0.00  0.00    +0.000 OA
ATOM     23  H   UNL     1      -0.168  12.157  22.571  0.00  0.00    +0.000 HD
ENDBRANCH   8  22
BRANCH  10  24
ATOM     24  O   UNL     1       1.488  11.444  18.254  0.00  0.00    +0.000 OA
ATOM     25  H   UNL     1       1.174  12.355  18.382  0.00  0.00    +0.000 HD
ENDBRANCH  10  24
BRANCH   3  26
ATOM     26  O   UNL     1       3.266   6.483  17.580  0.00  0.00    +0.000 OA
BRANCH  26  27
ATOM     27  C   UNL     1       4.680   6.221  17.639  0.00  0.00    +0.000 C 
ATOM     28  O   UNL     1       5.562   7.322  17.965  0.00  0.00    +0.000 OA
ATOM     29  C   UNL     1       6.672   7.266  17.035  0.00  0.00    +0.000 C 
ATOM     30  C   UNL     1       6.697   5.855  16.463  0.00  0.00    +0.000 C 
ATOM     31  C   UNL     1       5.219   5.531  16.373  0.00  0.00    +0.000 C 
BRANCH  30  32
ATOM     32  O   UNL     1       7.344   5.720  15.202  0.00  0.00    +0.000 OA
ATOM     33  H   UNL     1       7.894   6.506  15.038  0.00  0.00    +0.000 HD
ENDBRANCH  30  32
BRANCH  31  34
ATOM     34  O   UNL     1       5.032   4.110  16.368  0.00  0.00    +0.000 OA
ATOM     35  H   UNL     1       4.928   3.861  15.429  0.00  0.00    +0.000 HD
ENDBRANCH  31  34
BRANCH  29  36
ATOM     36  C   UNL     1       8.000   7.648  17.691  0.00  0.00    +0.000 C 
BRANCH  36  37
ATOM     37  O   UNL     1       8.232   6.898  18.882  0.00  0.00    +0.000 OA
ATOM     38  H   UNL     1       8.650   6.055  18.626  0.00  0.00    +0.000 HD
ENDBRANCH  36  37
ENDBRANCH  29  36
ENDBRANCH  26  27
ENDBRANCH   3  26
TORSDOF 11
ENDMDL
MODEL 8
REMARK VINA RESULT:      -7.4      4.643      8.583
REMARK  Name = 
REMARK  11 active torsions:
REMARK  status: ('A' for Active; 'I' for Inactive)
REMARK    1  A    between atoms: C_3  and  O_4
REMARK    2  A    between atoms: O_4  and  C_5
REMARK    3  A    between atoms: C_7  and  C_8
REMARK    4  A    between atoms: C_8  and  O_9
REMARK    5  A    between atoms: C_10  and  O_11
REMARK    6  A    between atoms: C_12  and  O_13
REMARK    7  A    between atoms: C_14  and  C_15
REMARK    8  A    between atoms: C_18  and  O_19
REMARK    9  A    between atoms: C_20  and  O_21
REMARK   10  A    between atoms: C_26  and  O_27
REMARK   11  A    between atoms: C_29  and  O_30
REMARK                            x       y       z     vdW  Elec       q    Type
REMARK                         _______ _______ _______ _____ _____    ______ ____
ROOT
ATOM      1  O   UNL     1      -1.876  14.102  19.942  0.00  0.00    +0.000 OA
ATOM      2  C   UNL     1      -0.841  13.669  19.444  0.00  0.00    +0.000 A 
ATOM      3  C   UNL     1      -0.587  12.193  19.341  0.00  0.00    +0.000 A 
ATOM      4  C   UNL     1       0.700  11.819  19.195  0.00  0.00    +0.000 A 
ATOM      5  O   UNL     1       1.771  12.703  19.103  0.00  0.00    +0.000 OA
ATOM      6  C   UNL     1       1.529  14.028  18.925  0.00  0.00    +0.000 A 
ATOM      7  C   UNL     1       2.640  14.822  18.641  0.00  0.00    +0.000 A 
ATOM      8  C   UNL     1       2.460  16.177  18.412  0.00  0.00    +0.000 A 
ATOM      9  C   UNL     1       1.191  16.741  18.463  0.00  0.00    +0.000 A 
ATOM     10  C   UNL     1       0.086  15.941  18.770  0.00  0.00    +0.000 A 
ATOM     11  C   UNL     1       0.250  14.574  19.019  0.00  0.00    +0.000 A 
ENDROOT
BRANCH   4  12
ATOM     12  C   UNL     1       1.193  10.414  19.178  0.00  0.00    +0.000 A 
ATOM     13  C   UNL     1       1.047   9.598  20.324  0.00  0.00    +0.000 A 
ATOM     14  C   UNL     1       1.500   8.273  20.340  0.00  0.00    +0.000 A 
ATOM     15  C   UNL     1       2.097   7.748  19.203  0.00  0.00    +0.000 A 
ATOM     16  C   UNL     1       2.299   8.559  18.091  0.00  0.00    +0.000 A 
ATOM     17  C   UNL     1       1.871   9.885  18.079  0.00  0.00    +0.000 A 
BRANCH  15  18
ATOM     18  O   UNL     1       2.465   6.435  19.152  0.00  0.00    +0.000 OA
ATOM     19  H   UNL     1       1.974   6.001  18.437  0.00  0.00    +0.000 HD
ENDBRANCH  15  18
BRANCH  16  20
ATOM     20  O   UNL     1       2.900   8.065  16.971  0.00  0.00    +0.000 OA
ATOM     21  H   UNL     1       2.776   8.750  16.293  0.00  0.00    +0.000 HD
ENDBRANCH  16  20
ENDBRANCH   4  12
BRANCH   8  22
ATOM     22  O   UNL     1       3.517  16.990  18.128  0.00  0.00    +0.000 OA
ATOM     23  H   UNL     1       3.202  17.905  18.035  0.00  0.00    +0.000 HD
ENDBRANCH   8  22
BRANCH  10  24
ATOM     24  O   UNL     1      -1.158  16.509  18.788  0.00  0.00    +0.000 OA
ATOM     25  H   UNL     1      -1.705  16.071  19.461  0.00  0.00    +0.000 HD
ENDBRANCH  10  24
BRANCH   3  26
ATOM     26  O   UNL     1      -1.588  11.271  19.574  0.00  0.00    +0.000 OA
BRANCH  26  27
ATOM     27  C   UNL     1      -2.473  10.802  18.541  0.00  0.00    +0.000 C 
ATOM     28  O   UNL     1      -1.898  10.467  17.255  0.00  0.00    +0.000 OA
ATOM     29  C   UNL     1      -2.754  11.053  16.243  0.00  0.00    +0.000 C 
ATOM     30  C   UNL     1      -4.096  11.330  16.906  0.00  0.00    +0.000 C 
ATOM     31  C   UNL     1      -3.672  11.738  18.303  0.00  0.00    +0.000 C 
BRANCH  30  32
ATOM     32  O   UNL     1      -4.888  12.334  16.282  0.00  0.00    +0.000 OA
ATOM     33  H   UNL     1      -5.641  11.913  15.829  0.00  0.00    +0.000 HD
ENDBRANCH  30  32
BRANCH  31  34
ATOM     34  O   UNL     1      -4.754  11.530  19.219  0.00  0.00    +0.000 OA
ATOM     35  H   UNL     1      -4.885  10.562  19.257  0.00  0.00    +0.000 HD
ENDBRANCH  31  34
BRANCH  29  36
ATOM     36  C   UNL     1      -2.892  10.157  15.009  0.00  0.00    +0.000 C 
BRANCH  36  37
ATOM     37  O   UNL     1      -4.244  10.088  14.560  0.00  0.00    +0.000 OA
ATOM     38  H   UNL     1      -4.281  10.482  13.668  0.00  0.00    +0.000 HD
ENDBRANCH  36  37
ENDBRANCH  29  36
ENDBRANCH  26  27
ENDBRANCH   3  26
TORSDOF 11
ENDMDL
MODEL 9
REMARK VINA RESULT:      -7.4      1.548      1.846
REMARK  Name = 
REMARK  11 active torsions:
REMARK  status: ('A' for Active; 'I' for Inactive)
REMARK    1  A    between atoms: C_3  and  O_4
REMARK    2  A    between atoms: O_4  and  C_5
REMARK    3  A    between atoms: C_7  and  C_8
REMARK    4  A    between atoms: C_8  and  O_9
REMARK    5  A    between atoms: C_10  and  O_11
REMARK    6  A    between atoms: C_12  and  O_13
REMARK    7  A    between atoms: C_14  and  C_15
REMARK    8  A    between atoms: C_18  and  O_19
REMARK    9  A    between atoms: C_20  and  O_21
REMARK   10  A    between atoms: C_26  and  O_27
REMARK   11  A    between atoms: C_29  and  O_30
REMARK                            x       y       z     vdW  Elec       q    Type
REMARK                         _______ _______ _______ _____ _____    ______ ____
ROOT
ATOM      1  O   UNL     1       1.963   8.934  17.138  0.00  0.00    +0.000 OA
ATOM      2  C   UNL     1       2.061   8.513  18.287  0.00  0.00    +0.000 A 
ATOM      3  C   UNL     1       2.641   7.158  18.572  0.00  0.00    +0.000 A 
ATOM      4  C   UNL     1       2.321   6.611  19.761  0.00  0.00    +0.000 A 
ATOM      5  O   UNL     1       1.534   7.232  20.727  0.00  0.00    +0.000 OA
ATOM      6  C   UNL     1       1.232   8.549  20.595  0.00  0.00    +0.000 A 
ATOM      7  C   UNL     1       0.615   9.151  21.692  0.00  0.00    +0.000 A 
ATOM      8  C   UNL     1       0.312  10.502  21.640  0.00  0.00    +0.000 A 
ATOM      9  C   UNL     1       0.617  11.253  20.511  0.00  0.00    +0.000 A 
ATOM     10  C   UNL     1       1.218  10.637  19.407  0.00  0.00    +0.000 A 
ATOM     11  C   UNL     1       1.516   9.270  19.437  0.00  0.00    +0.000 A 
ENDROOT
BRANCH   4  12
ATOM     12  C   UNL     1       2.694   5.241  20.209  0.00  0.00    +0.000 A 
ATOM     13  C   UNL     1       3.904   4.656  19.766  0.00  0.00    +0.000 A 
ATOM     14  C   UNL     1       4.284   3.370  20.167  0.00  0.00    +0.000 A 
ATOM     15  C   UNL     1       3.460   2.658  21.027  0.00  0.00    +0.000 A 
ATOM     16  C   UNL     1       2.241   3.200  21.422  0.00  0.00    +0.000 A 
ATOM     17  C   UNL     1       1.848   4.470  21.006  0.00  0.00    +0.000 A 
BRANCH  15  18
ATOM     18  O   UNL     1       3.843   1.442  21.513  0.00  0.00    +0.000 OA
ATOM     19  H   UNL     1       3.151   0.793  21.311  0.00  0.00    +0.000 HD
ENDBRANCH  15  18
BRANCH  16  20
ATOM     20  O   UNL     1       1.410   2.507  22.253  0.00  0.00    +0.000 OA
ATOM     21  H   UNL     1       0.978   1.846  21.686  0.00  0.00    +0.000 HD
ENDBRANCH  16  20
ENDBRANCH   4  12
BRANCH   8  22
ATOM     22  O   UNL     1      -0.289  11.132  22.689  0.00  0.00    +0.000 OA
ATOM     23  H   UNL     1      -0.667  10.467  23.289  0.00  0.00    +0.000 HD
ENDBRANCH   8  22
BRANCH  10  24
ATOM     24  O   UNL     1       1.536  11.397  18.317  0.00  0.00    +0.000 OA
ATOM     25  H   UNL     1       1.923  10.832  17.628  0.00  0.00    +0.000 HD
ENDBRANCH  10  24
BRANCH   3  26
ATOM     26  O   UNL     1       3.300   6.437  17.596  0.00  0.00    +0.000 OA
BRANCH  26  27
ATOM     27  C   UNL     1       4.714   6.172  17.644  0.00  0.00    +0.000 C 
ATOM     28  O   UNL     1       5.599   7.267  17.982  0.00  0.00    +0.000 OA
ATOM     29  C   UNL     1       6.704   7.224  17.045  0.00  0.00    +0.000 C 
ATOM     30  C   UNL     1       6.725   5.822  16.452  0.00  0.00    +0.000 C 
ATOM     31  C   UNL     1       5.246   5.502  16.365  0.00  0.00    +0.000 C 
BRANCH  30  32
ATOM     32  O   UNL     1       7.365   5.705  15.186  0.00  0.00    +0.000 OA
ATOM     33  H   UNL     1       7.105   4.862  14.773  0.00  0.00    +0.000 HD
ENDBRANCH  30  32
BRANCH  31  34
ATOM     34  O   UNL     1       5.057   4.081  16.339  0.00  0.00    +0.000 OA
ATOM     35  H   UNL     1       4.193   3.923  16.769  0.00  0.00    +0.000 HD
ENDBRANCH  31  34
BRANCH  29  36
ATOM     36  C   UNL     1       8.036   7.594  17.701  0.00  0.00    +0.000 C 
BRANCH  36  37
ATOM     37  O   UNL     1       8.265   6.838  18.889  0.00  0.00    +0.000 OA
ATOM     38  H   UNL     1       7.396   6.604  19.264  0.00  0.00    +0.000 HD
ENDBRANCH  36  37
ENDBRANCH  29  36
ENDBRANCH  26  27
ENDBRANCH   3  26
TORSDOF 11
ENDMDL
