MODEL 1
REMARK VINA RESULT:      -2.9      0.000      0.000
REMARK  Name = 
REMARK  0 active torsions:
REMARK  status: ('A' for Active; 'I' for Inactive)
REMARK                            x       y       z     vdW  Elec       q    Type
REMARK                         _______ _______ _______ _____ _____    ______ ____
ROOT
ATOM      1  O   UNL     1       3.642   9.834  25.941  0.00  0.00    +0.000 OA
ATOM      2  N   UNL     1       3.591   9.944  27.177  0.00  0.00    +0.000 N 
ATOM      3  O   UNL     1       3.645   8.931  27.894  0.00  0.00    +0.000 OA
ATOM      4  O   UNL     1       3.484  11.067  27.696  0.00  0.00    +0.000 OA
ENDROOT
TORSDOF 0
ENDMDL
MODEL 2
REMARK VINA RESULT:      -2.9      0.068      1.863
REMARK  Name = 
REMARK  0 active torsions:
REMARK  status: ('A' for Active; 'I' for Inactive)
REMARK                            x       y       z     vdW  Elec       q    Type
REMARK                         _______ _______ _______ _____ _____    ______ ____
ROOT
ATOM      1  O   UNL     1       3.509  11.054  27.698  0.00  0.00    +0.000 OA
ATOM      2  N   UNL     1       3.545   9.927  27.177  0.00  0.00    +0.000 N 
ATOM      3  O   UNL     1       3.592   9.816  25.941  0.00  0.00    +0.000 OA
ATOM      4  O   UNL     1       3.533   8.912  27.892  0.00  0.00    +0.000 OA
ENDROOT
TORSDOF 0
ENDMDL
MODEL 3
REMARK VINA RESULT:      -2.9      0.107      1.525
REMARK  Name = 
REMARK  0 active torsions:
REMARK  status: ('A' for Active; 'I' for Inactive)
REMARK                            x       y       z     vdW  Elec       q    Type
REMARK                         _______ _______ _______ _____ _____    ______ ____
ROOT
ATOM      1  O   UNL     1       3.494  11.061  27.712  0.00  0.00    +0.000 OA
ATOM      2  N   UNL     1       3.535   9.940  27.177  0.00  0.00    +0.000 N 
ATOM      3  O   UNL     1       3.443   8.916  27.875  0.00  0.00    +0.000 OA
ATOM      4  O   UNL     1       3.668   9.843  25.947  0.00  0.00    +0.000 OA
ENDROOT
TORSDOF 0
ENDMDL
MODEL 4
REMARK VINA RESULT:      -2.9      7.015      7.696
REMARK  Name = 
REMARK  0 active torsions:
REMARK  status: ('A' for Active; 'I' for Inactive)
REMARK                            x       y       z     vdW  Elec       q    Type
REMARK                         _______ _______ _______ _____ _____    ______ ____
ROOT
ATOM      1  O   UNL     1       8.352   5.329  28.295  0.00  0.00    +0.000 OA
ATOM      2  N   UNL     1       8.582   4.365  27.547  0.00  0.00    +0.000 N 
ATOM      3  O   UNL     1       7.640   3.742  27.029  0.00  0.00    +0.000 OA
ATOM      4  O   UNL     1       9.753   4.022  27.319  0.00  0.00    +0.000 OA
ENDROOT
TORSDOF 0
ENDMDL
MODEL 5
REMARK VINA RESULT:      -2.9      6.993      7.549
REMARK  Name = 
REMARK  0 active torsions:
REMARK  status: ('A' for Active; 'I' for Inactive)
REMARK                            x       y       z     vdW  Elec       q    Type
REMARK                         _______ _______ _______ _____ _____    ______ ____
ROOT
ATOM      1  O   UNL     1       7.609   3.713  26.982  0.00  0.00    +0.000 OA
ATOM      2  N   UNL     1       8.533   4.348  27.515  0.00  0.00    +0.000 N 
ATOM      3  O   UNL     1       9.714   4.037  27.285  0.00  0.00    +0.000 OA
ATOM      4  O   UNL     1       8.278   5.292  28.280  0.00  0.00    +0.000 OA
ENDROOT
TORSDOF 0
ENDMDL
MODEL 6
REMARK VINA RESULT:      -2.9      6.983      7.628
REMARK  Name = 
REMARK  0 active torsions:
REMARK  status: ('A' for Active; 'I' for Inactive)
REMARK                            x       y       z     vdW  Elec       q    Type
REMARK                         _______ _______ _______ _____ _____    ______ ____
ROOT
ATOM      1  O   UNL     1       7.622   3.707  26.982  0.00  0.00    +0.000 OA
ATOM      2  N   UNL     1       8.528   4.355  27.532  0.00  0.00    +0.000 N 
ATOM      3  O   UNL     1       8.245   5.299  28.288  0.00  0.00    +0.000 OA
ATOM      4  O   UNL     1       9.716   4.060  27.324  0.00  0.00    +0.000 OA
ENDROOT
TORSDOF 0
ENDMDL
MODEL 7
REMARK VINA RESULT:      -2.9      0.167      1.522
REMARK  Name = 
REMARK  0 active torsions:
REMARK  status: ('A' for Active; 'I' for Inactive)
REMARK                            x       y       z     vdW  Elec       q    Type
REMARK                         _______ _______ _______ _____ _____    ______ ____
ROOT
ATOM      1  O   UNL     1       3.962   8.969  27.882  0.00  0.00    +0.000 OA
ATOM      2  N   UNL     1       3.690   9.951  27.171  0.00  0.00    +0.000 N 
ATOM      3  O   UNL     1       3.633   9.826  25.936  0.00  0.00    +0.000 OA
ATOM      4  O   UNL     1       3.476  11.056  27.693  0.00  0.00    +0.000 OA
ENDROOT
TORSDOF 0
ENDMDL
MODEL 8
REMARK VINA RESULT:      -2.8      7.123      7.798
REMARK  Name = 
REMARK  0 active torsions:
REMARK  status: ('A' for Active; 'I' for Inactive)
REMARK                            x       y       z     vdW  Elec       q    Type
REMARK                         _______ _______ _______ _____ _____    ______ ____
ROOT
ATOM      1  O   UNL     1       8.529   5.352  28.279  0.00  0.00    +0.000 OA
ATOM      2  N   UNL     1       8.713   4.341  27.581  0.00  0.00    +0.000 N 
ATOM      3  O   UNL     1       9.864   3.908  27.405  0.00  0.00    +0.000 OA
ATOM      4  O   UNL     1       7.746   3.764  27.057  0.00  0.00    +0.000 OA
ENDROOT
TORSDOF 0
ENDMDL
MODEL 9
REMARK VINA RESULT:      -2.8      0.253      1.857
REMARK  Name = 
REMARK  0 active torsions:
REMARK  status: ('A' for Active; 'I' for Inactive)
REMARK                            x       y       z     vdW  Elec       q    Type
REMARK                         _______ _______ _______ _____ _____    ______ ____
ROOT
ATOM      1  O   UNL     1       4.117   8.989  27.847  0.00  0.00    +0.000 OA
ATOM      2  N   UNL     1       3.748   9.953  27.155  0.00  0.00    +0.000 N 
ATOM      3  O   UNL     1       3.470  11.036  27.697  0.00  0.00    +0.000 OA
ATOM      4  O   UNL     1       3.657   9.833  25.923  0.00  0.00    +0.000 OA
ENDROOT
TORSDOF 0
ENDMDL
