MODEL 1
REMARK VINA RESULT:      -7.4      0.000      0.000
REMARK  Name = 
REMARK  5 active torsions:
REMARK  status: ('A' for Active; 'I' for Inactive)
REMARK    1  A    between atoms: C_1  and  C_2
REMARK    2  A    between atoms: C_4  and  C_5
REMARK    3  A    between atoms: C_8  and  C_9
REMARK    4  A    between atoms: N_12  and  C_13
REMARK    5  A    between atoms: C_14  and  C_15
REMARK                            x       y       z     vdW  Elec       q    Type
REMARK                         _______ _______ _______ _____ _____    ______ ____
ROOT
ATOM      1  C   UNL     1       0.134  12.378  18.947  0.00  0.00    +0.000 C 
ATOM      2  C   UNL     1       0.478  11.015  19.484  0.00  0.00    +0.000 A 
ATOM      3  C   UNL     1       0.004  10.669  20.857  0.00  0.00    +0.000 A 
ATOM      4  C   UNL     1       0.341   9.452  21.324  0.00  0.00    +0.000 A 
ATOM      5  C   UNL     1      -0.076   8.970  22.679  0.00  0.00    +0.000 C 
ATOM      6  N   UNL     1       1.113   8.603  20.512  0.00  0.00    +0.000 N 
ATOM      7  N   UNL     1       1.603   7.372  20.813  0.00  0.00    +0.000 NA
ATOM      8  C   UNL     1       2.282   6.993  19.726  0.00  0.00    +0.000 A 
ATOM      9  C   UNL     1       2.226   7.963  18.700  0.00  0.00    +0.000 A 
ATOM     10 CL   UNL     1       2.903   7.913  17.142  0.00  0.00    +0.000 Cl
ATOM     11  C   UNL     1       1.500   9.003  19.230  0.00  0.00    +0.000 A 
ATOM     12  N   UNL     1       1.171  10.227  18.716  0.00  0.00    +0.000 NA
ENDROOT
BRANCH   8  13
ATOM     13  C   UNL     1       3.019   5.734  19.687  0.00  0.00    +0.000 A 
ATOM     14  C   UNL     1       4.374   5.590  19.326  0.00  0.00    +0.000 A 
ATOM     15  N   UNL     1       4.796   4.331  19.431  0.00  0.00    +0.000 NA
ATOM     16  N   UNL     1       3.716   3.666  19.881  0.00  0.00    +0.000 N 
ATOM     17  C   UNL     1       3.847   2.255  20.170  0.00  0.00    +0.000 C 
ATOM     18  C   UNL     1       2.606   4.459  20.026  0.00  0.00    +0.000 A 
BRANCH  18  19
ATOM     19  C   UNL     1       1.316   3.893  20.460  0.00  0.00    +0.000 C 
ATOM     20  F   UNL     1       0.302   4.777  20.561  0.00  0.00    +0.000 F 
ATOM     21  F   UNL     1       0.896   2.940  19.582  0.00  0.00    +0.000 F 
ATOM     22  F   UNL     1       1.427   3.274  21.662  0.00  0.00    +0.000 F 
ENDBRANCH  18  19
ENDBRANCH   8  13
TORSDOF 2
ENDMDL
MODEL 2
REMARK VINA RESULT:      -7.4      3.406      4.280
REMARK  Name = 
REMARK  5 active torsions:
REMARK  status: ('A' for Active; 'I' for Inactive)
REMARK    1  A    between atoms: C_1  and  C_2
REMARK    2  A    between atoms: C_4  and  C_5
REMARK    3  A    between atoms: C_8  and  C_9
REMARK    4  A    between atoms: N_12  and  C_13
REMARK    5  A    between atoms: C_14  and  C_15
REMARK                            x       y       z     vdW  Elec       q    Type
REMARK                         _______ _______ _______ _____ _____    ______ ____
ROOT
ATOM      1  C   UNL     1      -0.311   9.313  22.480  0.00  0.00    +0.000 C 
ATOM      2  C   UNL     1       0.514   8.863  21.305  0.00  0.00    +0.000 A 
ATOM      3  C   UNL     1       0.684   9.818  20.169  0.00  0.00    +0.000 A 
ATOM      4  C   UNL     1       1.409   9.387  19.119  0.00  0.00    +0.000 A 
ATOM      5  C   UNL     1       1.667  10.243  17.918  0.00  0.00    +0.000 C 
ATOM      6  N   UNL     1       1.940   8.085  19.150  0.00  0.00    +0.000 N 
ATOM      7  N   UNL     1       2.643   7.443  18.181  0.00  0.00    +0.000 NA
ATOM      8  C   UNL     1       2.901   6.232  18.683  0.00  0.00    +0.000 A 
ATOM      9  C   UNL     1       2.386   6.078  19.990  0.00  0.00    +0.000 A 
ATOM     10 CL   UNL     1       2.492   4.740  21.032  0.00  0.00    +0.000 Cl
ATOM     11  C   UNL     1       1.745   7.264  20.264  0.00  0.00    +0.000 A 
ATOM     12  N   UNL     1       1.023   7.667  21.352  0.00  0.00    +0.000 NA
ENDROOT
BRANCH   8  13
ATOM     13  C   UNL     1       3.593   5.213  17.900  0.00  0.00    +0.000 A 
ATOM     14  C   UNL     1       3.259   3.844  17.862  0.00  0.00    +0.000 A 
ATOM     15  N   UNL     1       4.029   3.157  17.021  0.00  0.00    +0.000 NA
ATOM     16  N   UNL     1       4.849   4.090  16.501  0.00  0.00    +0.000 N 
ATOM     17  C   UNL     1       5.793   3.685  15.483  0.00  0.00    +0.000 C 
ATOM     18  C   UNL     1       4.648   5.344  17.018  0.00  0.00    +0.000 A 
BRANCH  18  19
ATOM     19  C   UNL     1       5.488   6.482  16.604  0.00  0.00    +0.000 C 
ATOM     20  F   UNL     1       5.526   7.517  17.468  0.00  0.00    +0.000 F 
ATOM     21  F   UNL     1       6.780   6.084  16.438  0.00  0.00    +0.000 F 
ATOM     22  F   UNL     1       5.092   6.979  15.404  0.00  0.00    +0.000 F 
ENDBRANCH  18  19
ENDBRANCH   8  13
TORSDOF 2
ENDMDL
MODEL 3
REMARK VINA RESULT:      -7.3      4.583      6.115
REMARK  Name = 
REMARK  5 active torsions:
REMARK  status: ('A' for Active; 'I' for Inactive)
REMARK    1  A    between atoms: C_1  and  C_2
REMARK    2  A    between atoms: C_4  and  C_5
REMARK    3  A    between atoms: C_8  and  C_9
REMARK    4  A    between atoms: N_12  and  C_13
REMARK    5  A    between atoms: C_14  and  C_15
REMARK                            x       y       z     vdW  Elec       q    Type
REMARK                         _______ _______ _______ _____ _____    ______ ____
ROOT
ATOM      1  C   UNL     1       6.856   4.787  13.669  0.00  0.00    +0.000 C 
ATOM      2  C   UNL     1       6.496   4.737  15.129  0.00  0.00    +0.000 A 
ATOM      3  C   UNL     1       7.358   5.495  16.084  0.00  0.00    +0.000 A 
ATOM      4  C   UNL     1       7.029   5.419  17.387  0.00  0.00    +0.000 A 
ATOM      5  C   UNL     1       7.800   6.138  18.452  0.00  0.00    +0.000 C 
ATOM      6  N   UNL     1       5.924   4.636  17.764  0.00  0.00    +0.000 N 
ATOM      7  N   UNL     1       5.463   4.383  19.017  0.00  0.00    +0.000 NA
ATOM      8  C   UNL     1       4.413   3.576  18.844  0.00  0.00    +0.000 A 
ATOM      9  C   UNL     1       4.165   3.310  17.479  0.00  0.00    +0.000 A 
ATOM     10 CL   UNL     1       2.933   2.375  16.776  0.00  0.00    +0.000 Cl
ATOM     11  C   UNL     1       5.162   3.972  16.800  0.00  0.00    +0.000 A 
ATOM     12  N   UNL     1       5.457   4.030  15.466  0.00  0.00    +0.000 NA
ENDROOT
BRANCH   8  13
ATOM     13  C   UNL     1       3.679   3.024  19.980  0.00  0.00    +0.000 A 
ATOM     14  C   UNL     1       4.219   2.176  20.968  0.00  0.00    +0.000 A 
ATOM     15  N   UNL     1       3.333   1.870  21.913  0.00  0.00    +0.000 NA
ATOM     16  N   UNL     1       2.224   2.539  21.543  0.00  0.00    +0.000 N 
ATOM     17  C   UNL     1       1.063   2.474  22.403  0.00  0.00    +0.000 C 
ATOM     18  C   UNL     1       2.369   3.229  20.367  0.00  0.00    +0.000 A 
BRANCH  18  19
ATOM     19  C   UNL     1       1.243   3.978  19.781  0.00  0.00    +0.000 C 
ATOM     20  F   UNL     1       0.640   4.858  20.607  0.00  0.00    +0.000 F 
ATOM     21  F   UNL     1       1.662   4.702  18.705  0.00  0.00    +0.000 F 
ATOM     22  F   UNL     1       0.280   3.142  19.318  0.00  0.00    +0.000 F 
ENDBRANCH  18  19
ENDBRANCH   8  13
TORSDOF 2
ENDMDL
MODEL 4
REMARK VINA RESULT:      -7.3      1.155      1.417
REMARK  Name = 
REMARK  5 active torsions:
REMARK  status: ('A' for Active; 'I' for Inactive)
REMARK    1  A    between atoms: C_1  and  C_2
REMARK    2  A    between atoms: C_4  and  C_5
REMARK    3  A    between atoms: C_8  and  C_9
REMARK    4  A    between atoms: N_12  and  C_13
REMARK    5  A    between atoms: C_14  and  C_15
REMARK                            x       y       z     vdW  Elec       q    Type
REMARK                         _______ _______ _______ _____ _____    ______ ____
ROOT
ATOM      1  C   UNL     1       0.935  12.107  18.470  0.00  0.00    +0.000 C 
ATOM      2  C   UNL     1       1.151  10.702  18.965  0.00  0.00    +0.000 A 
ATOM      3  C   UNL     1       0.509  10.313  20.256  0.00  0.00    +0.000 A 
ATOM      4  C   UNL     1       0.732   9.058  20.688  0.00  0.00    +0.000 A 
ATOM      5  C   UNL     1       0.143   8.531  21.960  0.00  0.00    +0.000 C 
ATOM      6  N   UNL     1       1.551   8.210  19.920  0.00  0.00    +0.000 N 
ATOM      7  N   UNL     1       1.944   6.941  20.204  0.00  0.00    +0.000 NA
ATOM      8  C   UNL     1       2.723   6.582  19.179  0.00  0.00    +0.000 A 
ATOM      9  C   UNL     1       2.830   7.604  18.209  0.00  0.00    +0.000 A 
ATOM     10 CL   UNL     1       3.675   7.596  16.735  0.00  0.00    +0.000 Cl
ATOM     11  C   UNL     1       2.098   8.654  18.713  0.00  0.00    +0.000 A 
ATOM     12  N   UNL     1       1.888   9.917  18.235  0.00  0.00    +0.000 NA
ENDROOT
BRANCH   8  13
ATOM     13  C   UNL     1       3.399   5.288  19.151  0.00  0.00    +0.000 A 
ATOM     14  C   UNL     1       4.755   5.068  19.464  0.00  0.00    +0.000 A 
ATOM     15  N   UNL     1       5.087   3.779  19.404  0.00  0.00    +0.000 NA
ATOM     16  N   UNL     1       3.935   3.166  19.072  0.00  0.00    +0.000 N 
ATOM     17  C   UNL     1       3.925   1.722  18.982  0.00  0.00    +0.000 C 
ATOM     18  C   UNL     1       2.890   4.033  18.879  0.00  0.00    +0.000 A 
BRANCH  18  19
ATOM     19  C   UNL     1       1.564   3.546  18.460  0.00  0.00    +0.000 C 
ATOM     20  F   UNL     1       0.660   3.401  19.452  0.00  0.00    +0.000 F 
ATOM     21  F   UNL     1       1.001   4.405  17.565  0.00  0.00    +0.000 F 
ATOM     22  F   UNL     1       1.654   2.349  17.826  0.00  0.00    +0.000 F 
ENDBRANCH  18  19
ENDBRANCH   8  13
TORSDOF 2
ENDMDL
MODEL 5
REMARK VINA RESULT:      -7.2      4.834      7.532
REMARK  Name = 
REMARK  5 active torsions:
REMARK  status: ('A' for Active; 'I' for Inactive)
REMARK    1  A    between atoms: C_1  and  C_2
REMARK    2  A    between atoms: C_4  and  C_5
REMARK    3  A    between atoms: C_8  and  C_9
REMARK    4  A    between atoms: N_12  and  C_13
REMARK    5  A    between atoms: C_14  and  C_15
REMARK                            x       y       z     vdW  Elec       q    Type
REMARK                         _______ _______ _______ _____ _____    ______ ____
ROOT
ATOM      1  C   UNL     1       9.143   6.089  12.631  0.00  0.00    +0.000 C 
ATOM      2  C   UNL     1       7.983   5.355  13.247  0.00  0.00    +0.000 A 
ATOM      3  C   UNL     1       7.130   4.521  12.347  0.00  0.00    +0.000 A 
ATOM      4  C   UNL     1       6.086   3.890  12.917  0.00  0.00    +0.000 A 
ATOM      5  C   UNL     1       5.156   3.015  12.135  0.00  0.00    +0.000 C 
ATOM      6  N   UNL     1       5.859   4.061  14.294  0.00  0.00    +0.000 N 
ATOM      7  N   UNL     1       4.840   3.564  15.043  0.00  0.00    +0.000 NA
ATOM      8  C   UNL     1       5.063   4.023  16.278  0.00  0.00    +0.000 A 
ATOM      9  C   UNL     1       6.236   4.806  16.351  0.00  0.00    +0.000 A 
ATOM     10 CL   UNL     1       6.935   5.566  17.702  0.00  0.00    +0.000 Cl
ATOM     11  C   UNL     1       6.719   4.847  15.064  0.00  0.00    +0.000 A 
ATOM     12  N   UNL     1       7.795   5.497  14.526  0.00  0.00    +0.000 NA
ENDROOT
BRANCH   8  13
ATOM     13  C   UNL     1       4.132   3.755  17.371  0.00  0.00    +0.000 A 
ATOM     14  C   UNL     1       3.856   2.485  17.916  0.00  0.00    +0.000 A 
ATOM     15  N   UNL     1       3.005   2.545  18.939  0.00  0.00    +0.000 NA
ATOM     16  N   UNL     1       2.749   3.861  19.066  0.00  0.00    +0.000 N 
ATOM     17  C   UNL     1       1.890   4.293  20.147  0.00  0.00    +0.000 C 
ATOM     18  C   UNL     1       3.381   4.635  18.127  0.00  0.00    +0.000 A 
BRANCH  18  19
ATOM     19  C   UNL     1       3.177   6.093  18.079  0.00  0.00    +0.000 C 
ATOM     20  F   UNL     1       3.902   6.749  17.149  0.00  0.00    +0.000 F 
ATOM     21  F   UNL     1       1.874   6.383  17.810  0.00  0.00    +0.000 F 
ATOM     22  F   UNL     1       3.451   6.671  19.277  0.00  0.00    +0.000 F 
ENDBRANCH  18  19
ENDBRANCH   8  13
TORSDOF 2
ENDMDL
MODEL 6
REMARK VINA RESULT:      -7.1      3.562      4.471
REMARK  Name = 
REMARK  5 active torsions:
REMARK  status: ('A' for Active; 'I' for Inactive)
REMARK    1  A    between atoms: C_1  and  C_2
REMARK    2  A    between atoms: C_4  and  C_5
REMARK    3  A    between atoms: C_8  and  C_9
REMARK    4  A    between atoms: N_12  and  C_13
REMARK    5  A    between atoms: C_14  and  C_15
REMARK                            x       y       z     vdW  Elec       q    Type
REMARK                         _______ _______ _______ _____ _____    ______ ____
ROOT
ATOM      1  C   UNL     1      -0.379   8.853  22.202  0.00  0.00    +0.000 C 
ATOM      2  C   UNL     1       0.561   8.562  21.064  0.00  0.00    +0.000 A 
ATOM      3  C   UNL     1       0.734   9.614  20.019  0.00  0.00    +0.000 A 
ATOM      4  C   UNL     1       1.565   9.324  19.000  0.00  0.00    +0.000 A 
ATOM      5  C   UNL     1       1.838  10.290  17.889  0.00  0.00    +0.000 C 
ATOM      6  N   UNL     1       2.197   8.068  18.975  0.00  0.00    +0.000 N 
ATOM      7  N   UNL     1       3.018   7.561  18.020  0.00  0.00    +0.000 NA
ATOM      8  C   UNL     1       3.337   6.337  18.450  0.00  0.00    +0.000 A 
ATOM      9  C   UNL     1       2.744   6.041  19.697  0.00  0.00    +0.000 A 
ATOM     10 CL   UNL     1       2.884   4.636  20.643  0.00  0.00    +0.000 Cl
ATOM     11  C   UNL     1       1.990   7.149  20.007  0.00  0.00    +0.000 A 
ATOM     12  N   UNL     1       1.162   7.408  21.063  0.00  0.00    +0.000 NA
ENDROOT
BRANCH   8  13
ATOM     13  C   UNL     1       4.164   5.438  17.650  0.00  0.00    +0.000 A 
ATOM     14  C   UNL     1       3.727   4.238  17.054  0.00  0.00    +0.000 A 
ATOM     15  N   UNL     1       4.684   3.649  16.338  0.00  0.00    +0.000 NA
ATOM     16  N   UNL     1       5.734   4.484  16.457  0.00  0.00    +0.000 N 
ATOM     17  C   UNL     1       6.947   4.170  15.735  0.00  0.00    +0.000 C 
ATOM     18  C   UNL     1       5.484   5.566  17.261  0.00  0.00    +0.000 A 
BRANCH  18  19
ATOM     19  C   UNL     1       6.534   6.560  17.549  0.00  0.00    +0.000 C 
ATOM     20  F   UNL     1       6.140   7.849  17.493  0.00  0.00    +0.000 F 
ATOM     21  F   UNL     1       7.034   6.375  18.802  0.00  0.00    +0.000 F 
ATOM     22  F   UNL     1       7.585   6.428  16.701  0.00  0.00    +0.000 F 
ENDBRANCH  18  19
ENDBRANCH   8  13
TORSDOF 2
ENDMDL
MODEL 7
REMARK VINA RESULT:      -6.9      2.359      3.246
REMARK  Name = 
REMARK  5 active torsions:
REMARK  status: ('A' for Active; 'I' for Inactive)
REMARK    1  A    between atoms: C_1  and  C_2
REMARK    2  A    between atoms: C_4  and  C_5
REMARK    3  A    between atoms: C_8  and  C_9
REMARK    4  A    between atoms: N_12  and  C_13
REMARK    5  A    between atoms: C_14  and  C_15
REMARK                            x       y       z     vdW  Elec       q    Type
REMARK                         _______ _______ _______ _____ _____    ______ ____
ROOT
ATOM      1  C   UNL     1      -0.642   9.050  22.638  0.00  0.00    +0.000 C 
ATOM      2  C   UNL     1       0.242   8.903  21.430  0.00  0.00    +0.000 A 
ATOM      3  C   UNL     1       0.250  10.016  20.434  0.00  0.00    +0.000 A 
ATOM      4  C   UNL     1       1.033   9.854  19.352  0.00  0.00    +0.000 A 
ATOM      5  C   UNL     1       1.145  10.894  18.280  0.00  0.00    +0.000 C 
ATOM      6  N   UNL     1       1.772   8.665  19.220  0.00  0.00    +0.000 N 
ATOM      7  N   UNL     1       2.570   8.283  18.189  0.00  0.00    +0.000 NA
ATOM      8  C   UNL     1       3.024   7.074  18.531  0.00  0.00    +0.000 A 
ATOM      9  C   UNL     1       2.545   6.664  19.795  0.00  0.00    +0.000 A 
ATOM     10 CL   UNL     1       2.873   5.234  20.653  0.00  0.00    +0.000 Cl
ATOM     11  C   UNL     1       1.718   7.681  20.211  0.00  0.00    +0.000 A 
ATOM     12  N   UNL     1       0.942   7.811  21.329  0.00  0.00    +0.000 NA
ENDROOT
BRANCH   8  13
ATOM     13  C   UNL     1       3.873   6.295  17.633  0.00  0.00    +0.000 A 
ATOM     14  C   UNL     1       5.054   6.758  17.019  0.00  0.00    +0.000 A 
ATOM     15  N   UNL     1       5.652   5.815  16.293  0.00  0.00    +0.000 NA
ATOM     16  N   UNL     1       4.864   4.736  16.457  0.00  0.00    +0.000 N 
ATOM     17  C   UNL     1       5.265   3.491  15.840  0.00  0.00    +0.000 C 
ATOM     18  C   UNL     1       3.760   4.977  17.235  0.00  0.00    +0.000 A 
BRANCH  18  19
ATOM     19  C   UNL     1       2.757   3.926  17.481  0.00  0.00    +0.000 C 
ATOM     20  F   UNL     1       1.533   4.367  17.841  0.00  0.00    +0.000 F 
ATOM     21  F   UNL     1       2.569   3.175  16.360  0.00  0.00    +0.000 F 
ATOM     22  F   UNL     1       3.170   3.064  18.445  0.00  0.00    +0.000 F 
ENDBRANCH  18  19
ENDBRANCH   8  13
TORSDOF 2
ENDMDL
MODEL 8
REMARK VINA RESULT:      -6.8      2.525      6.288
REMARK  Name = 
REMARK  5 active torsions:
REMARK  status: ('A' for Active; 'I' for Inactive)
REMARK    1  A    between atoms: C_1  and  C_2
REMARK    2  A    between atoms: C_4  and  C_5
REMARK    3  A    between atoms: C_8  and  C_9
REMARK    4  A    between atoms: N_12  and  C_13
REMARK    5  A    between atoms: C_14  and  C_15
REMARK                            x       y       z     vdW  Elec       q    Type
REMARK                         _______ _______ _______ _____ _____    ______ ____
ROOT
ATOM      1  C   UNL     1       4.079   2.137  17.432  0.00  0.00    +0.000 C 
ATOM      2  C   UNL     1       3.413   3.102  18.375  0.00  0.00    +0.000 A 
ATOM      3  C   UNL     1       2.627   2.534  19.512  0.00  0.00    +0.000 A 
ATOM      4  C   UNL     1       2.024   3.416  20.330  0.00  0.00    +0.000 A 
ATOM      5  C   UNL     1       1.214   2.986  21.514  0.00  0.00    +0.000 C 
ATOM      6  N   UNL     1       2.156   4.791  20.064  0.00  0.00    +0.000 N 
ATOM      7  N   UNL     1       1.586   5.832  20.725  0.00  0.00    +0.000 NA
ATOM      8  C   UNL     1       2.002   6.924  20.077  0.00  0.00    +0.000 A 
ATOM      9  C   UNL     1       2.861   6.608  19.001  0.00  0.00    +0.000 A 
ATOM     10 CL   UNL     1       3.655   7.654  17.922  0.00  0.00    +0.000 Cl
ATOM     11  C   UNL     1       2.925   5.234  18.985  0.00  0.00    +0.000 A 
ATOM     12  N   UNL     1       3.561   4.372  18.136  0.00  0.00    +0.000 NA
ENDROOT
BRANCH   8  13
ATOM     13  C   UNL     1       1.543   8.257  20.456  0.00  0.00    +0.000 A 
ATOM     14  C   UNL     1       1.504   8.766  21.769  0.00  0.00    +0.000 A 
ATOM     15  N   UNL     1       1.089  10.031  21.811  0.00  0.00    +0.000 NA
ATOM     16  N   UNL     1       0.879  10.343  20.519  0.00  0.00    +0.000 N 
ATOM     17  C   UNL     1       0.472  11.693  20.194  0.00  0.00    +0.000 C 
ATOM     18  C   UNL     1       1.111   9.300  19.659  0.00  0.00    +0.000 A 
BRANCH  18  19
ATOM     19  C   UNL     1       0.883   9.442  18.210  0.00  0.00    +0.000 C 
ATOM     20  F   UNL     1       0.857   8.288  17.512  0.00  0.00    +0.000 F 
ATOM     21  F   UNL     1      -0.313  10.050  17.973  0.00  0.00    +0.000 F 
ATOM     22  F   UNL     1       1.825  10.233  17.636  0.00  0.00    +0.000 F 
ENDBRANCH  18  19
ENDBRANCH   8  13
TORSDOF 2
ENDMDL
MODEL 9
REMARK VINA RESULT:      -6.7      2.709      6.230
REMARK  Name = 
REMARK  5 active torsions:
REMARK  status: ('A' for Active; 'I' for Inactive)
REMARK    1  A    between atoms: C_1  and  C_2
REMARK    2  A    between atoms: C_4  and  C_5
REMARK    3  A    between atoms: C_8  and  C_9
REMARK    4  A    between atoms: N_12  and  C_13
REMARK    5  A    between atoms: C_14  and  C_15
REMARK                            x       y       z     vdW  Elec       q    Type
REMARK                         _______ _______ _______ _____ _____    ______ ____
ROOT
ATOM      1  C   UNL     1       4.059   3.523  16.791  0.00  0.00    +0.000 C 
ATOM      2  C   UNL     1       3.381   4.269  17.908  0.00  0.00    +0.000 A 
ATOM      3  C   UNL     1       2.807   3.468  19.031  0.00  0.00    +0.000 A 
ATOM      4  C   UNL     1       2.187   4.156  20.008  0.00  0.00    +0.000 A 
ATOM      5  C   UNL     1       1.576   3.482  21.198  0.00  0.00    +0.000 C 
ATOM      6  N   UNL     1       2.108   5.556  19.909  0.00  0.00    +0.000 N 
ATOM      7  N   UNL     1       1.484   6.422  20.749  0.00  0.00    +0.000 NA
ATOM      8  C   UNL     1       1.679   7.630  20.210  0.00  0.00    +0.000 A 
ATOM      9  C   UNL     1       2.448   7.565  19.027  0.00  0.00    +0.000 A 
ATOM     10 CL   UNL     1       2.974   8.831  18.022  0.00  0.00    +0.000 Cl
ATOM     11  C   UNL     1       2.689   6.225  18.829  0.00  0.00    +0.000 A 
ATOM     12  N   UNL     1       3.334   5.566  17.820  0.00  0.00    +0.000 NA
ENDROOT
BRANCH   8  13
ATOM     13  C   UNL     1       1.094   8.831  20.798  0.00  0.00    +0.000 A 
ATOM     14  C   UNL     1       1.245   9.243  22.137  0.00  0.00    +0.000 A 
ATOM     15  N   UNL     1       0.644  10.406  22.381  0.00  0.00    +0.000 NA
ATOM     16  N   UNL     1       0.121  10.754  21.190  0.00  0.00    +0.000 N 
ATOM     17  C   UNL     1      -0.562  12.024  21.083  0.00  0.00    +0.000 C 
ATOM     18  C   UNL     1       0.339   9.825  20.205  0.00  0.00    +0.000 A 
BRANCH  18  19
ATOM     19  C   UNL     1      -0.206  10.012  18.849  0.00  0.00    +0.000 C 
ATOM     20  F   UNL     1      -1.527  10.277  18.787  0.00  0.00    +0.000 F 
ATOM     21  F   UNL     1       0.414  11.053  18.226  0.00  0.00    +0.000 F 
ATOM     22  F   UNL     1       0.019   8.922  18.071  0.00  0.00    +0.000 F 
ENDBRANCH  18  19
ENDBRANCH   8  13
TORSDOF 2
ENDMDL
