MODEL 1
REMARK VINA RESULT:      -7.9      0.000      0.000
REMARK  Name = 
REMARK  1 active torsions:
REMARK  status: ('A' for Active; 'I' for Inactive)
REMARK    1  A    between atoms: C_1  and  C_2
REMARK                            x       y       z     vdW  Elec       q    Type
REMARK                         _______ _______ _______ _____ _____    ______ ____
ROOT
ATOM      1  C   UNL     1      -0.506  11.640  20.382  0.00  0.00    +0.000 C 
ATOM      2  C   UNL     1       0.038  10.257  20.613  0.00  0.00    +0.000 A 
ATOM      3  C   UNL     1      -0.292   9.609  21.819  0.00  0.00    +0.000 A 
ATOM      4  C   UNL     1       0.307   8.409  22.137  0.00  0.00    +0.000 A 
ATOM      5  C   UNL     1       1.198   7.847  21.235  0.00  0.00    +0.000 A 
ATOM      6  C   UNL     1       1.424   8.388  19.952  0.00  0.00    +0.000 A 
ATOM      7  C   UNL     1       2.208   7.767  18.948  0.00  0.00    +0.000 A 
ATOM      8  N   UNL     1       2.686   6.450  19.102  0.00  0.00    +0.000 N 
ATOM      9  C   UNL     1       3.863   6.101  18.294  0.00  0.00    +0.000 C 
ATOM     10  C   UNL     1       3.865   4.576  18.309  0.00  0.00    +0.000 C 
ATOM     11  C   UNL     1       2.378   4.269  18.142  0.00  0.00    +0.000 C 
ATOM     12  C   UNL     1       2.007   2.809  18.396  0.00  0.00    +0.000 C 
ATOM     13  C   UNL     1       2.096   2.404  19.858  0.00  0.00    +0.000 C 
ATOM     14  C   UNL     1       1.211   3.299  20.696  0.00  0.00    +0.000 C 
ATOM     15  C   UNL     1       1.539   4.772  20.518  0.00  0.00    +0.000 C 
ATOM     16  C   UNL     1       1.717   5.308  19.084  0.00  0.00    +0.000 C 
ATOM     17  N   UNL     1       2.549   8.446  17.832  0.00  0.00    +0.000 NA
ATOM     18  C   UNL     1       2.062   9.685  17.706  0.00  0.00    +0.000 A 
ATOM     19  N   UNL     1       1.226  10.307  18.543  0.00  0.00    +0.000 NA
ATOM     20  C   UNL     1       0.896   9.661  19.668  0.00  0.00    +0.000 A 
ENDROOT
TORSDOF 0
ENDMDL
MODEL 2
REMARK VINA RESULT:      -7.3      3.646      6.710
REMARK  Name = 
REMARK  1 active torsions:
REMARK  status: ('A' for Active; 'I' for Inactive)
REMARK    1  A    between atoms: C_1  and  C_2
REMARK                            x       y       z     vdW  Elec       q    Type
REMARK                         _______ _______ _______ _____ _____    ______ ____
ROOT
ATOM      1  C   UNL     1       8.518   5.353  13.567  0.00  0.00    +0.000 C 
ATOM      2  C   UNL     1       7.217   4.960  14.210  0.00  0.00    +0.000 A 
ATOM      3  C   UNL     1       6.357   4.105  13.494  0.00  0.00    +0.000 A 
ATOM      4  C   UNL     1       5.094   3.842  13.980  0.00  0.00    +0.000 A 
ATOM      5  C   UNL     1       4.713   4.402  15.190  0.00  0.00    +0.000 A 
ATOM      6  C   UNL     1       5.606   5.127  16.007  0.00  0.00    +0.000 A 
ATOM      7  C   UNL     1       5.303   5.585  17.313  0.00  0.00    +0.000 A 
ATOM      8  N   UNL     1       4.123   5.190  17.973  0.00  0.00    +0.000 N 
ATOM      9  C   UNL     1       3.664   6.082  19.048  0.00  0.00    +0.000 C 
ATOM     10  C   UNL     1       2.696   5.212  19.843  0.00  0.00    +0.000 C 
ATOM     11  C   UNL     1       3.438   3.877  19.865  0.00  0.00    +0.000 C 
ATOM     12  C   UNL     1       2.597   2.701  20.360  0.00  0.00    +0.000 C 
ATOM     13  C   UNL     1       1.515   2.273  19.382  0.00  0.00    +0.000 C 
ATOM     14  C   UNL     1       2.135   1.920  18.048  0.00  0.00    +0.000 C 
ATOM     15  C   UNL     1       2.968   3.055  17.477  0.00  0.00    +0.000 C 
ATOM     16  C   UNL     1       3.966   3.766  18.412  0.00  0.00    +0.000 C 
ATOM     17  N   UNL     1       6.130   6.450  17.940  0.00  0.00    +0.000 NA
ATOM     18  C   UNL     1       7.252   6.789  17.296  0.00  0.00    +0.000 A 
ATOM     19  N   UNL     1       7.673   6.320  16.118  0.00  0.00    +0.000 NA
ATOM     20  C   UNL     1       6.857   5.481  15.468  0.00  0.00    +0.000 A 
ENDROOT
TORSDOF 0
ENDMDL
MODEL 3
REMARK VINA RESULT:      -7.1      1.412      5.713
REMARK  Name = 
REMARK  1 active torsions:
REMARK  status: ('A' for Active; 'I' for Inactive)
REMARK    1  A    between atoms: C_1  and  C_2
REMARK                            x       y       z     vdW  Elec       q    Type
REMARK                         _______ _______ _______ _____ _____    ______ ____
ROOT
ATOM      1  C   UNL     1       4.839   3.626  19.152  0.00  0.00    +0.000 C 
ATOM      2  C   UNL     1       3.703   4.502  19.606  0.00  0.00    +0.000 A 
ATOM      3  C   UNL     1       2.864   4.018  20.628  0.00  0.00    +0.000 A 
ATOM      4  C   UNL     1       1.726   4.720  20.967  0.00  0.00    +0.000 A 
ATOM      5  C   UNL     1       1.455   5.912  20.314  0.00  0.00    +0.000 A 
ATOM      6  C   UNL     1       2.358   6.502  19.404  0.00  0.00    +0.000 A 
ATOM      7  C   UNL     1       2.191   7.787  18.830  0.00  0.00    +0.000 A 
ATOM      8  N   UNL     1       1.176   8.660  19.270  0.00  0.00    +0.000 N 
ATOM      9  C   UNL     1       0.768   9.697  18.313  0.00  0.00    +0.000 C 
ATOM     10  C   UNL     1       0.041  10.718  19.182  0.00  0.00    +0.000 C 
ATOM     11  C   UNL     1       0.940  10.758  20.417  0.00  0.00    +0.000 C 
ATOM     12  C   UNL     1       0.333  11.494  21.610  0.00  0.00    +0.000 C 
ATOM     13  C   UNL     1      -0.815  10.745  22.267  0.00  0.00    +0.000 C 
ATOM     14  C   UNL     1      -0.354   9.373  22.705  0.00  0.00    +0.000 C 
ATOM     15  C   UNL     1       0.240   8.568  21.562  0.00  0.00    +0.000 C 
ATOM     16  C   UNL     1       1.264   9.259  20.641  0.00  0.00    +0.000 C 
ATOM     17  N   UNL     1       2.983   8.187  17.812  0.00  0.00    +0.000 NA
ATOM     18  C   UNL     1       3.950   7.344  17.432  0.00  0.00    +0.000 A 
ATOM     19  N   UNL     1       4.254   6.168  17.988  0.00  0.00    +0.000 NA
ATOM     20  C   UNL     1       3.464   5.742  18.982  0.00  0.00    +0.000 A 
ENDROOT
TORSDOF 0
ENDMDL
MODEL 4
REMARK VINA RESULT:      -7.1      1.926      4.070
REMARK  Name = 
REMARK  1 active torsions:
REMARK  status: ('A' for Active; 'I' for Inactive)
REMARK    1  A    between atoms: C_1  and  C_2
REMARK                            x       y       z     vdW  Elec       q    Type
REMARK                         _______ _______ _______ _____ _____    ______ ____
ROOT
ATOM      1  C   UNL     1       0.531   9.703  21.245  0.00  0.00    +0.000 C 
ATOM      2  C   UNL     1       1.238   9.094  20.065  0.00  0.00    +0.000 A 
ATOM      3  C   UNL     1       1.499   9.918  18.954  0.00  0.00    +0.000 A 
ATOM      4  C   UNL     1       2.006   9.366  17.797  0.00  0.00    +0.000 A 
ATOM      5  C   UNL     1       2.283   8.008  17.770  0.00  0.00    +0.000 A 
ATOM      6  C   UNL     1       2.185   7.189  18.915  0.00  0.00    +0.000 A 
ATOM      7  C   UNL     1       2.600   5.835  18.969  0.00  0.00    +0.000 A 
ATOM      8  N   UNL     1       3.317   5.246  17.908  0.00  0.00    +0.000 N 
ATOM      9  C   UNL     1       3.245   3.780  17.828  0.00  0.00    +0.000 C 
ATOM     10  C   UNL     1       4.423   3.415  16.929  0.00  0.00    +0.000 C 
ATOM     11  C   UNL     1       5.503   4.363  17.448  0.00  0.00    +0.000 C 
ATOM     12  C   UNL     1       6.746   4.441  16.562  0.00  0.00    +0.000 C 
ATOM     13  C   UNL     1       6.510   5.164  15.246  0.00  0.00    +0.000 C 
ATOM     14  C   UNL     1       5.993   6.560  15.509  0.00  0.00    +0.000 C 
ATOM     15  C   UNL     1       4.738   6.563  16.365  0.00  0.00    +0.000 C 
ATOM     16  C   UNL     1       4.721   5.688  17.633  0.00  0.00    +0.000 C 
ATOM     17  N   UNL     1       2.276   5.065  20.030  0.00  0.00    +0.000 NA
ATOM     18  C   UNL     1       1.614   5.659  21.029  0.00  0.00    +0.000 A 
ATOM     19  N   UNL     1       1.285   6.951  21.116  0.00  0.00    +0.000 NA
ATOM     20  C   UNL     1       1.573   7.726  20.063  0.00  0.00    +0.000 A 
ENDROOT
TORSDOF 0
ENDMDL
MODEL 5
REMARK VINA RESULT:      -7.1      1.366      5.766
REMARK  Name = 
REMARK  1 active torsions:
REMARK  status: ('A' for Active; 'I' for Inactive)
REMARK    1  A    between atoms: C_1  and  C_2
REMARK                            x       y       z     vdW  Elec       q    Type
REMARK                         _______ _______ _______ _____ _____    ______ ____
ROOT
ATOM      1  C   UNL     1       4.614   2.027  20.082  0.00  0.00    +0.000 C 
ATOM      2  C   UNL     1       3.555   3.088  20.202  0.00  0.00    +0.000 A 
ATOM      3  C   UNL     1       2.447   2.825  21.031  0.00  0.00    +0.000 A 
ATOM      4  C   UNL     1       1.384   3.703  21.051  0.00  0.00    +0.000 A 
ATOM      5  C   UNL     1       1.450   4.850  20.275  0.00  0.00    +0.000 A 
ATOM      6  C   UNL     1       2.611   5.221  19.563  0.00  0.00    +0.000 A 
ATOM      7  C   UNL     1       2.773   6.454  18.883  0.00  0.00    +0.000 A 
ATOM      8  N   UNL     1       1.832   7.495  19.018  0.00  0.00    +0.000 N 
ATOM      9  C   UNL     1       1.808   8.478  17.926  0.00  0.00    +0.000 C 
ATOM     10  C   UNL     1       1.074   9.668  18.535  0.00  0.00    +0.000 C 
ATOM     11  C   UNL     1       1.674   9.708  19.939  0.00  0.00    +0.000 C 
ATOM     12  C   UNL     1       0.941  10.633  20.908  0.00  0.00    +0.000 C 
ATOM     13  C   UNL     1      -0.425  10.114  21.328  0.00  0.00    +0.000 C 
ATOM     14  C   UNL     1      -0.287   8.743  21.951  0.00  0.00    +0.000 C 
ATOM     15  C   UNL     1       0.412   7.756  21.031  0.00  0.00    +0.000 C 
ATOM     16  C   UNL     1       1.707   8.209  20.329  0.00  0.00    +0.000 C 
ATOM     17  N   UNL     1       3.821   6.641  18.052  0.00  0.00    +0.000 NA
ATOM     18  C   UNL     1       4.707   5.643  17.963  0.00  0.00    +0.000 A 
ATOM     19  N   UNL     1       4.697   4.497  18.650  0.00  0.00    +0.000 NA
ATOM     20  C   UNL     1       3.652   4.281  19.460  0.00  0.00    +0.000 A 
ENDROOT
TORSDOF 0
ENDMDL
MODEL 6
REMARK VINA RESULT:      -7.0      4.288      5.373
REMARK  Name = 
REMARK  1 active torsions:
REMARK  status: ('A' for Active; 'I' for Inactive)
REMARK    1  A    between atoms: C_1  and  C_2
REMARK                            x       y       z     vdW  Elec       q    Type
REMARK                         _______ _______ _______ _____ _____    ______ ____
ROOT
ATOM      1  C   UNL     1       8.380   8.171  17.465  0.00  0.00    +0.000 C 
ATOM      2  C   UNL     1       7.571   7.066  18.085  0.00  0.00    +0.000 A 
ATOM      3  C   UNL     1       7.999   6.547  19.322  0.00  0.00    +0.000 A 
ATOM      4  C   UNL     1       7.378   5.435  19.850  0.00  0.00    +0.000 A 
ATOM      5  C   UNL     1       6.313   4.874  19.161  0.00  0.00    +0.000 A 
ATOM      6  C   UNL     1       5.758   5.466  18.007  0.00  0.00    +0.000 A 
ATOM      7  C   UNL     1       4.582   5.011  17.361  0.00  0.00    +0.000 A 
ATOM      8  N   UNL     1       3.765   4.019  17.939  0.00  0.00    +0.000 N 
ATOM      9  C   UNL     1       2.906   3.276  17.006  0.00  0.00    +0.000 C 
ATOM     10  C   UNL     1       1.860   2.640  17.915  0.00  0.00    +0.000 C 
ATOM     11  C   UNL     1       1.571   3.782  18.888  0.00  0.00    +0.000 C 
ATOM     12  C   UNL     1       0.751   3.371  20.110  0.00  0.00    +0.000 C 
ATOM     13  C   UNL     1       1.520   2.505  21.095  0.00  0.00    +0.000 C 
ATOM     14  C   UNL     1       2.770   3.225  21.549  0.00  0.00    +0.000 C 
ATOM     15  C   UNL     1       3.653   3.643  20.385  0.00  0.00    +0.000 C 
ATOM     16  C   UNL     1       2.988   4.336  19.180  0.00  0.00    +0.000 C 
ATOM     17  N   UNL     1       4.240   5.496  16.147  0.00  0.00    +0.000 NA
ATOM     18  C   UNL     1       5.023   6.451  15.636  0.00  0.00    +0.000 A 
ATOM     19  N   UNL     1       6.081   7.020  16.221  0.00  0.00    +0.000 NA
ATOM     20  C   UNL     1       6.452   6.536  17.413  0.00  0.00    +0.000 A 
ENDROOT
TORSDOF 0
ENDMDL
MODEL 7
REMARK VINA RESULT:      -6.9      1.213      1.510
REMARK  Name = 
REMARK  1 active torsions:
REMARK  status: ('A' for Active; 'I' for Inactive)
REMARK    1  A    between atoms: C_1  and  C_2
REMARK                            x       y       z     vdW  Elec       q    Type
REMARK                         _______ _______ _______ _____ _____    ______ ____
ROOT
ATOM      1  C   UNL     1      -1.581  11.979  21.712  0.00  0.00    +0.000 C 
ATOM      2  C   UNL     1      -0.652  10.798  21.661  0.00  0.00    +0.000 A 
ATOM      3  C   UNL     1      -0.385  10.114  22.862  0.00  0.00    +0.000 A 
ATOM      4  C   UNL     1       0.575   9.125  22.888  0.00  0.00    +0.000 A 
ATOM      5  C   UNL     1       1.232   8.801  21.711  0.00  0.00    +0.000 A 
ATOM      6  C   UNL     1       0.873   9.353  20.462  0.00  0.00    +0.000 A 
ATOM      7  C   UNL     1       1.415   8.940  19.220  0.00  0.00    +0.000 A 
ATOM      8  N   UNL     1       2.242   7.803  19.122  0.00  0.00    +0.000 N 
ATOM      9  C   UNL     1       3.133   7.762  17.954  0.00  0.00    +0.000 C 
ATOM     10  C   UNL     1       3.537   6.294  17.866  0.00  0.00    +0.000 C 
ATOM     11  C   UNL     1       2.212   5.598  18.170  0.00  0.00    +0.000 C 
ATOM     12  C   UNL     1       2.337   4.098  18.431  0.00  0.00    +0.000 C 
ATOM     13  C   UNL     1       3.006   3.765  19.755  0.00  0.00    +0.000 C 
ATOM     14  C   UNL     1       2.247   4.411  20.893  0.00  0.00    +0.000 C 
ATOM     15  C   UNL     1       2.104   5.913  20.717  0.00  0.00    +0.000 C 
ATOM     16  C   UNL     1       1.653   6.443  19.342  0.00  0.00    +0.000 C 
ATOM     17  N   UNL     1       1.179   9.660  18.101  0.00  0.00    +0.000 NA
ATOM     18  C   UNL     1       0.374  10.720  18.224  0.00  0.00    +0.000 A 
ATOM     19  N   UNL     1      -0.271  11.116  19.326  0.00  0.00    +0.000 NA
ATOM     20  C   UNL     1      -0.030  10.431  20.451  0.00  0.00    +0.000 A 
ENDROOT
TORSDOF 0
ENDMDL
MODEL 8
REMARK VINA RESULT:      -6.6      1.467      6.385
REMARK  Name = 
REMARK  1 active torsions:
REMARK  status: ('A' for Active; 'I' for Inactive)
REMARK    1  A    between atoms: C_1  and  C_2
REMARK                            x       y       z     vdW  Elec       q    Type
REMARK                         _______ _______ _______ _____ _____    ______ ____
ROOT
ATOM      1  C   UNL     1       3.670   2.652  17.471  0.00  0.00    +0.000 C 
ATOM      2  C   UNL     1       3.618   4.137  17.703  0.00  0.00    +0.000 A 
ATOM      3  C   UNL     1       4.402   4.964  16.875  0.00  0.00    +0.000 A 
ATOM      4  C   UNL     1       4.500   6.312  17.150  0.00  0.00    +0.000 A 
ATOM      5  C   UNL     1       3.789   6.829  18.222  0.00  0.00    +0.000 A 
ATOM      6  C   UNL     1       2.871   6.059  18.968  0.00  0.00    +0.000 A 
ATOM      7  C   UNL     1       2.016   6.582  19.970  0.00  0.00    +0.000 A 
ATOM      8  N   UNL     1       1.894   7.971  20.177  0.00  0.00    +0.000 N 
ATOM      9  C   UNL     1       1.420   8.377  21.508  0.00  0.00    +0.000 C 
ATOM     10  C   UNL     1       0.964   9.817  21.298  0.00  0.00    +0.000 C 
ATOM     11  C   UNL     1       0.262   9.718  19.945  0.00  0.00    +0.000 C 
ATOM     12  C   UNL     1      -0.076  11.067  19.314  0.00  0.00    +0.000 C 
ATOM     13  C   UNL     1       1.142  11.826  18.813  0.00  0.00    +0.000 C 
ATOM     14  C   UNL     1       1.901  10.981  17.814  0.00  0.00    +0.000 C 
ATOM     15  C   UNL     1       2.297   9.628  18.381  0.00  0.00    +0.000 C 
ATOM     16  C   UNL     1       1.227   8.816  19.136  0.00  0.00    +0.000 C 
ATOM     17  N   UNL     1       1.326   5.750  20.780  0.00  0.00    +0.000 NA
ATOM     18  C   UNL     1       1.447   4.439  20.543  0.00  0.00    +0.000 A 
ATOM     19  N   UNL     1       2.135   3.863  19.553  0.00  0.00    +0.000 NA
ATOM     20  C   UNL     1       2.847   4.669  18.755  0.00  0.00    +0.000 A 
ENDROOT
TORSDOF 0
ENDMDL
MODEL 9
REMARK VINA RESULT:      -6.6      1.679      3.693
REMARK  Name = 
REMARK  1 active torsions:
REMARK  status: ('A' for Active; 'I' for Inactive)
REMARK    1  A    between atoms: C_1  and  C_2
REMARK                            x       y       z     vdW  Elec       q    Type
REMARK                         _______ _______ _______ _____ _____    ______ ____
ROOT
ATOM      1  C   UNL     1       0.328  10.942  20.830  0.00  0.00    +0.000 C 
ATOM      2  C   UNL     1       1.069  10.098  19.830  0.00  0.00    +0.000 A 
ATOM      3  C   UNL     1       1.467  10.700  18.621  0.00  0.00    +0.000 A 
ATOM      4  C   UNL     1       2.011   9.927  17.618  0.00  0.00    +0.000 A 
ATOM      5  C   UNL     1       2.189   8.570  17.841  0.00  0.00    +0.000 A 
ATOM      6  C   UNL     1       1.952   7.969  19.095  0.00  0.00    +0.000 A 
ATOM      7  C   UNL     1       2.261   6.622  19.408  0.00  0.00    +0.000 A 
ATOM      8  N   UNL     1       3.005   5.816  18.524  0.00  0.00    +0.000 N 
ATOM      9  C   UNL     1       2.832   4.365  18.684  0.00  0.00    +0.000 C 
ATOM     10  C   UNL     1       4.040   3.781  17.958  0.00  0.00    +0.000 C 
ATOM     11  C   UNL     1       5.148   4.737  18.396  0.00  0.00    +0.000 C 
ATOM     12  C   UNL     1       6.451   4.586  17.614  0.00  0.00    +0.000 C 
ATOM     13  C   UNL     1       6.361   5.083  16.181  0.00  0.00    +0.000 C 
ATOM     14  C   UNL     1       5.931   6.533  16.163  0.00  0.00    +0.000 C 
ATOM     15  C   UNL     1       4.623   6.759  16.902  0.00  0.00    +0.000 C 
ATOM     16  C   UNL     1       4.454   6.119  18.293  0.00  0.00    +0.000 C 
ATOM     17  N   UNL     1       1.809   6.067  20.554  0.00  0.00    +0.000 NA
ATOM     18  C   UNL     1       1.125   6.864  21.382  0.00  0.00    +0.000 A 
ATOM     19  N   UNL     1       0.885   8.169  21.224  0.00  0.00    +0.000 NA
ATOM     20  C   UNL     1       1.302   8.732  20.083  0.00  0.00    +0.000 A 
ENDROOT
TORSDOF 0
ENDMDL
