MODEL 1
REMARK VINA RESULT:      -9.0      0.000      0.000
REMARK  Name = 
REMARK  9 active torsions:
REMARK  status: ('A' for Active; 'I' for Inactive)
REMARK    1  A    between atoms: C_1  and  O_2
REMARK    2  A    between atoms: O_2  and  C_3
REMARK    3  A    between atoms: N_9  and  C_10
REMARK    4  A    between atoms: C_10  and  C_11
REMARK    5  A    between atoms: C_11  and  N_12
REMARK    6  A    between atoms: C_14  and  N_15
REMARK    7  A    between atoms: C_16  and  C_18
REMARK    8  A    between atoms: C_22  and  C_23
REMARK    9  A    between atoms: C_27  and  C_28
REMARK                            x       y       z     vdW  Elec       q    Type
REMARK                         _______ _______ _______ _____ _____    ______ ____
ROOT
ATOM      1  N   UNL     1       0.999   9.382  19.757  0.00  0.00    +0.000 N 
ATOM      2  C   UNL     1       1.419   8.300  20.470  0.00  0.00    +0.000 A 
ATOM      3  C   UNL     1       2.181   7.531  19.623  0.00  0.00    +0.000 A 
ATOM      4  C   UNL     1       2.133   8.234  18.398  0.00  0.00    +0.000 A 
ATOM      5  N   UNL     1       1.420   9.366  18.479  0.00  0.00    +0.000 NA
ENDROOT
BRANCH   3   6
ATOM      6  N   UNL     1       2.831   6.343  19.921  0.00  0.00    +0.000 N 
ATOM      7  C   UNL     1       2.414   5.111  19.444  0.00  0.00    +0.000 C 
ATOM      8  O   UNL     1       1.409   4.917  18.771  0.00  0.00    +0.000 OA
ATOM      9  H   UNL     1       3.668   6.368  20.495  0.00  0.00    +0.000 HD
BRANCH   7  10
ATOM     10  C   UNL     1       3.306   4.011  19.773  0.00  0.00    +0.000 A 
ATOM     11  N   UNL     1       3.074   3.064  20.759  0.00  0.00    +0.000 NA
ATOM     12  C   UNL     1       4.079   2.228  20.607  0.00  0.00    +0.000 A 
ATOM     13  O   UNL     1       4.988   2.571  19.656  0.00  0.00    +0.000 OA
ATOM     14  C   UNL     1       4.506   3.746  19.139  0.00  0.00    +0.000 A 
BRANCH  14  15
ATOM     15  C   UNL     1       5.358   4.439  18.183  0.00  0.00    +0.000 A 
ATOM     16  C   UNL     1       5.425   4.037  16.845  0.00  0.00    +0.000 A 
ATOM     17  C   UNL     1       6.301   4.670  15.959  0.00  0.00    +0.000 A 
ATOM     18  C   UNL     1       7.129   5.702  16.401  0.00  0.00    +0.000 A 
ATOM     19  C   UNL     1       7.081   6.121  17.732  0.00  0.00    +0.000 A 
ATOM     20  C   UNL     1       7.984   7.205  18.244  0.00  0.00    +0.000 C 
ATOM     21  C   UNL     1       6.181   5.497  18.607  0.00  0.00    +0.000 A 
ENDBRANCH  14  15
ENDBRANCH   7  10
ENDBRANCH   3   6
BRANCH   1  22
ATOM     22  C   UNL     1       0.245  10.496  20.299  0.00  0.00    +0.000 C 
BRANCH  22  23
ATOM     23  C   UNL     1      -0.268  11.461  19.241  0.00  0.00    +0.000 C 
BRANCH  23  30
ATOM     24  C   UNL     1      -4.081  11.123  16.689  0.00  0.00    +0.000 A 
ATOM     25  C   UNL     1      -5.190  11.635  17.367  0.00  0.00    +0.000 A 
ATOM     26  C   UNL     1      -5.064  12.157  18.662  0.00  0.00    +0.000 A 
ATOM     27  C   UNL     1      -3.802  12.161  19.273  0.00  0.00    +0.000 A 
ATOM     28  N   UNL     1      -3.437  12.625  20.513  0.00  0.00    +0.000 NA
ATOM     29  C   UNL     1      -2.144  12.412  20.590  0.00  0.00    +0.000 A 
ATOM     30  N   UNL     1      -1.660  11.806  19.461  0.00  0.00    +0.000 N 
ATOM     31  C   UNL     1      -2.708  11.634  18.589  0.00  0.00    +0.000 A 
ATOM     32  C   UNL     1      -2.819  11.091  17.300  0.00  0.00    +0.000 A 
BRANCH  24  34
ATOM     33  C   UNL     1      -2.864  10.216  14.876  0.00  0.00    +0.000 C 
ATOM     34  O   UNL     1      -4.124  10.586  15.427  0.00  0.00    +0.000 OA
ENDBRANCH  24  34
ENDBRANCH  23  30
ENDBRANCH  22  23
ENDBRANCH   1  22
TORSDOF 7
ENDMDL
MODEL 2
REMARK VINA RESULT:      -8.6      3.180      9.843
REMARK  Name = 
REMARK  9 active torsions:
REMARK  status: ('A' for Active; 'I' for Inactive)
REMARK    1  A    between atoms: C_1  and  O_2
REMARK    2  A    between atoms: O_2  and  C_3
REMARK    3  A    between atoms: N_9  and  C_10
REMARK    4  A    between atoms: C_10  and  C_11
REMARK    5  A    between atoms: C_11  and  N_12
REMARK    6  A    between atoms: C_14  and  N_15
REMARK    7  A    between atoms: C_16  and  C_18
REMARK    8  A    between atoms: C_22  and  C_23
REMARK    9  A    between atoms: C_27  and  C_28
REMARK                            x       y       z     vdW  Elec       q    Type
REMARK                         _______ _______ _______ _____ _____    ______ ____
ROOT
ATOM      1  N   UNL     1       3.620   4.710  18.863  0.00  0.00    +0.000 N 
ATOM      2  C   UNL     1       3.485   5.860  19.581  0.00  0.00    +0.000 A 
ATOM      3  C   UNL     1       2.194   5.893  20.050  0.00  0.00    +0.000 A 
ATOM      4  C   UNL     1       1.617   4.714  19.526  0.00  0.00    +0.000 A 
ATOM      5  N   UNL     1       2.486   3.987  18.809  0.00  0.00    +0.000 NA
ENDROOT
BRANCH   3   6
ATOM      6  N   UNL     1       1.613   6.869  20.845  0.00  0.00    +0.000 N 
ATOM      7  C   UNL     1       1.374   8.161  20.406  0.00  0.00    +0.000 C 
ATOM      8  O   UNL     1       1.697   8.606  19.311  0.00  0.00    +0.000 OA
ATOM      9  H   UNL     1       1.322   6.629  21.788  0.00  0.00    +0.000 HD
BRANCH   7  10
ATOM     10  C   UNL     1       0.646   8.988  21.354  0.00  0.00    +0.000 A 
ATOM     11  N   UNL     1       0.612   8.787  22.725  0.00  0.00    +0.000 NA
ATOM     12  C   UNL     1      -0.064   9.830  23.159  0.00  0.00    +0.000 A 
ATOM     13  O   UNL     1      -0.535  10.665  22.195  0.00  0.00    +0.000 OA
ATOM     14  C   UNL     1      -0.106  10.100  21.022  0.00  0.00    +0.000 A 
BRANCH  14  15
ATOM     15  C   UNL     1      -0.588  10.706  19.789  0.00  0.00    +0.000 A 
ATOM     16  C   UNL     1      -0.262  12.022  19.449  0.00  0.00    +0.000 A 
ATOM     17  C   UNL     1      -0.791  12.608  18.296  0.00  0.00    +0.000 A 
ATOM     18  C   UNL     1      -1.664  11.891  17.477  0.00  0.00    +0.000 A 
ATOM     19  C   UNL     1      -2.006  10.575  17.795  0.00  0.00    +0.000 A 
ATOM     20  C   UNL     1      -2.968   9.791  16.951  0.00  0.00    +0.000 C 
ATOM     21  C   UNL     1      -1.449   9.988  18.940  0.00  0.00    +0.000 A 
ENDBRANCH  14  15
ENDBRANCH   7  10
ENDBRANCH   3   6
BRANCH   1  22
ATOM     22  C   UNL     1       4.856   4.236  18.269  0.00  0.00    +0.000 C 
BRANCH  22  23
ATOM     23  C   UNL     1       4.722   3.844  16.807  0.00  0.00    +0.000 C 
BRANCH  23  30
ATOM     24  C   UNL     1       5.946   3.446  12.389  0.00  0.00    +0.000 A 
ATOM     25  C   UNL     1       7.072   4.222  12.105  0.00  0.00    +0.000 A 
ATOM     26  C   UNL     1       7.680   4.999  13.101  0.00  0.00    +0.000 A 
ATOM     27  C   UNL     1       7.143   4.988  14.395  0.00  0.00    +0.000 A 
ATOM     28  N   UNL     1       7.569   5.649  15.520  0.00  0.00    +0.000 NA
ATOM     29  C   UNL     1       6.735   5.285  16.467  0.00  0.00    +0.000 A 
ATOM     30  N   UNL     1       5.772   4.433  15.996  0.00  0.00    +0.000 N 
ATOM     31  C   UNL     1       6.011   4.219  14.660  0.00  0.00    +0.000 A 
ATOM     32  C   UNL     1       5.378   3.449  13.672  0.00  0.00    +0.000 A 
BRANCH  24  34
ATOM     33  C   UNL     1       3.978   3.108  11.121  0.00  0.00    +0.000 C 
ATOM     34  O   UNL     1       5.288   2.669  11.470  0.00  0.00    +0.000 OA
ENDBRANCH  24  34
ENDBRANCH  23  30
ENDBRANCH  22  23
ENDBRANCH   1  22
TORSDOF 7
ENDMDL
MODEL 3
REMARK VINA RESULT:      -8.5      1.464      2.539
REMARK  Name = 
REMARK  9 active torsions:
REMARK  status: ('A' for Active; 'I' for Inactive)
REMARK    1  A    between atoms: C_1  and  O_2
REMARK    2  A    between atoms: O_2  and  C_3
REMARK    3  A    between atoms: N_9  and  C_10
REMARK    4  A    between atoms: C_10  and  C_11
REMARK    5  A    between atoms: C_11  and  N_12
REMARK    6  A    between atoms: C_14  and  N_15
REMARK    7  A    between atoms: C_16  and  C_18
REMARK    8  A    between atoms: C_22  and  C_23
REMARK    9  A    between atoms: C_27  and  C_28
REMARK                            x       y       z     vdW  Elec       q    Type
REMARK                         _______ _______ _______ _____ _____    ______ ____
ROOT
ATOM      1  N   UNL     1       1.114   9.832  19.100  0.00  0.00    +0.000 N 
ATOM      2  C   UNL     1       1.227   8.704  19.855  0.00  0.00    +0.000 A 
ATOM      3  C   UNL     1       2.150   7.895  19.237  0.00  0.00    +0.000 A 
ATOM      4  C   UNL     1       2.518   8.627  18.085  0.00  0.00    +0.000 A 
ATOM      5  N   UNL     1       1.894   9.811  18.003  0.00  0.00    +0.000 NA
ENDROOT
BRANCH   3   6
ATOM      6  N   UNL     1       2.598   6.653  19.659  0.00  0.00    +0.000 N 
ATOM      7  C   UNL     1       2.440   5.497  18.912  0.00  0.00    +0.000 C 
ATOM      8  O   UNL     1       1.844   5.421  17.844  0.00  0.00    +0.000 OA
ATOM      9  H   UNL     1       3.087   6.579  20.545  0.00  0.00    +0.000 HD
BRANCH   7  10
ATOM     10  C   UNL     1       3.089   4.327  19.480  0.00  0.00    +0.000 A 
ATOM     11  N   UNL     1       2.647   3.633  20.596  0.00  0.00    +0.000 NA
ATOM     12  C   UNL     1       3.473   2.610  20.653  0.00  0.00    +0.000 A 
ATOM     13  O   UNL     1       4.460   2.600  19.717  0.00  0.00    +0.000 OA
ATOM     14  C   UNL     1       4.233   3.732  18.978  0.00  0.00    +0.000 A 
BRANCH  14  15
ATOM     15  C   UNL     1       5.231   4.070  17.973  0.00  0.00    +0.000 A 
ATOM     16  C   UNL     1       6.451   4.653  18.328  0.00  0.00    +0.000 A 
ATOM     17  C   UNL     1       7.367   5.035  17.343  0.00  0.00    +0.000 A 
ATOM     18  C   UNL     1       7.068   4.851  15.993  0.00  0.00    +0.000 A 
ATOM     19  C   UNL     1       5.855   4.271  15.613  0.00  0.00    +0.000 A 
ATOM     20  C   UNL     1       5.493   4.092  14.168  0.00  0.00    +0.000 C 
ATOM     21  C   UNL     1       4.955   3.869  16.609  0.00  0.00    +0.000 A 
ENDBRANCH  14  15
ENDBRANCH   7  10
ENDBRANCH   3   6
BRANCH   1  22
ATOM     22  C   UNL     1       0.313  10.991  19.444  0.00  0.00    +0.000 C 
BRANCH  22  23
ATOM     23  C   UNL     1      -1.143  10.664  19.736  0.00  0.00    +0.000 C 
BRANCH  23  30
ATOM     24  C   UNL     1      -5.253  12.487  18.758  0.00  0.00    +0.000 A 
ATOM     25  C   UNL     1      -5.611  12.241  17.430  0.00  0.00    +0.000 A 
ATOM     26  C   UNL     1      -4.759  11.528  16.575  0.00  0.00    +0.000 A 
ATOM     27  C   UNL     1      -3.534  11.060  17.071  0.00  0.00    +0.000 A 
ATOM     28  N   UNL     1      -2.556  10.338  16.433  0.00  0.00    +0.000 NA
ATOM     29  C   UNL     1      -1.630  10.140  17.342  0.00  0.00    +0.000 A 
ATOM     30  N   UNL     1      -1.957  10.725  18.536  0.00  0.00    +0.000 N 
ATOM     31  C   UNL     1      -3.185  11.325  18.394  0.00  0.00    +0.000 A 
ATOM     32  C   UNL     1      -4.016  12.051  19.259  0.00  0.00    +0.000 A 
BRANCH  24  34
ATOM     33  C   UNL     1      -7.196  12.512  20.106  0.00  0.00    +0.000 C 
ATOM     34  O   UNL     1      -6.023  13.184  19.653  0.00  0.00    +0.000 OA
ENDBRANCH  24  34
ENDBRANCH  23  30
ENDBRANCH  22  23
ENDBRANCH   1  22
TORSDOF 7
ENDMDL
MODEL 4
REMARK VINA RESULT:      -8.4      0.837      1.075
REMARK  Name = 
REMARK  9 active torsions:
REMARK  status: ('A' for Active; 'I' for Inactive)
REMARK    1  A    between atoms: C_1  and  O_2
REMARK    2  A    between atoms: O_2  and  C_3
REMARK    3  A    between atoms: N_9  and  C_10
REMARK    4  A    between atoms: C_10  and  C_11
REMARK    5  A    between atoms: C_11  and  N_12
REMARK    6  A    between atoms: C_14  and  N_15
REMARK    7  A    between atoms: C_16  and  C_18
REMARK    8  A    between atoms: C_22  and  C_23
REMARK    9  A    between atoms: C_27  and  C_28
REMARK                            x       y       z     vdW  Elec       q    Type
REMARK                         _______ _______ _______ _____ _____    ______ ____
ROOT
ATOM      1  N   UNL     1       0.863   9.374  19.652  0.00  0.00    +0.000 N 
ATOM      2  C   UNL     1       1.704   8.378  19.256  0.00  0.00    +0.000 A 
ATOM      3  C   UNL     1       1.875   7.543  20.333  0.00  0.00    +0.000 A 
ATOM      4  C   UNL     1       1.106   8.149  21.353  0.00  0.00    +0.000 A 
ATOM      5  N   UNL     1       0.483   9.262  20.938  0.00  0.00    +0.000 NA
ENDROOT
BRANCH   3   6
ATOM      6  N   UNL     1       2.633   6.383  20.387  0.00  0.00    +0.000 N 
ATOM      7  C   UNL     1       2.081   5.114  20.333  0.00  0.00    +0.000 C 
ATOM      8  O   UNL     1       0.882   4.866  20.296  0.00  0.00    +0.000 OA
ATOM      9  H   UNL     1       3.644   6.456  20.444  0.00  0.00    +0.000 HD
BRANCH   7  10
ATOM     10  C   UNL     1       3.059   4.040  20.280  0.00  0.00    +0.000 A 
ATOM     11  N   UNL     1       3.038   2.903  21.072  0.00  0.00    +0.000 NA
ATOM     12  C   UNL     1       4.034   2.189  20.592  0.00  0.00    +0.000 A 
ATOM     13  O   UNL     1       4.751   2.779  19.598  0.00  0.00    +0.000 OA
ATOM     14  C   UNL     1       4.141   3.994  19.420  0.00  0.00    +0.000 A 
BRANCH  14  15
ATOM     15  C   UNL     1       4.786   4.923  18.503  0.00  0.00    +0.000 A 
ATOM     16  C   UNL     1       4.256   5.178  17.234  0.00  0.00    +0.000 A 
ATOM     17  C   UNL     1       4.928   6.018  16.342  0.00  0.00    +0.000 A 
ATOM     18  C   UNL     1       6.144   6.602  16.701  0.00  0.00    +0.000 A 
ATOM     19  C   UNL     1       6.694   6.362  17.962  0.00  0.00    +0.000 A 
ATOM     20  C   UNL     1       8.016   6.949  18.362  0.00  0.00    +0.000 C 
ATOM     21  C   UNL     1       6.000   5.538  18.858  0.00  0.00    +0.000 A 
ENDBRANCH  14  15
ENDBRANCH   7  10
ENDBRANCH   3   6
BRANCH   1  22
ATOM     22  C   UNL     1       0.344  10.421  18.792  0.00  0.00    +0.000 C 
BRANCH  22  23
ATOM     23  C   UNL     1       0.058  11.725  19.518  0.00  0.00    +0.000 C 
BRANCH  23  30
ATOM     24  C   UNL     1      -3.608  11.424  16.754  0.00  0.00    +0.000 A 
ATOM     25  C   UNL     1      -4.782  11.757  17.434  0.00  0.00    +0.000 A 
ATOM     26  C   UNL     1      -4.752  12.116  18.789  0.00  0.00    +0.000 A 
ATOM     27  C   UNL     1      -3.521  12.140  19.459  0.00  0.00    +0.000 A 
ATOM     28  N   UNL     1      -3.246  12.467  20.763  0.00  0.00    +0.000 NA
ATOM     29  C   UNL     1      -1.944  12.346  20.879  0.00  0.00    +0.000 A 
ATOM     30  N   UNL     1      -1.366  11.931  19.709  0.00  0.00    +0.000 N 
ATOM     31  C   UNL     1      -2.360  11.791  18.770  0.00  0.00    +0.000 A 
ATOM     32  C   UNL     1      -2.373  11.412  17.420  0.00  0.00    +0.000 A 
BRANCH  24  34
ATOM     33  C   UNL     1      -2.900   9.815  15.172  0.00  0.00    +0.000 C 
ATOM     34  O   UNL     1      -3.555  11.053  15.435  0.00  0.00    +0.000 OA
ENDBRANCH  24  34
ENDBRANCH  23  30
ENDBRANCH  22  23
ENDBRANCH   1  22
TORSDOF 7
ENDMDL
MODEL 5
REMARK VINA RESULT:      -8.3      1.787      2.986
REMARK  Name = 
REMARK  9 active torsions:
REMARK  status: ('A' for Active; 'I' for Inactive)
REMARK    1  A    between atoms: C_1  and  O_2
REMARK    2  A    between atoms: O_2  and  C_3
REMARK    3  A    between atoms: N_9  and  C_10
REMARK    4  A    between atoms: C_10  and  C_11
REMARK    5  A    between atoms: C_11  and  N_12
REMARK    6  A    between atoms: C_14  and  N_15
REMARK    7  A    between atoms: C_16  and  C_18
REMARK    8  A    between atoms: C_22  and  C_23
REMARK    9  A    between atoms: C_27  and  C_28
REMARK                            x       y       z     vdW  Elec       q    Type
REMARK                         _______ _______ _______ _____ _____    ______ ____
ROOT
ATOM      1  N   UNL     1       1.133   9.413  19.483  0.00  0.00    +0.000 N 
ATOM      2  C   UNL     1       1.913   8.331  19.206  0.00  0.00    +0.000 A 
ATOM      3  C   UNL     1       1.851   7.500  20.298  0.00  0.00    +0.000 A 
ATOM      4  C   UNL     1       1.020   8.197  21.204  0.00  0.00    +0.000 A 
ATOM      5  N   UNL     1       0.575   9.360  20.707  0.00  0.00    +0.000 NA
ENDROOT
BRANCH   3   6
ATOM      6  N   UNL     1       2.472   6.270  20.456  0.00  0.00    +0.000 N 
ATOM      7  C   UNL     1       2.520   5.312  19.456  0.00  0.00    +0.000 C 
ATOM      8  O   UNL     1       1.979   5.406  18.361  0.00  0.00    +0.000 OA
ATOM      9  H   UNL     1       2.938   6.060  21.333  0.00  0.00    +0.000 HD
BRANCH   7  10
ATOM     10  C   UNL     1       3.324   4.147  19.785  0.00  0.00    +0.000 A 
ATOM     11  N   UNL     1       2.960   3.153  20.680  0.00  0.00    +0.000 NA
ATOM     12  C   UNL     1       3.932   2.275  20.559  0.00  0.00    +0.000 A 
ATOM     13  O   UNL     1       4.938   2.627  19.715  0.00  0.00    +0.000 OA
ATOM     14  C   UNL     1       4.562   3.857  19.240  0.00  0.00    +0.000 A 
BRANCH  14  15
ATOM     15  C   UNL     1       5.529   4.562  18.409  0.00  0.00    +0.000 A 
ATOM     16  C   UNL     1       6.442   5.465  18.963  0.00  0.00    +0.000 A 
ATOM     17  C   UNL     1       7.314   6.184  18.141  0.00  0.00    +0.000 A 
ATOM     18  C   UNL     1       7.274   6.020  16.756  0.00  0.00    +0.000 A 
ATOM     19  C   UNL     1       6.370   5.126  16.179  0.00  0.00    +0.000 A 
ATOM     20  C   UNL     1       6.282   4.955  14.691  0.00  0.00    +0.000 C 
ATOM     21  C   UNL     1       5.517   4.391  17.014  0.00  0.00    +0.000 A 
ENDBRANCH  14  15
ENDBRANCH   7  10
ENDBRANCH   3   6
BRANCH   1  22
ATOM     22  C   UNL     1       0.845  10.493  18.559  0.00  0.00    +0.000 C 
BRANCH  22  23
ATOM     23  C   UNL     1       0.152  11.683  19.204  0.00  0.00    +0.000 C 
BRANCH  23  30
ATOM     24  C   UNL     1      -3.652  12.840  21.519  0.00  0.00    +0.000 A 
ATOM     25  C   UNL     1      -4.792  12.685  20.726  0.00  0.00    +0.000 A 
ATOM     26  C   UNL     1      -4.692  12.237  19.401  0.00  0.00    +0.000 A 
ATOM     27  C   UNL     1      -3.426  11.942  18.877  0.00  0.00    +0.000 A 
ATOM     28  N   UNL     1      -3.087  11.483  17.629  0.00  0.00    +0.000 NA
ATOM     29  C   UNL     1      -1.781  11.353  17.656  0.00  0.00    +0.000 A 
ATOM     30  N   UNL     1      -1.257  11.732  18.863  0.00  0.00    +0.000 N 
ATOM     31  C   UNL     1      -2.297  12.115  19.675  0.00  0.00    +0.000 A 
ATOM     32  C   UNL     1      -2.376  12.579  20.997  0.00  0.00    +0.000 A 
BRANCH  24  34
ATOM     33  C   UNL     1      -4.950  13.589  23.348  0.00  0.00    +0.000 C 
ATOM     34  O   UNL     1      -3.664  13.283  22.817  0.00  0.00    +0.000 OA
ENDBRANCH  24  34
ENDBRANCH  23  30
ENDBRANCH  22  23
ENDBRANCH   1  22
TORSDOF 7
ENDMDL
MODEL 6
REMARK VINA RESULT:      -8.3      3.096      4.237
REMARK  Name = 
REMARK  9 active torsions:
REMARK  status: ('A' for Active; 'I' for Inactive)
REMARK    1  A    between atoms: C_1  and  O_2
REMARK    2  A    between atoms: O_2  and  C_3
REMARK    3  A    between atoms: N_9  and  C_10
REMARK    4  A    between atoms: C_10  and  C_11
REMARK    5  A    between atoms: C_11  and  N_12
REMARK    6  A    between atoms: C_14  and  N_15
REMARK    7  A    between atoms: C_16  and  C_18
REMARK    8  A    between atoms: C_22  and  C_23
REMARK    9  A    between atoms: C_27  and  C_28
REMARK                            x       y       z     vdW  Elec       q    Type
REMARK                         _______ _______ _______ _____ _____    ______ ____
ROOT
ATOM      1  N   UNL     1       1.225   9.677  18.724  0.00  0.00    +0.000 N 
ATOM      2  C   UNL     1       1.410   8.609  19.551  0.00  0.00    +0.000 A 
ATOM      3  C   UNL     1       2.299   7.767  18.928  0.00  0.00    +0.000 A 
ATOM      4  C   UNL     1       2.571   8.413  17.701  0.00  0.00    +0.000 A 
ATOM      5  N   UNL     1       1.923   9.581  17.577  0.00  0.00    +0.000 NA
ENDROOT
BRANCH   3   6
ATOM      6  N   UNL     1       2.796   6.564  19.408  0.00  0.00    +0.000 N 
ATOM      7  C   UNL     1       2.479   5.337  18.849  0.00  0.00    +0.000 C 
ATOM      8  O   UNL     1       1.692   5.162  17.927  0.00  0.00    +0.000 OA
ATOM      9  H   UNL     1       3.443   6.574  20.190  0.00  0.00    +0.000 HD
BRANCH   7  10
ATOM     10  C   UNL     1       3.203   4.215  19.424  0.00  0.00    +0.000 A 
ATOM     11  N   UNL     1       2.808   3.503  20.546  0.00  0.00    +0.000 NA
ATOM     12  C   UNL     1       3.698   2.535  20.610  0.00  0.00    +0.000 A 
ATOM     13  O   UNL     1       4.682   2.582  19.672  0.00  0.00    +0.000 OA
ATOM     14  C   UNL     1       4.382   3.691  18.925  0.00  0.00    +0.000 A 
BRANCH  14  15
ATOM     15  C   UNL     1       5.354   4.084  17.915  0.00  0.00    +0.000 A 
ATOM     16  C   UNL     1       6.548   4.722  18.266  0.00  0.00    +0.000 A 
ATOM     17  C   UNL     1       7.437   5.155  17.278  0.00  0.00    +0.000 A 
ATOM     18  C   UNL     1       7.137   4.968  15.928  0.00  0.00    +0.000 A 
ATOM     19  C   UNL     1       5.950   4.334  15.552  0.00  0.00    +0.000 A 
ATOM     20  C   UNL     1       5.585   4.150  14.108  0.00  0.00    +0.000 C 
ATOM     21  C   UNL     1       5.078   3.882  16.552  0.00  0.00    +0.000 A 
ENDBRANCH  14  15
ENDBRANCH   7  10
ENDBRANCH   3   6
BRANCH   1  22
ATOM     22  C   UNL     1       0.432  10.849  19.039  0.00  0.00    +0.000 C 
BRANCH  22  23
ATOM     23  C   UNL     1       1.134  11.835  19.959  0.00  0.00    +0.000 C 
BRANCH  23  30
ATOM     24  C   UNL     1       3.104  15.475  17.951  0.00  0.00    +0.000 A 
ATOM     25  C   UNL     1       2.264  16.591  17.991  0.00  0.00    +0.000 A 
ATOM     26  C   UNL     1       0.994  16.514  18.581  0.00  0.00    +0.000 A 
ATOM     27  C   UNL     1       0.575  15.297  19.136  0.00  0.00    +0.000 A 
ATOM     28  N   UNL     1      -0.604  14.991  19.769  0.00  0.00    +0.000 NA
ATOM     29  C   UNL     1      -0.488  13.729  20.114  0.00  0.00    +0.000 A 
ATOM     30  N   UNL     1       0.708  13.199  19.709  0.00  0.00    +0.000 N 
ATOM     31  C   UNL     1       1.419  14.190  19.076  0.00  0.00    +0.000 A 
ATOM     32  C   UNL     1       2.685  14.242  18.474  0.00  0.00    +0.000 A 
BRANCH  24  34
ATOM     33  C   UNL     1       5.287  14.564  17.972  0.00  0.00    +0.000 C 
ATOM     34  O   UNL     1       4.353  15.465  17.384  0.00  0.00    +0.000 OA
ENDBRANCH  24  34
ENDBRANCH  23  30
ENDBRANCH  22  23
ENDBRANCH   1  22
TORSDOF 7
ENDMDL
MODEL 7
REMARK VINA RESULT:      -8.3      1.682      2.711
REMARK  Name = 
REMARK  9 active torsions:
REMARK  status: ('A' for Active; 'I' for Inactive)
REMARK    1  A    between atoms: C_1  and  O_2
REMARK    2  A    between atoms: O_2  and  C_3
REMARK    3  A    between atoms: N_9  and  C_10
REMARK    4  A    between atoms: C_10  and  C_11
REMARK    5  A    between atoms: C_11  and  N_12
REMARK    6  A    between atoms: C_14  and  N_15
REMARK    7  A    between atoms: C_16  and  C_18
REMARK    8  A    between atoms: C_22  and  C_23
REMARK    9  A    between atoms: C_27  and  C_28
REMARK                            x       y       z     vdW  Elec       q    Type
REMARK                         _______ _______ _______ _____ _____    ______ ____
ROOT
ATOM      1  N   UNL     1       0.867   9.157  19.841  0.00  0.00    +0.000 N 
ATOM      2  C   UNL     1       1.799   8.257  19.420  0.00  0.00    +0.000 A 
ATOM      3  C   UNL     1       1.866   7.269  20.373  0.00  0.00    +0.000 A 
ATOM      4  C   UNL     1       0.942   7.690  21.357  0.00  0.00    +0.000 A 
ATOM      5  N   UNL     1       0.327   8.836  21.032  0.00  0.00    +0.000 NA
ENDROOT
BRANCH   3   6
ATOM      6  N   UNL     1       2.665   6.136  20.357  0.00  0.00    +0.000 N 
ATOM      7  C   UNL     1       2.248   4.923  19.832  0.00  0.00    +0.000 C 
ATOM      8  O   UNL     1       1.130   4.693  19.387  0.00  0.00    +0.000 OA
ATOM      9  H   UNL     1       3.610   6.192  20.722  0.00  0.00    +0.000 HD
BRANCH   7  10
ATOM     10  C   UNL     1       3.280   3.901  19.801  0.00  0.00    +0.000 A 
ATOM     11  N   UNL     1       3.444   2.905  20.752  0.00  0.00    +0.000 NA
ATOM     12  C   UNL     1       4.412   2.170  20.246  0.00  0.00    +0.000 A 
ATOM     13  O   UNL     1       4.945   2.626  19.081  0.00  0.00    +0.000 OA
ATOM     14  C   UNL     1       4.236   3.768  18.811  0.00  0.00    +0.000 A 
BRANCH  14  15
ATOM     15  C   UNL     1       4.686   4.566  17.679  0.00  0.00    +0.000 A 
ATOM     16  C   UNL     1       4.589   5.961  17.689  0.00  0.00    +0.000 A 
ATOM     17  C   UNL     1       4.961   6.705  16.566  0.00  0.00    +0.000 A 
ATOM     18  C   UNL     1       5.421   6.064  15.416  0.00  0.00    +0.000 A 
ATOM     19  C   UNL     1       5.527   4.672  15.380  0.00  0.00    +0.000 A 
ATOM     20  C   UNL     1       5.986   3.954  14.146  0.00  0.00    +0.000 C 
ATOM     21  C   UNL     1       5.175   3.937  16.521  0.00  0.00    +0.000 A 
ENDBRANCH  14  15
ENDBRANCH   7  10
ENDBRANCH   3   6
BRANCH   1  22
ATOM     22  C   UNL     1       0.418  10.309  19.084  0.00  0.00    +0.000 C 
BRANCH  22  23
ATOM     23  C   UNL     1      -0.939  10.838  19.522  0.00  0.00    +0.000 C 
BRANCH  23  30
ATOM     24  C   UNL     1      -5.200  12.495  19.004  0.00  0.00    +0.000 A 
ATOM     25  C   UNL     1      -5.704  12.204  17.734  0.00  0.00    +0.000 A 
ATOM     26  C   UNL     1      -4.934  11.499  16.798  0.00  0.00    +0.000 A 
ATOM     27  C   UNL     1      -3.643  11.085  17.154  0.00  0.00    +0.000 A 
ATOM     28  N   UNL     1      -2.722  10.381  16.419  0.00  0.00    +0.000 NA
ATOM     29  C   UNL     1      -1.687  10.238  17.215  0.00  0.00    +0.000 A 
ATOM     30  N   UNL     1      -1.891  10.841  18.427  0.00  0.00    +0.000 N 
ATOM     31  C   UNL     1      -3.148  11.395  18.420  0.00  0.00    +0.000 A 
ATOM     32  C   UNL     1      -3.897  12.115  19.362  0.00  0.00    +0.000 A 
BRANCH  24  34
ATOM     33  C   UNL     1      -6.015  12.525  21.224  0.00  0.00    +0.000 C 
ATOM     34  O   UNL     1      -5.884  13.188  19.969  0.00  0.00    +0.000 OA
ENDBRANCH  24  34
ENDBRANCH  23  30
ENDBRANCH  22  23
ENDBRANCH   1  22
TORSDOF 7
ENDMDL
MODEL 8
REMARK VINA RESULT:      -8.2      1.519      2.606
REMARK  Name = 
REMARK  9 active torsions:
REMARK  status: ('A' for Active; 'I' for Inactive)
REMARK    1  A    between atoms: C_1  and  O_2
REMARK    2  A    between atoms: O_2  and  C_3
REMARK    3  A    between atoms: N_9  and  C_10
REMARK    4  A    between atoms: C_10  and  C_11
REMARK    5  A    between atoms: C_11  and  N_12
REMARK    6  A    between atoms: C_14  and  N_15
REMARK    7  A    between atoms: C_16  and  C_18
REMARK    8  A    between atoms: C_22  and  C_23
REMARK    9  A    between atoms: C_27  and  C_28
REMARK                            x       y       z     vdW  Elec       q    Type
REMARK                         _______ _______ _______ _____ _____    ______ ____
ROOT
ATOM      1  N   UNL     1       1.031   9.639  19.767  0.00  0.00    +0.000 N 
ATOM      2  C   UNL     1       1.759   8.533  19.446  0.00  0.00    +0.000 A 
ATOM      3  C   UNL     1       1.668   7.667  20.510  0.00  0.00    +0.000 A 
ATOM      4  C   UNL     1       0.874   8.369  21.445  0.00  0.00    +0.000 A 
ATOM      5  N   UNL     1       0.478   9.567  20.993  0.00  0.00    +0.000 NA
ENDROOT
BRANCH   3   6
ATOM      6  N   UNL     1       2.235   6.407  20.620  0.00  0.00    +0.000 N 
ATOM      7  C   UNL     1       2.537   5.614  19.524  0.00  0.00    +0.000 C 
ATOM      8  O   UNL     1       2.290   5.897  18.358  0.00  0.00    +0.000 OA
ATOM      9  H   UNL     1       2.465   6.047  21.540  0.00  0.00    +0.000 HD
BRANCH   7  10
ATOM     10  C   UNL     1       3.238   4.384  19.853  0.00  0.00    +0.000 A 
ATOM     11  N   UNL     1       2.801   3.438  20.768  0.00  0.00    +0.000 NA
ATOM     12  C   UNL     1       3.687   2.473  20.641  0.00  0.00    +0.000 A 
ATOM     13  O   UNL     1       4.705   2.723  19.774  0.00  0.00    +0.000 OA
ATOM     14  C   UNL     1       4.434   3.977  19.290  0.00  0.00    +0.000 A 
BRANCH  14  15
ATOM     15  C   UNL     1       5.444   4.581  18.434  0.00  0.00    +0.000 A 
ATOM     16  C   UNL     1       6.506   5.317  18.969  0.00  0.00    +0.000 A 
ATOM     17  C   UNL     1       7.426   5.948  18.127  0.00  0.00    +0.000 A 
ATOM     18  C   UNL     1       7.288   5.863  16.741  0.00  0.00    +0.000 A 
ATOM     19  C   UNL     1       6.236   5.134  16.182  0.00  0.00    +0.000 A 
ATOM     20  C   UNL     1       6.044   5.053  14.696  0.00  0.00    +0.000 C 
ATOM     21  C   UNL     1       5.334   4.484  17.035  0.00  0.00    +0.000 A 
ENDBRANCH  14  15
ENDBRANCH   7  10
ENDBRANCH   3   6
BRANCH   1  22
ATOM     22  C   UNL     1       0.785  10.762  18.883  0.00  0.00    +0.000 C 
BRANCH  22  23
ATOM     23  C   UNL     1      -0.443  11.577  19.256  0.00  0.00    +0.000 C 
BRANCH  23  30
ATOM     24  C   UNL     1      -4.924  12.580  19.548  0.00  0.00    +0.000 A 
ATOM     25  C   UNL     1      -5.671  11.824  18.641  0.00  0.00    +0.000 A 
ATOM     26  C   UNL     1      -5.048  10.906  17.784  0.00  0.00    +0.000 A 
ATOM     27  C   UNL     1      -3.656  10.753  17.847  0.00  0.00    +0.000 A 
ATOM     28  N   UNL     1      -2.838   9.920  17.126  0.00  0.00    +0.000 NA
ATOM     29  C   UNL     1      -1.628  10.151  17.581  0.00  0.00    +0.000 A 
ATOM     30  N   UNL     1      -1.625  11.118  18.550  0.00  0.00    +0.000 N 
ATOM     31  C   UNL     1      -2.923  11.525  18.747  0.00  0.00    +0.000 A 
ATOM     32  C   UNL     1      -3.527  12.461  19.600  0.00  0.00    +0.000 A 
BRANCH  24  34
ATOM     33  C   UNL     1      -6.699  14.073  20.009  0.00  0.00    +0.000 C 
ATOM     34  O   UNL     1      -5.457  13.503  20.410  0.00  0.00    +0.000 OA
ENDBRANCH  24  34
ENDBRANCH  23  30
ENDBRANCH  22  23
ENDBRANCH   1  22
TORSDOF 7
ENDMDL
MODEL 9
REMARK VINA RESULT:      -8.2      2.333     10.030
REMARK  Name = 
REMARK  9 active torsions:
REMARK  status: ('A' for Active; 'I' for Inactive)
REMARK    1  A    between atoms: C_1  and  O_2
REMARK    2  A    between atoms: O_2  and  C_3
REMARK    3  A    between atoms: N_9  and  C_10
REMARK    4  A    between atoms: C_10  and  C_11
REMARK    5  A    between atoms: C_11  and  N_12
REMARK    6  A    between atoms: C_14  and  N_15
REMARK    7  A    between atoms: C_16  and  C_18
REMARK    8  A    between atoms: C_22  and  C_23
REMARK    9  A    between atoms: C_27  and  C_28
REMARK                            x       y       z     vdW  Elec       q    Type
REMARK                         _______ _______ _______ _____ _____    ______ ____
ROOT
ATOM      1  N   UNL     1       2.626   6.508  19.456  0.00  0.00    +0.000 N 
ATOM      2  C   UNL     1       1.953   7.457  20.165  0.00  0.00    +0.000 A 
ATOM      3  C   UNL     1       1.705   8.501  19.307  0.00  0.00    +0.000 A 
ATOM      4  C   UNL     1       2.304   8.089  18.095  0.00  0.00    +0.000 A 
ATOM      5  N   UNL     1       2.860   6.872  18.181  0.00  0.00    +0.000 NA
ENDROOT
BRANCH   3   6
ATOM      6  N   UNL     1       1.028   9.678  19.588  0.00  0.00    +0.000 N 
ATOM      7  C   UNL     1       0.073   9.783  20.587  0.00  0.00    +0.000 C 
ATOM      8  O   UNL     1      -0.325   8.857  21.283  0.00  0.00    +0.000 OA
ATOM      9  H   UNL     1       1.251  10.515  19.059  0.00  0.00    +0.000 HD
BRANCH   7  10
ATOM     10  C   UNL     1      -0.425  11.132  20.797  0.00  0.00    +0.000 A 
ATOM     11  N   UNL     1      -0.066  11.959  21.849  0.00  0.00    +0.000 NA
ATOM     12  C   UNL     1      -0.671  13.091  21.555  0.00  0.00    +0.000 A 
ATOM     13  O   UNL     1      -1.449  13.066  20.440  0.00  0.00    +0.000 OA
ATOM     14  C   UNL     1      -1.319  11.786  19.967  0.00  0.00    +0.000 A 
BRANCH  14  15
ATOM     15  C   UNL     1      -2.164  11.413  18.842  0.00  0.00    +0.000 A 
ATOM     16  C   UNL     1      -1.652  10.703  17.751  0.00  0.00    +0.000 A 
ATOM     17  C   UNL     1      -2.462  10.417  16.649  0.00  0.00    +0.000 A 
ATOM     18  C   UNL     1      -3.789  10.848  16.617  0.00  0.00    +0.000 A 
ATOM     19  C   UNL     1      -4.323  11.560  17.694  0.00  0.00    +0.000 A 
ATOM     20  C   UNL     1      -5.736  12.065  17.672  0.00  0.00    +0.000 C 
ATOM     21  C   UNL     1      -3.510  11.820  18.805  0.00  0.00    +0.000 A 
ENDBRANCH  14  15
ENDBRANCH   7  10
ENDBRANCH   3   6
BRANCH   1  22
ATOM     22  C   UNL     1       3.001   5.200  19.957  0.00  0.00    +0.000 C 
BRANCH  22  23
ATOM     23  C   UNL     1       3.485   4.246  18.878  0.00  0.00    +0.000 C 
BRANCH  23  30
ATOM     24  C   UNL     1       5.723   4.271  14.858  0.00  0.00    +0.000 A 
ATOM     25  C   UNL     1       7.073   4.587  15.033  0.00  0.00    +0.000 A 
ATOM     26  C   UNL     1       7.589   4.856  16.308  0.00  0.00    +0.000 A 
ATOM     27  C   UNL     1       6.730   4.803  17.415  0.00  0.00    +0.000 A 
ATOM     28  N   UNL     1       7.008   5.014  18.742  0.00  0.00    +0.000 NA
ATOM     29  C   UNL     1       5.867   4.826  19.364  0.00  0.00    +0.000 A 
ATOM     30  N   UNL     1       4.856   4.525  18.491  0.00  0.00    +0.000 N 
ATOM     31  C   UNL     1       5.383   4.500  17.222  0.00  0.00    +0.000 A 
ATOM     32  C   UNL     1       4.845   4.245  15.952  0.00  0.00    +0.000 A 
BRANCH  24  34
ATOM     33  C   UNL     1       6.008   3.467  12.652  0.00  0.00    +0.000 C 
ATOM     34  O   UNL     1       5.140   4.006  13.645  0.00  0.00    +0.000 OA
ENDBRANCH  24  34
ENDBRANCH  23  30
ENDBRANCH  22  23
ENDBRANCH   1  22
TORSDOF 7
ENDMDL
