MODEL 1
REMARK VINA RESULT:      -7.8      0.000      0.000
REMARK  Name = 
REMARK  3 active torsions:
REMARK  status: ('A' for Active; 'I' for Inactive)
REMARK    1  A    between atoms: N_4  and  C_5
REMARK    2  A    between atoms: C_8  and  C_9
REMARK    3  A    between atoms: C_12  and  C_13
REMARK                            x       y       z     vdW  Elec       q    Type
REMARK                         _______ _______ _______ _____ _____    ______ ____
ROOT
ATOM      1  C   UNL     1       0.762   8.882  20.523  0.00  0.00    +0.000 A 
ATOM      2  C   UNL     1       1.264   7.643  20.902  0.00  0.00    +0.000 A 
ATOM      3  C   UNL     1       2.115   6.928  20.053  0.00  0.00    +0.000 A 
ATOM      4  C   UNL     1       2.477   7.414  18.785  0.00  0.00    +0.000 A 
ATOM      5  C   UNL     1       1.954   8.663  18.412  0.00  0.00    +0.000 A 
ATOM      6  C   UNL     1       1.107   9.389  19.265  0.00  0.00    +0.000 A 
ENDROOT
BRANCH   1  10
ATOM      7  N   UNL     1      -0.985  10.589  23.200  0.00  0.00    +0.000 N 
ATOM      8  C   UNL     1       0.072   9.907  22.674  0.00  0.00    +0.000 C 
ATOM      9  O   UNL     1       1.017   9.623  23.394  0.00  0.00    +0.000 OA
ATOM     10  N   UNL     1      -0.096   9.645  21.341  0.00  0.00    +0.000 N 
ATOM     11  H   UNL     1      -0.889  10.703  24.202  0.00  0.00    +0.000 HD
ATOM     12  H   UNL     1      -1.902  10.274  22.918  0.00  0.00    +0.000 HD
ATOM     13  H   UNL     1      -0.797  10.204  20.879  0.00  0.00    +0.000 HD
ENDBRANCH   1  10
BRANCH   4  14
ATOM     14  C   UNL     1       3.355   6.620  17.893  0.00  0.00    +0.000 A 
ATOM     15  C   UNL     1       4.352   7.243  17.119  0.00  0.00    +0.000 A 
ATOM     16  C   UNL     1       5.183   6.518  16.258  0.00  0.00    +0.000 A 
ATOM     17  C   UNL     1       5.054   5.130  16.152  0.00  0.00    +0.000 A 
ATOM     18  C   UNL     1       4.070   4.490  16.920  0.00  0.00    +0.000 A 
ATOM     19  C   UNL     1       3.234   5.226  17.771  0.00  0.00    +0.000 A 
BRANCH  17  20
ATOM     20  C   UNL     1       5.952   4.333  15.240  0.00  0.00    +0.000 C 
ATOM     21  F   UNL     1       7.214   4.839  15.139  0.00  0.00    +0.000 F 
ATOM     22  F   UNL     1       6.101   3.045  15.654  0.00  0.00    +0.000 F 
ATOM     23  F   UNL     1       5.476   4.264  13.965  0.00  0.00    +0.000 F 
ENDBRANCH  17  20
ENDBRANCH   4  14
TORSDOF 3
ENDMDL
MODEL 2
REMARK VINA RESULT:      -7.7      0.409      1.458
REMARK  Name = 
REMARK  3 active torsions:
REMARK  status: ('A' for Active; 'I' for Inactive)
REMARK    1  A    between atoms: N_4  and  C_5
REMARK    2  A    between atoms: C_8  and  C_9
REMARK    3  A    between atoms: C_12  and  C_13
REMARK                            x       y       z     vdW  Elec       q    Type
REMARK                         _______ _______ _______ _____ _____    ______ ____
ROOT
ATOM      1  C   UNL     1       0.778   8.496  20.637  0.00  0.00    +0.000 A 
ATOM      2  C   UNL     1       1.270   7.228  20.927  0.00  0.00    +0.000 A 
ATOM      3  C   UNL     1       2.165   6.595  20.058  0.00  0.00    +0.000 A 
ATOM      4  C   UNL     1       2.582   7.193  18.856  0.00  0.00    +0.000 A 
ATOM      5  C   UNL     1       2.068   8.470  18.573  0.00  0.00    +0.000 A 
ATOM      6  C   UNL     1       1.178   9.114  19.447  0.00  0.00    +0.000 A 
ENDROOT
BRANCH   1  10
ATOM      7  N   UNL     1      -0.975  10.167  23.332  0.00  0.00    +0.000 N 
ATOM      8  C   UNL     1       0.135   9.636  22.743  0.00  0.00    +0.000 C 
ATOM      9  O   UNL     1       1.191   9.629  23.358  0.00  0.00    +0.000 OA
ATOM     10  N   UNL     1      -0.122   9.180  21.478  0.00  0.00    +0.000 N 
ATOM     11  H   UNL     1      -0.795  10.423  24.296  0.00  0.00    +0.000 HD
ATOM     12  H   UNL     1      -1.834   9.651  23.209  0.00  0.00    +0.000 HD
ATOM     13  H   UNL     1      -0.968   9.533  21.059  0.00  0.00    +0.000 HD
ENDBRANCH   1  10
BRANCH   4  14
ATOM     14  C   UNL     1       3.505   6.485  17.939  0.00  0.00    +0.000 A 
ATOM     15  C   UNL     1       3.549   5.079  17.900  0.00  0.00    +0.000 A 
ATOM     16  C   UNL     1       4.423   4.389  17.054  0.00  0.00    +0.000 A 
ATOM     17  C   UNL     1       5.280   5.087  16.198  0.00  0.00    +0.000 A 
ATOM     18  C   UNL     1       5.246   6.489  16.217  0.00  0.00    +0.000 A 
ATOM     19  C   UNL     1       4.377   7.173  17.077  0.00  0.00    +0.000 A 
BRANCH  17  20
ATOM     20  C   UNL     1       6.217   4.356  15.268  0.00  0.00    +0.000 C 
ATOM     21  F   UNL     1       5.947   3.024  15.159  0.00  0.00    +0.000 F 
ATOM     22  F   UNL     1       6.177   4.848  14.000  0.00  0.00    +0.000 F 
ATOM     23  F   UNL     1       7.518   4.441  15.663  0.00  0.00    +0.000 F 
ENDBRANCH  17  20
ENDBRANCH   4  14
TORSDOF 3
ENDMDL
MODEL 3
REMARK VINA RESULT:      -7.7      6.312      8.493
REMARK  Name = 
REMARK  3 active torsions:
REMARK  status: ('A' for Active; 'I' for Inactive)
REMARK    1  A    between atoms: N_4  and  C_5
REMARK    2  A    between atoms: C_8  and  C_9
REMARK    3  A    between atoms: C_12  and  C_13
REMARK                            x       y       z     vdW  Elec       q    Type
REMARK                         _______ _______ _______ _____ _____    ______ ____
ROOT
ATOM      1  C   UNL     1       5.683   4.451  15.068  0.00  0.00    +0.000 A 
ATOM      2  C   UNL     1       5.618   5.839  15.115  0.00  0.00    +0.000 A 
ATOM      3  C   UNL     1       4.874   6.485  16.106  0.00  0.00    +0.000 A 
ATOM      4  C   UNL     1       4.147   5.770  17.073  0.00  0.00    +0.000 A 
ATOM      5  C   UNL     1       4.214   4.368  17.007  0.00  0.00    +0.000 A 
ATOM      6  C   UNL     1       4.968   3.715  16.019  0.00  0.00    +0.000 A 
ENDROOT
BRANCH   1  10
ATOM      7  N   UNL     1       6.902   2.633  12.180  0.00  0.00    +0.000 N 
ATOM      8  C   UNL     1       5.984   3.391  12.846  0.00  0.00    +0.000 C 
ATOM      9  O   UNL     1       4.929   3.671  12.296  0.00  0.00    +0.000 OA
ATOM     10  N   UNL     1       6.420   3.750  14.093  0.00  0.00    +0.000 N 
ATOM     11  H   UNL     1       6.535   2.302  11.295  0.00  0.00    +0.000 HD
ATOM     12  H   UNL     1       7.357   1.911  12.719  0.00  0.00    +0.000 HD
ATOM     13  H   UNL     1       7.414   3.662  14.241  0.00  0.00    +0.000 HD
ENDBRANCH   1  10
BRANCH   4  14
ATOM     14  C   UNL     1       3.340   6.481  18.093  0.00  0.00    +0.000 A 
ATOM     15  C   UNL     1       3.011   5.863  19.314  0.00  0.00    +0.000 A 
ATOM     16  C   UNL     1       2.238   6.508  20.286  0.00  0.00    +0.000 A 
ATOM     17  C   UNL     1       1.775   7.810  20.073  0.00  0.00    +0.000 A 
ATOM     18  C   UNL     1       2.098   8.445  18.865  0.00  0.00    +0.000 A 
ATOM     19  C   UNL     1       2.862   7.787  17.892  0.00  0.00    +0.000 A 
BRANCH  17  20
ATOM     20  C   UNL     1       0.954   8.523  21.118  0.00  0.00    +0.000 C 
ATOM     21  F   UNL     1       1.663   8.858  22.234  0.00  0.00    +0.000 F 
ATOM     22  F   UNL     1       0.422   9.686  20.654  0.00  0.00    +0.000 F 
ATOM     23  F   UNL     1      -0.098   7.778  21.556  0.00  0.00    +0.000 F 
ENDBRANCH  17  20
ENDBRANCH   4  14
TORSDOF 3
ENDMDL
MODEL 4
REMARK VINA RESULT:      -7.7      0.720      1.831
REMARK  Name = 
REMARK  3 active torsions:
REMARK  status: ('A' for Active; 'I' for Inactive)
REMARK    1  A    between atoms: N_4  and  C_5
REMARK    2  A    between atoms: C_8  and  C_9
REMARK    3  A    between atoms: C_12  and  C_13
REMARK                            x       y       z     vdW  Elec       q    Type
REMARK                         _______ _______ _______ _____ _____    ______ ____
ROOT
ATOM      1  C   UNL     1       1.043   8.138  20.585  0.00  0.00    +0.000 A 
ATOM      2  C   UNL     1       1.430   8.815  19.434  0.00  0.00    +0.000 A 
ATOM      3  C   UNL     1       2.242   8.194  18.480  0.00  0.00    +0.000 A 
ATOM      4  C   UNL     1       2.716   6.882  18.650  0.00  0.00    +0.000 A 
ATOM      5  C   UNL     1       2.324   6.214  19.822  0.00  0.00    +0.000 A 
ATOM      6  C   UNL     1       1.501   6.830  20.778  0.00  0.00    +0.000 A 
ENDROOT
BRANCH   1  10
ATOM      7  N   UNL     1      -0.399   9.667  23.537  0.00  0.00    +0.000 N 
ATOM      8  C   UNL     1       0.645   9.291  22.745  0.00  0.00    +0.000 C 
ATOM      9  O   UNL     1       1.788   9.501  23.124  0.00  0.00    +0.000 OA
ATOM     10  N   UNL     1       0.224   8.716  21.576  0.00  0.00    +0.000 N 
ATOM     11  H   UNL     1      -0.077  10.013  24.434  0.00  0.00    +0.000 HD
ATOM     12  H   UNL     1      -1.160   9.008  23.612  0.00  0.00    +0.000 HD
ATOM     13  H   UNL     1      -0.738   8.894  21.333  0.00  0.00    +0.000 HD
ENDBRANCH   1  10
BRANCH   4  14
ATOM     14  C   UNL     1       3.602   6.260  17.638  0.00  0.00    +0.000 A 
ATOM     15  C   UNL     1       3.648   4.862  17.479  0.00  0.00    +0.000 A 
ATOM     16  C   UNL     1       4.487   4.251  16.541  0.00  0.00    +0.000 A 
ATOM     17  C   UNL     1       5.305   5.024  15.712  0.00  0.00    +0.000 A 
ATOM     18  C   UNL     1       5.268   6.420  15.851  0.00  0.00    +0.000 A 
ATOM     19  C   UNL     1       4.434   7.023  16.802  0.00  0.00    +0.000 A 
BRANCH  17  20
ATOM     20  C   UNL     1       6.203   4.380  14.685  0.00  0.00    +0.000 C 
ATOM     21  F   UNL     1       6.770   3.215  15.111  0.00  0.00    +0.000 F 
ATOM     22  F   UNL     1       5.541   4.073  13.537  0.00  0.00    +0.000 F 
ATOM     23  F   UNL     1       7.238   5.185  14.317  0.00  0.00    +0.000 F 
ENDBRANCH  17  20
ENDBRANCH   4  14
TORSDOF 3
ENDMDL
MODEL 5
REMARK VINA RESULT:      -7.7      6.285      8.388
REMARK  Name = 
REMARK  3 active torsions:
REMARK  status: ('A' for Active; 'I' for Inactive)
REMARK    1  A    between atoms: N_4  and  C_5
REMARK    2  A    between atoms: C_8  and  C_9
REMARK    3  A    between atoms: C_12  and  C_13
REMARK                            x       y       z     vdW  Elec       q    Type
REMARK                         _______ _______ _______ _____ _____    ______ ____
ROOT
ATOM      1  C   UNL     1       5.529   4.604  15.279  0.00  0.00    +0.000 A 
ATOM      2  C   UNL     1       5.459   5.991  15.352  0.00  0.00    +0.000 A 
ATOM      3  C   UNL     1       4.700   6.615  16.347  0.00  0.00    +0.000 A 
ATOM      4  C   UNL     1       3.964   5.879  17.291  0.00  0.00    +0.000 A 
ATOM      5  C   UNL     1       4.037   4.479  17.199  0.00  0.00    +0.000 A 
ATOM      6  C   UNL     1       4.805   3.848  16.207  0.00  0.00    +0.000 A 
ENDROOT
BRANCH   1  10
ATOM      7  N   UNL     1       6.780   2.814  12.387  0.00  0.00    +0.000 N 
ATOM      8  C   UNL     1       5.843   3.542  13.060  0.00  0.00    +0.000 C 
ATOM      9  O   UNL     1       4.772   3.780  12.521  0.00  0.00    +0.000 OA
ATOM     10  N   UNL     1       6.280   3.925  14.299  0.00  0.00    +0.000 N 
ATOM     11  H   UNL     1       6.415   2.465  11.508  0.00  0.00    +0.000 HD
ATOM     12  H   UNL     1       7.268   2.114  12.925  0.00  0.00    +0.000 HD
ATOM     13  H   UNL     1       7.278   3.875  14.436  0.00  0.00    +0.000 HD
ENDBRANCH   1  10
BRANCH   4  14
ATOM     14  C   UNL     1       3.143   6.567  18.315  0.00  0.00    +0.000 A 
ATOM     15  C   UNL     1       2.666   7.874  18.100  0.00  0.00    +0.000 A 
ATOM     16  C   UNL     1       1.902   8.550  19.058  0.00  0.00    +0.000 A 
ATOM     17  C   UNL     1       1.573   7.931  20.268  0.00  0.00    +0.000 A 
ATOM     18  C   UNL     1       2.034   6.625  20.497  0.00  0.00    +0.000 A 
ATOM     19  C   UNL     1       2.809   5.961  19.538  0.00  0.00    +0.000 A 
BRANCH  17  20
ATOM     20  C   UNL     1       0.737   8.641  21.303  0.00  0.00    +0.000 C 
ATOM     21  F   UNL     1       0.366   9.900  20.934  0.00  0.00    +0.000 F 
ATOM     22  F   UNL     1      -0.419   7.978  21.579  0.00  0.00    +0.000 F 
ATOM     23  F   UNL     1       1.384   8.778  22.494  0.00  0.00    +0.000 F 
ENDBRANCH  17  20
ENDBRANCH   4  14
TORSDOF 3
ENDMDL
MODEL 6
REMARK VINA RESULT:      -7.7      0.727      1.294
REMARK  Name = 
REMARK  3 active torsions:
REMARK  status: ('A' for Active; 'I' for Inactive)
REMARK    1  A    between atoms: N_4  and  C_5
REMARK    2  A    between atoms: C_8  and  C_9
REMARK    3  A    between atoms: C_12  and  C_13
REMARK                            x       y       z     vdW  Elec       q    Type
REMARK                         _______ _______ _______ _____ _____    ______ ____
ROOT
ATOM      1  C   UNL     1       0.927   8.197  20.571  0.00  0.00    +0.000 A 
ATOM      2  C   UNL     1       1.364   8.854  19.427  0.00  0.00    +0.000 A 
ATOM      3  C   UNL     1       2.233   8.224  18.530  0.00  0.00    +0.000 A 
ATOM      4  C   UNL     1       2.716   6.924  18.754  0.00  0.00    +0.000 A 
ATOM      5  C   UNL     1       2.273   6.276  19.919  0.00  0.00    +0.000 A 
ATOM      6  C   UNL     1       1.393   6.901  20.817  0.00  0.00    +0.000 A 
ENDROOT
BRANCH   1  10
ATOM      7  N   UNL     1      -0.690   9.755  23.415  0.00  0.00    +0.000 N 
ATOM      8  C   UNL     1       0.401   9.371  22.691  0.00  0.00    +0.000 C 
ATOM      9  O   UNL     1       1.518   9.586  23.136  0.00  0.00    +0.000 OA
ATOM     10  N   UNL     1       0.051   8.784  21.505  0.00  0.00    +0.000 N 
ATOM     11  H   UNL     1      -0.422  10.110  24.326  0.00  0.00    +0.000 HD
ATOM     12  H   UNL     1      -1.454   9.096  23.450  0.00  0.00    +0.000 HD
ATOM     13  H   UNL     1      -0.895   8.960  21.203  0.00  0.00    +0.000 HD
ENDBRANCH   1  10
BRANCH   4  14
ATOM     14  C   UNL     1       3.661   6.292  17.803  0.00  0.00    +0.000 A 
ATOM     15  C   UNL     1       4.549   7.073  17.041  0.00  0.00    +0.000 A 
ATOM     16  C   UNL     1       5.440   6.502  16.126  0.00  0.00    +0.000 A 
ATOM     17  C   UNL     1       5.483   5.115  15.951  0.00  0.00    +0.000 A 
ATOM     18  C   UNL     1       4.610   4.319  16.707  0.00  0.00    +0.000 A 
ATOM     19  C   UNL     1       3.712   4.901  17.612  0.00  0.00    +0.000 A 
BRANCH  17  20
ATOM     20  C   UNL     1       6.449   4.483  14.980  0.00  0.00    +0.000 C 
ATOM     21  F   UNL     1       7.691   4.275  15.504  0.00  0.00    +0.000 F 
ATOM     22  F   UNL     1       6.023   3.268  14.542  0.00  0.00    +0.000 F 
ATOM     23  F   UNL     1       6.638   5.240  13.863  0.00  0.00    +0.000 F 
ENDBRANCH  17  20
ENDBRANCH   4  14
TORSDOF 3
ENDMDL
MODEL 7
REMARK VINA RESULT:      -7.7      6.303      8.413
REMARK  Name = 
REMARK  3 active torsions:
REMARK  status: ('A' for Active; 'I' for Inactive)
REMARK    1  A    between atoms: N_4  and  C_5
REMARK    2  A    between atoms: C_8  and  C_9
REMARK    3  A    between atoms: C_12  and  C_13
REMARK                            x       y       z     vdW  Elec       q    Type
REMARK                         _______ _______ _______ _____ _____    ______ ____
ROOT
ATOM      1  C   UNL     1       5.552   4.443  15.187  0.00  0.00    +0.000 A 
ATOM      2  C   UNL     1       4.800   3.755  16.133  0.00  0.00    +0.000 A 
ATOM      3  C   UNL     1       4.038   4.449  17.079  0.00  0.00    +0.000 A 
ATOM      4  C   UNL     1       4.018   5.853  17.131  0.00  0.00    +0.000 A 
ATOM      5  C   UNL     1       4.791   6.533  16.175  0.00  0.00    +0.000 A 
ATOM      6  C   UNL     1       5.549   5.841  15.217  0.00  0.00    +0.000 A 
ENDROOT
BRANCH   1  10
ATOM      7  N   UNL     1       6.892   2.739  12.283  0.00  0.00    +0.000 N 
ATOM      8  C   UNL     1       5.933   3.445  12.949  0.00  0.00    +0.000 C 
ATOM      9  O   UNL     1       4.878   3.696  12.386  0.00  0.00    +0.000 OA
ATOM     10  N   UNL     1       6.334   3.793  14.211  0.00  0.00    +0.000 N 
ATOM     11  H   UNL     1       6.554   2.414  11.384  0.00  0.00    +0.000 HD
ATOM     12  H   UNL     1       7.367   2.025  12.815  0.00  0.00    +0.000 HD
ATOM     13  H   UNL     1       7.327   3.742  14.374  0.00  0.00    +0.000 HD
ENDBRANCH   1  10
BRANCH   4  14
ATOM     14  C   UNL     1       3.228   6.562  18.165  0.00  0.00    +0.000 A 
ATOM     15  C   UNL     1       2.914   5.939  19.388  0.00  0.00    +0.000 A 
ATOM     16  C   UNL     1       2.156   6.582  20.373  0.00  0.00    +0.000 A 
ATOM     17  C   UNL     1       1.695   7.886  20.173  0.00  0.00    +0.000 A 
ATOM     18  C   UNL     1       2.003   8.526  18.963  0.00  0.00    +0.000 A 
ATOM     19  C   UNL     1       2.752   7.870  17.977  0.00  0.00    +0.000 A 
BRANCH  17  20
ATOM     20  C   UNL     1       0.891   8.598  21.232  0.00  0.00    +0.000 C 
ATOM     21  F   UNL     1       1.553   8.741  22.416  0.00  0.00    +0.000 F 
ATOM     22  F   UNL     1       0.531   9.854  20.854  0.00  0.00    +0.000 F 
ATOM     23  F   UNL     1      -0.270   7.950  21.531  0.00  0.00    +0.000 F 
ENDBRANCH  17  20
ENDBRANCH   4  14
TORSDOF 3
ENDMDL
MODEL 8
REMARK VINA RESULT:      -7.6      6.289      8.338
REMARK  Name = 
REMARK  3 active torsions:
REMARK  status: ('A' for Active; 'I' for Inactive)
REMARK    1  A    between atoms: N_4  and  C_5
REMARK    2  A    between atoms: C_8  and  C_9
REMARK    3  A    between atoms: C_12  and  C_13
REMARK                            x       y       z     vdW  Elec       q    Type
REMARK                         _______ _______ _______ _____ _____    ______ ____
ROOT
ATOM      1  C   UNL     1       5.528   4.573  15.258  0.00  0.00    +0.000 A 
ATOM      2  C   UNL     1       4.783   3.860  16.190  0.00  0.00    +0.000 A 
ATOM      3  C   UNL     1       4.004   4.528  17.141  0.00  0.00    +0.000 A 
ATOM      4  C   UNL     1       3.959   5.930  17.211  0.00  0.00    +0.000 A 
ATOM      5  C   UNL     1       4.725   6.636  16.268  0.00  0.00    +0.000 A 
ATOM      6  C   UNL     1       5.500   5.971  15.306  0.00  0.00    +0.000 A 
ENDROOT
BRANCH   1  10
ATOM      7  N   UNL     1       6.906   2.889  12.360  0.00  0.00    +0.000 N 
ATOM      8  C   UNL     1       5.921   3.551  13.033  0.00  0.00    +0.000 C 
ATOM      9  O   UNL     1       4.841   3.724  12.489  0.00  0.00    +0.000 OA
ATOM     10  N   UNL     1       6.327   3.950  14.278  0.00  0.00    +0.000 N 
ATOM     11  H   UNL     1       6.569   2.524  11.477  0.00  0.00    +0.000 HD
ATOM     12  H   UNL     1       7.435   2.216  12.896  0.00  0.00    +0.000 HD
ATOM     13  H   UNL     1       7.325   3.962  14.420  0.00  0.00    +0.000 HD
ENDBRANCH   1  10
BRANCH   4  14
ATOM     14  C   UNL     1       3.150   6.612  18.250  0.00  0.00    +0.000 A 
ATOM     15  C   UNL     1       2.663   7.916  18.046  0.00  0.00    +0.000 A 
ATOM     16  C   UNL     1       1.910   8.585  19.017  0.00  0.00    +0.000 A 
ATOM     17  C   UNL     1       1.604   7.961  20.231  0.00  0.00    +0.000 A 
ATOM     18  C   UNL     1       2.076   6.658  20.449  0.00  0.00    +0.000 A 
ATOM     19  C   UNL     1       2.839   6.000  19.476  0.00  0.00    +0.000 A 
BRANCH  17  20
ATOM     20  C   UNL     1       0.781   8.664  21.281  0.00  0.00    +0.000 C 
ATOM     21  F   UNL     1      -0.375   8.012  21.594  0.00  0.00    +0.000 F 
ATOM     22  F   UNL     1       1.453   8.812  22.454  0.00  0.00    +0.000 F 
ATOM     23  F   UNL     1       0.408   9.918  20.901  0.00  0.00    +0.000 F 
ENDBRANCH  17  20
ENDBRANCH   4  14
TORSDOF 3
ENDMDL
MODEL 9
REMARK VINA RESULT:      -7.6      0.968      1.437
REMARK  Name = 
REMARK  3 active torsions:
REMARK  status: ('A' for Active; 'I' for Inactive)
REMARK    1  A    between atoms: N_4  and  C_5
REMARK    2  A    between atoms: C_8  and  C_9
REMARK    3  A    between atoms: C_12  and  C_13
REMARK                            x       y       z     vdW  Elec       q    Type
REMARK                         _______ _______ _______ _____ _____    ______ ____
ROOT
ATOM      1  C   UNL     1       0.821   9.269  20.080  0.00  0.00    +0.000 A 
ATOM      2  C   UNL     1       1.109   9.547  18.749  0.00  0.00    +0.000 A 
ATOM      3  C   UNL     1       1.930   8.694  18.004  0.00  0.00    +0.000 A 
ATOM      4  C   UNL     1       2.513   7.546  18.566  0.00  0.00    +0.000 A 
ATOM      5  C   UNL     1       2.220   7.284  19.915  0.00  0.00    +0.000 A 
ATOM      6  C   UNL     1       1.389   8.132  20.665  0.00  0.00    +0.000 A 
ENDROOT
BRANCH   1  10
ATOM      7  N   UNL     1      -0.645  11.803  22.216  0.00  0.00    +0.000 N 
ATOM      8  C   UNL     1       0.339  11.304  21.414  0.00  0.00    +0.000 C 
ATOM      9  O   UNL     1       1.362  11.952  21.251  0.00  0.00    +0.000 OA
ATOM     10  N   UNL     1      -0.002  10.092  20.875  0.00  0.00    +0.000 N 
ATOM     11  H   UNL     1      -0.349  12.656  22.676  0.00  0.00    +0.000 HD
ATOM     12  H   UNL     1      -1.086  11.143  22.841  0.00  0.00    +0.000 HD
ATOM     13  H   UNL     1      -0.985   9.872  20.903  0.00  0.00    +0.000 HD
ENDBRANCH   1  10
BRANCH   4  14
ATOM     14  C   UNL     1       3.405   6.678  17.762  0.00  0.00    +0.000 A 
ATOM     15  C   UNL     1       4.405   7.232  16.941  0.00  0.00    +0.000 A 
ATOM     16  C   UNL     1       5.249   6.434  16.161  0.00  0.00    +0.000 A 
ATOM     17  C   UNL     1       5.131   5.041  16.188  0.00  0.00    +0.000 A 
ATOM     18  C   UNL     1       4.144   4.470  17.006  0.00  0.00    +0.000 A 
ATOM     19  C   UNL     1       3.294   5.277  17.774  0.00  0.00    +0.000 A 
BRANCH  17  20
ATOM     20  C   UNL     1       6.044   4.167  15.365  0.00  0.00    +0.000 C 
ATOM     21  F   UNL     1       7.367   4.454  15.529  0.00  0.00    +0.000 F 
ATOM     22  F   UNL     1       5.909   2.847  15.667  0.00  0.00    +0.000 F 
ATOM     23  F   UNL     1       5.803   4.271  14.028  0.00  0.00    +0.000 F 
ENDBRANCH  17  20
ENDBRANCH   4  14
TORSDOF 3
ENDMDL
