MODEL 1
REMARK VINA RESULT:      -5.5      0.000      0.000
REMARK  Name = 
REMARK  7 active torsions:
REMARK  status: ('A' for Active; 'I' for Inactive)
REMARK    1  A    between atoms: C_1  and  C_2
REMARK    2  A    between atoms: C_4  and  C_5
REMARK    3  A    between atoms: C_5  and  O_7
REMARK    4  A    between atoms: C_8  and  C_9
REMARK    5  A    between atoms: C_9  and  C_10
REMARK    6  A    between atoms: C_10  and  C_11
REMARK    7  A    between atoms: C_11  and  N_12
REMARK                            x       y       z     vdW  Elec       q    Type
REMARK                         _______ _______ _______ _____ _____    ______ ____
ROOT
ATOM      1  C   UNL     1       4.974   6.443  16.058  0.00  0.00    +0.000 C 
ATOM      2  C   UNL     1       4.423   5.682  17.219  0.00  0.00    +0.000 A 
ATOM      3  C   UNL     1       4.620   4.338  17.481  0.00  0.00    +0.000 A 
ATOM      4  C   UNL     1       4.003   3.871  18.660  0.00  0.00    +0.000 A 
ATOM      5  C   UNL     1       3.293   4.907  19.321  0.00  0.00    +0.000 A 
ATOM      6  S   UNL     1       3.473   6.328  18.432  0.00  0.00    +0.000 S 
ENDROOT
BRANCH   4   7
ATOM      7  C   UNL     1       4.156   2.433  19.050  0.00  0.00    +0.000 C 
ATOM      8  O   UNL     1       3.519   1.591  18.435  0.00  0.00    +0.000 OA
BRANCH   7   9
ATOM      9  O   UNL     1       4.964   1.996  20.039  0.00  0.00    +0.000 OA
ATOM     10  H   UNL     1       4.813   1.212  20.569  0.00  0.00    +0.000 HD
ENDBRANCH   7   9
ENDBRANCH   4   7
BRANCH   5  11
ATOM     11  C   UNL     1       2.502   4.905  20.603  0.00  0.00    +0.000 C 
BRANCH  11  12
ATOM     12  C   UNL     1       1.227   4.069  20.432  0.00  0.00    +0.000 C 
BRANCH  12  13
ATOM     13  C   UNL     1       1.289   2.753  21.214  0.00  0.00    +0.000 C 
BRANCH  13  14
ATOM     14  N   UNL     1       2.480   2.733  22.061  0.00  0.00    +0.000 NA
ATOM     15  H   UNL     1       2.452   1.889  22.679  0.00  0.00    +0.000 HD
ATOM     16  H   UNL     1       2.475   3.581  22.672  0.00  0.00    +0.000 HD
ENDBRANCH  13  14
ENDBRANCH  12  13
ENDBRANCH  11  12
ENDBRANCH   5  11
TORSDOF 6
ENDMDL
MODEL 2
REMARK VINA RESULT:      -5.2      3.112      3.724
REMARK  Name = 
REMARK  7 active torsions:
REMARK  status: ('A' for Active; 'I' for Inactive)
REMARK    1  A    between atoms: C_1  and  C_2
REMARK    2  A    between atoms: C_4  and  C_5
REMARK    3  A    between atoms: C_5  and  O_7
REMARK    4  A    between atoms: C_8  and  C_9
REMARK    5  A    between atoms: C_9  and  C_10
REMARK    6  A    between atoms: C_10  and  C_11
REMARK    7  A    between atoms: C_11  and  N_12
REMARK                            x       y       z     vdW  Elec       q    Type
REMARK                         _______ _______ _______ _____ _____    ______ ____
ROOT
ATOM      1  C   UNL     1       6.426   4.218  14.429  0.00  0.00    +0.000 C 
ATOM      2  C   UNL     1       6.224   4.536  15.875  0.00  0.00    +0.000 A 
ATOM      3  C   UNL     1       7.162   5.088  16.728  0.00  0.00    +0.000 A 
ATOM      4  C   UNL     1       6.705   5.306  18.045  0.00  0.00    +0.000 A 
ATOM      5  C   UNL     1       5.357   4.890  18.203  0.00  0.00    +0.000 A 
ATOM      6  S   UNL     1       4.807   4.294  16.725  0.00  0.00    +0.000 S 
ENDROOT
BRANCH   4   7
ATOM      7  C   UNL     1       7.633   5.909  19.054  0.00  0.00    +0.000 C 
ATOM      8  O   UNL     1       8.252   6.917  18.749  0.00  0.00    +0.000 OA
BRANCH   7   9
ATOM      9  O   UNL     1       7.829   5.415  20.295  0.00  0.00    +0.000 OA
ATOM     10  H   UNL     1       8.020   5.940  21.074  0.00  0.00    +0.000 HD
ENDBRANCH   7   9
ENDBRANCH   4   7
BRANCH   5  11
ATOM     11  C   UNL     1       4.441   4.936  19.396  0.00  0.00    +0.000 C 
BRANCH  11  12
ATOM     12  C   UNL     1       3.548   3.688  19.422  0.00  0.00    +0.000 C 
BRANCH  12  13
ATOM     13  C   UNL     1       4.306   2.446  19.902  0.00  0.00    +0.000 C 
BRANCH  13  14
ATOM     14  N   UNL     1       4.218   1.389  18.898  0.00  0.00    +0.000 NA
ATOM     15  H   UNL     1       5.034   1.458  18.247  0.00  0.00    +0.000 HD
ATOM     16  H   UNL     1       3.346   1.526  18.338  0.00  0.00    +0.000 HD
ENDBRANCH  13  14
ENDBRANCH  12  13
ENDBRANCH  11  12
ENDBRANCH   5  11
TORSDOF 6
ENDMDL
MODEL 3
REMARK VINA RESULT:      -5.2      1.798      1.950
REMARK  Name = 
REMARK  7 active torsions:
REMARK  status: ('A' for Active; 'I' for Inactive)
REMARK    1  A    between atoms: C_1  and  C_2
REMARK    2  A    between atoms: C_4  and  C_5
REMARK    3  A    between atoms: C_5  and  O_7
REMARK    4  A    between atoms: C_8  and  C_9
REMARK    5  A    between atoms: C_9  and  C_10
REMARK    6  A    between atoms: C_10  and  C_11
REMARK    7  A    between atoms: C_11  and  N_12
REMARK                            x       y       z     vdW  Elec       q    Type
REMARK                         _______ _______ _______ _____ _____    ______ ____
ROOT
ATOM      1  C   UNL     1       7.111   6.388  17.766  0.00  0.00    +0.000 C 
ATOM      2  C   UNL     1       5.878   5.643  18.161  0.00  0.00    +0.000 A 
ATOM      3  C   UNL     1       5.834   4.466  18.887  0.00  0.00    +0.000 A 
ATOM      4  C   UNL     1       4.534   3.981  19.143  0.00  0.00    +0.000 A 
ATOM      5  C   UNL     1       3.543   4.824  18.576  0.00  0.00    +0.000 A 
ATOM      6  S   UNL     1       4.314   6.112  17.809  0.00  0.00    +0.000 S 
ENDROOT
BRANCH   4   7
ATOM      7  C   UNL     1       4.364   2.717  19.929  0.00  0.00    +0.000 C 
ATOM      8  O   UNL     1       3.547   2.700  20.837  0.00  0.00    +0.000 OA
BRANCH   7   9
ATOM      9  O   UNL     1       5.052   1.579  19.696  0.00  0.00    +0.000 OA
ATOM     10  H   UNL     1       6.004   1.521  19.599  0.00  0.00    +0.000 HD
ENDBRANCH   7   9
ENDBRANCH   4   7
BRANCH   5  11
ATOM     11  C   UNL     1       2.040   4.737  18.596  0.00  0.00    +0.000 C 
BRANCH  11  12
ATOM     12  C   UNL     1       1.578   3.458  17.886  0.00  0.00    +0.000 C 
BRANCH  12  13
ATOM     13  C   UNL     1       0.692   2.587  18.782  0.00  0.00    +0.000 C 
BRANCH  13  14
ATOM     14  N   UNL     1       0.613   3.168  20.120  0.00  0.00    +0.000 NA
ATOM     15  H   UNL     1      -0.366   3.080  20.480  0.00  0.00    +0.000 HD
ATOM     16  H   UNL     1       0.844   4.185  20.061  0.00  0.00    +0.000 HD
ENDBRANCH  13  14
ENDBRANCH  12  13
ENDBRANCH  11  12
ENDBRANCH   5  11
TORSDOF 6
ENDMDL
MODEL 4
REMARK VINA RESULT:      -5.2      1.513      1.889
REMARK  Name = 
REMARK  7 active torsions:
REMARK  status: ('A' for Active; 'I' for Inactive)
REMARK    1  A    between atoms: C_1  and  C_2
REMARK    2  A    between atoms: C_4  and  C_5
REMARK    3  A    between atoms: C_5  and  O_7
REMARK    4  A    between atoms: C_8  and  C_9
REMARK    5  A    between atoms: C_9  and  C_10
REMARK    6  A    between atoms: C_10  and  C_11
REMARK    7  A    between atoms: C_11  and  N_12
REMARK                            x       y       z     vdW  Elec       q    Type
REMARK                         _______ _______ _______ _____ _____    ______ ____
ROOT
ATOM      1  C   UNL     1       6.417   4.990  15.622  0.00  0.00    +0.000 C 
ATOM      2  C   UNL     1       5.238   4.691  16.489  0.00  0.00    +0.000 A 
ATOM      3  C   UNL     1       4.709   3.438  16.743  0.00  0.00    +0.000 A 
ATOM      4  C   UNL     1       3.603   3.432  17.617  0.00  0.00    +0.000 A 
ATOM      5  C   UNL     1       3.267   4.745  18.040  0.00  0.00    +0.000 A 
ATOM      6  S   UNL     1       4.348   5.826  17.331  0.00  0.00    +0.000 S 
ENDROOT
BRANCH   4   7
ATOM      7  C   UNL     1       2.953   2.129  17.971  0.00  0.00    +0.000 C 
ATOM      8  O   UNL     1       3.661   1.209  18.350  0.00  0.00    +0.000 OA
BRANCH   7   9
ATOM      9  O   UNL     1       1.624   1.902  17.907  0.00  0.00    +0.000 OA
ATOM     10  H   UNL     1       1.105   1.888  17.102  0.00  0.00    +0.000 HD
ENDBRANCH   7   9
ENDBRANCH   4   7
BRANCH   5  11
ATOM     11  C   UNL     1       2.193   5.240  18.972  0.00  0.00    +0.000 C 
BRANCH  11  12
ATOM     12  C   UNL     1       2.610   5.000  20.429  0.00  0.00    +0.000 C 
BRANCH  12  13
ATOM     13  C   UNL     1       1.805   3.871  21.082  0.00  0.00    +0.000 C 
BRANCH  13  14
ATOM     14  N   UNL     1       0.620   3.576  20.280  0.00  0.00    +0.000 NA
ATOM     15  H   UNL     1       0.698   2.610  19.887  0.00  0.00    +0.000 HD
ATOM     16  H   UNL     1       0.577   4.248  19.480  0.00  0.00    +0.000 HD
ENDBRANCH  13  14
ENDBRANCH  12  13
ENDBRANCH  11  12
ENDBRANCH   5  11
TORSDOF 6
ENDMDL
MODEL 5
REMARK VINA RESULT:      -5.2      1.321      1.389
REMARK  Name = 
REMARK  7 active torsions:
REMARK  status: ('A' for Active; 'I' for Inactive)
REMARK    1  A    between atoms: C_1  and  C_2
REMARK    2  A    between atoms: C_4  and  C_5
REMARK    3  A    between atoms: C_5  and  O_7
REMARK    4  A    between atoms: C_8  and  C_9
REMARK    5  A    between atoms: C_9  and  C_10
REMARK    6  A    between atoms: C_10  and  C_11
REMARK    7  A    between atoms: C_11  and  N_12
REMARK                            x       y       z     vdW  Elec       q    Type
REMARK                         _______ _______ _______ _____ _____    ______ ____
ROOT
ATOM      1  C   UNL     1       4.828   6.490  16.712  0.00  0.00    +0.000 C 
ATOM      2  C   UNL     1       4.283   5.569  17.755  0.00  0.00    +0.000 A 
ATOM      3  C   UNL     1       4.654   4.251  17.953  0.00  0.00    +0.000 A 
ATOM      4  C   UNL     1       3.998   3.610  19.025  0.00  0.00    +0.000 A 
ATOM      5  C   UNL     1       3.075   4.479  19.664  0.00  0.00    +0.000 A 
ATOM      6  S   UNL     1       3.128   5.975  18.891  0.00  0.00    +0.000 S 
ENDROOT
BRANCH   4   7
ATOM      7  C   UNL     1       4.327   2.183  19.339  0.00  0.00    +0.000 C 
ATOM      8  O   UNL     1       3.768   1.302  18.704  0.00  0.00    +0.000 OA
BRANCH   7   9
ATOM      9  O   UNL     1       5.214   1.798  20.281  0.00  0.00    +0.000 OA
ATOM     10  H   UNL     1       6.047   1.358  20.107  0.00  0.00    +0.000 HD
ENDBRANCH   7   9
ENDBRANCH   4   7
BRANCH   5  11
ATOM     11  C   UNL     1       2.168   4.262  20.846  0.00  0.00    +0.000 C 
BRANCH  11  12
ATOM     12  C   UNL     1       1.278   3.035  20.609  0.00  0.00    +0.000 C 
BRANCH  12  13
ATOM     13  C   UNL     1       0.514   3.123  19.284  0.00  0.00    +0.000 C 
BRANCH  13  14
ATOM     14  N   UNL     1       0.780   1.937  18.474  0.00  0.00    +0.000 NA
ATOM     15  H   UNL     1       1.735   1.572  18.696  0.00  0.00    +0.000 HD
ATOM     16  H   UNL     1       0.763   2.206  17.465  0.00  0.00    +0.000 HD
ENDBRANCH  13  14
ENDBRANCH  12  13
ENDBRANCH  11  12
ENDBRANCH   5  11
TORSDOF 6
ENDMDL
MODEL 6
REMARK VINA RESULT:      -5.1      2.988      3.557
REMARK  Name = 
REMARK  7 active torsions:
REMARK  status: ('A' for Active; 'I' for Inactive)
REMARK    1  A    between atoms: C_1  and  C_2
REMARK    2  A    between atoms: C_4  and  C_5
REMARK    3  A    between atoms: C_5  and  O_7
REMARK    4  A    between atoms: C_8  and  C_9
REMARK    5  A    between atoms: C_9  and  C_10
REMARK    6  A    between atoms: C_10  and  C_11
REMARK    7  A    between atoms: C_11  and  N_12
REMARK                            x       y       z     vdW  Elec       q    Type
REMARK                         _______ _______ _______ _____ _____    ______ ____
ROOT
ATOM      1  C   UNL     1       6.317   3.850  14.643  0.00  0.00    +0.000 C 
ATOM      2  C   UNL     1       6.130   4.369  16.031  0.00  0.00    +0.000 A 
ATOM      3  C   UNL     1       7.118   4.888  16.849  0.00  0.00    +0.000 A 
ATOM      4  C   UNL     1       6.668   5.329  18.110  0.00  0.00    +0.000 A 
ATOM      5  C   UNL     1       5.272   5.125  18.264  0.00  0.00    +0.000 A 
ATOM      6  S   UNL     1       4.675   4.432  16.849  0.00  0.00    +0.000 S 
ENDROOT
BRANCH   4   7
ATOM      7  C   UNL     1       7.650   5.918  19.076  0.00  0.00    +0.000 C 
ATOM      8  O   UNL     1       8.262   6.922  18.745  0.00  0.00    +0.000 OA
BRANCH   7   9
ATOM      9  O   UNL     1       7.902   5.416  20.303  0.00  0.00    +0.000 OA
ATOM     10  H   UNL     1       8.764   5.391  20.722  0.00  0.00    +0.000 HD
ENDBRANCH   7   9
ENDBRANCH   4   7
BRANCH   5  11
ATOM     11  C   UNL     1       4.345   5.444  19.408  0.00  0.00    +0.000 C 
BRANCH  11  12
ATOM     12  C   UNL     1       2.887   5.393  18.932  0.00  0.00    +0.000 C 
BRANCH  12  13
ATOM     13  C   UNL     1       1.991   4.613  19.899  0.00  0.00    +0.000 C 
BRANCH  13  14
ATOM     14  N   UNL     1       2.342   4.941  21.279  0.00  0.00    +0.000 NA
ATOM     15  H   UNL     1       1.839   4.293  21.929  0.00  0.00    +0.000 HD
ATOM     16  H   UNL     1       2.025   5.915  21.485  0.00  0.00    +0.000 HD
ENDBRANCH  13  14
ENDBRANCH  12  13
ENDBRANCH  11  12
ENDBRANCH   5  11
TORSDOF 6
ENDMDL
MODEL 7
REMARK VINA RESULT:      -5.1      1.260      1.381
REMARK  Name = 
REMARK  7 active torsions:
REMARK  status: ('A' for Active; 'I' for Inactive)
REMARK    1  A    between atoms: C_1  and  C_2
REMARK    2  A    between atoms: C_4  and  C_5
REMARK    3  A    between atoms: C_5  and  O_7
REMARK    4  A    between atoms: C_8  and  C_9
REMARK    5  A    between atoms: C_9  and  C_10
REMARK    6  A    between atoms: C_10  and  C_11
REMARK    7  A    between atoms: C_11  and  N_12
REMARK                            x       y       z     vdW  Elec       q    Type
REMARK                         _______ _______ _______ _____ _____    ______ ____
ROOT
ATOM      1  C   UNL     1       5.882   6.298  16.096  0.00  0.00    +0.000 C 
ATOM      2  C   UNL     1       4.843   5.606  16.916  0.00  0.00    +0.000 A 
ATOM      3  C   UNL     1       4.551   4.253  16.891  0.00  0.00    +0.000 A 
ATOM      4  C   UNL     1       3.534   3.854  17.783  0.00  0.00    +0.000 A 
ATOM      5  C   UNL     1       3.020   4.957  18.514  0.00  0.00    +0.000 A 
ATOM      6  S   UNL     1       3.847   6.346  18.034  0.00  0.00    +0.000 S 
ENDROOT
BRANCH   4   7
ATOM      7  C   UNL     1       3.140   2.411  17.850  0.00  0.00    +0.000 C 
ATOM      8  O   UNL     1       1.992   2.106  17.565  0.00  0.00    +0.000 OA
BRANCH   7   9
ATOM      9  O   UNL     1       3.977   1.410  18.199  0.00  0.00    +0.000 OA
ATOM     10  H   UNL     1       4.227   1.188  19.097  0.00  0.00    +0.000 HD
ENDBRANCH   7   9
ENDBRANCH   4   7
BRANCH   5  11
ATOM     11  C   UNL     1       1.957   5.032  19.577  0.00  0.00    +0.000 C 
BRANCH  11  12
ATOM     12  C   UNL     1       2.427   4.303  20.843  0.00  0.00    +0.000 C 
BRANCH  12  13
ATOM     13  C   UNL     1       1.460   3.191  21.262  0.00  0.00    +0.000 C 
BRANCH  13  14
ATOM     14  N   UNL     1       0.469   2.971  20.213  0.00  0.00    +0.000 NA
ATOM     15  H   UNL     1       0.650   3.628  19.419  0.00  0.00    +0.000 HD
ATOM     16  H   UNL     1      -0.481   3.182  20.596  0.00  0.00    +0.000 HD
ENDBRANCH  13  14
ENDBRANCH  12  13
ENDBRANCH  11  12
ENDBRANCH   5  11
TORSDOF 6
ENDMDL
MODEL 8
REMARK VINA RESULT:      -5.1      0.893      1.317
REMARK  Name = 
REMARK  7 active torsions:
REMARK  status: ('A' for Active; 'I' for Inactive)
REMARK    1  A    between atoms: C_1  and  C_2
REMARK    2  A    between atoms: C_4  and  C_5
REMARK    3  A    between atoms: C_5  and  O_7
REMARK    4  A    between atoms: C_8  and  C_9
REMARK    5  A    between atoms: C_9  and  C_10
REMARK    6  A    between atoms: C_10  and  C_11
REMARK    7  A    between atoms: C_11  and  N_12
REMARK                            x       y       z     vdW  Elec       q    Type
REMARK                         _______ _______ _______ _____ _____    ______ ____
ROOT
ATOM      1  C   UNL     1       5.883   5.905  16.138  0.00  0.00    +0.000 C 
ATOM      2  C   UNL     1       4.819   5.309  17.000  0.00  0.00    +0.000 A 
ATOM      3  C   UNL     1       4.583   3.959  17.188  0.00  0.00    +0.000 A 
ATOM      4  C   UNL     1       3.525   3.663  18.073  0.00  0.00    +0.000 A 
ATOM      5  C   UNL     1       2.920   4.846  18.573  0.00  0.00    +0.000 A 
ATOM      6  S   UNL     1       3.721   6.174  17.914  0.00  0.00    +0.000 S 
ENDROOT
BRANCH   4   7
ATOM      7  C   UNL     1       3.185   2.233  18.360  0.00  0.00    +0.000 C 
ATOM      8  O   UNL     1       3.926   1.593  19.090  0.00  0.00    +0.000 OA
BRANCH   7   9
ATOM      9  O   UNL     1       2.099   1.598  17.870  0.00  0.00    +0.000 OA
ATOM     10  H   UNL     1       1.987   0.647  17.831  0.00  0.00    +0.000 HD
ENDBRANCH   7   9
ENDBRANCH   4   7
BRANCH   5  11
ATOM     11  C   UNL     1       1.785   5.044  19.543  0.00  0.00    +0.000 C 
BRANCH  11  12
ATOM     12  C   UNL     1       2.242   4.691  20.965  0.00  0.00    +0.000 C 
BRANCH  12  13
ATOM     13  C   UNL     1       1.671   3.350  21.438  0.00  0.00    +0.000 C 
BRANCH  13  14
ATOM     14  N   UNL     1       2.751   2.487  21.909  0.00  0.00    +0.000 NA
ATOM     15  H   UNL     1       2.592   2.249  22.915  0.00  0.00    +0.000 HD
ATOM     16  H   UNL     1       3.655   3.007  21.839  0.00  0.00    +0.000 HD
ENDBRANCH  13  14
ENDBRANCH  12  13
ENDBRANCH  11  12
ENDBRANCH   5  11
TORSDOF 6
ENDMDL
MODEL 9
REMARK VINA RESULT:      -5.1      3.727      5.506
REMARK  Name = 
REMARK  7 active torsions:
REMARK  status: ('A' for Active; 'I' for Inactive)
REMARK    1  A    between atoms: C_1  and  C_2
REMARK    2  A    between atoms: C_4  and  C_5
REMARK    3  A    between atoms: C_5  and  O_7
REMARK    4  A    between atoms: C_8  and  C_9
REMARK    5  A    between atoms: C_9  and  C_10
REMARK    6  A    between atoms: C_10  and  C_11
REMARK    7  A    between atoms: C_11  and  N_12
REMARK                            x       y       z     vdW  Elec       q    Type
REMARK                         _______ _______ _______ _____ _____    ______ ____
ROOT
ATOM      1  C   UNL     1       2.763   5.281  20.321  0.00  0.00    +0.000 C 
ATOM      2  C   UNL     1       3.799   5.346  19.247  0.00  0.00    +0.000 A 
ATOM      3  C   UNL     1       5.161   5.170  19.415  0.00  0.00    +0.000 A 
ATOM      4  C   UNL     1       5.918   5.261  18.228  0.00  0.00    +0.000 A 
ATOM      5  C   UNL     1       5.092   5.531  17.105  0.00  0.00    +0.000 A 
ATOM      6  S   UNL     1       3.494   5.628  17.629  0.00  0.00    +0.000 S 
ENDROOT
BRANCH   4   7
ATOM      7  C   UNL     1       7.403   5.078  18.288  0.00  0.00    +0.000 C 
ATOM      8  O   UNL     1       8.057   5.844  18.978  0.00  0.00    +0.000 OA
BRANCH   7   9
ATOM      9  O   UNL     1       8.075   4.109  17.630  0.00  0.00    +0.000 OA
ATOM     10  H   UNL     1       8.715   3.515  18.026  0.00  0.00    +0.000 HD
ENDBRANCH   7   9
ENDBRANCH   4   7
BRANCH   5  11
ATOM     11  C   UNL     1       5.428   5.695  15.646  0.00  0.00    +0.000 C 
BRANCH  11  12
ATOM     12  C   UNL     1       5.709   4.326  15.014  0.00  0.00    +0.000 C 
BRANCH  12  13
ATOM     13  C   UNL     1       6.646   4.429  13.806  0.00  0.00    +0.000 C 
BRANCH  13  14
ATOM     14  N   UNL     1       7.702   5.402  14.075  0.00  0.00    +0.000 NA
ATOM     15  H   UNL     1       7.386   6.059  14.826  0.00  0.00    +0.000 HD
ATOM     16  H   UNL     1       7.875   5.961  13.209  0.00  0.00    +0.000 HD
ENDBRANCH  13  14
ENDBRANCH  12  13
ENDBRANCH  11  12
ENDBRANCH   5  11
TORSDOF 6
ENDMDL
