MODEL 1
REMARK VINA RESULT:      -7.8      0.000      0.000
REMARK  Name = 
REMARK  14 active torsions:
REMARK  status: ('A' for Active; 'I' for Inactive)
REMARK    1  A    between atoms: C_1  and  C_2
REMARK    2  A    between atoms: C_2  and  O_3
REMARK    3  A    between atoms: O_3  and  C_4
REMARK    4  A    between atoms: C_4  and  C_5
REMARK    5  A    between atoms: C_5  and  C_6
REMARK    6  A    between atoms: C_12  and  C_13
REMARK    7  A    between atoms: C_13  and  O_14
REMARK    8  A    between atoms: O_14  and  C_15
REMARK    9  A    between atoms: C_15  and  C_17
REMARK   10  A    between atoms: C_22  and  N_23
REMARK   11  A    between atoms: C_24  and  C_26
REMARK   12  A    between atoms: C_26  and  C_27
REMARK   13  A    between atoms: C_27  and  C_28
REMARK   14  A    between atoms: C_27  and  C_29
REMARK                            x       y       z     vdW  Elec       q    Type
REMARK                         _______ _______ _______ _____ _____    ______ ____
ROOT
ATOM      1  O   UNL     1       1.935   7.449  19.417  0.00  0.00    +0.000 OA
ENDROOT
BRANCH   1   2
ATOM      2  C   UNL     1       2.824   6.561  18.902  0.00  0.00    +0.000 C 
ATOM      3  O   UNL     1       3.733   6.835  18.132  0.00  0.00    +0.000 OA
BRANCH   2   4
ATOM      4  C   UNL     1       2.555   5.183  19.380  0.00  0.00    +0.000 A 
ATOM      5  C   UNL     1       1.564   5.062  20.371  0.00  0.00    +0.000 A 
ATOM      6  C   UNL     1       1.175   3.808  20.841  0.00  0.00    +0.000 A 
ATOM      7  C   UNL     1       1.763   2.664  20.315  0.00  0.00    +0.000 A 
ATOM      8  C   UNL     1       2.723   2.770  19.305  0.00  0.00    +0.000 A 
ATOM      9  C   UNL     1       3.125   4.025  18.818  0.00  0.00    +0.000 A 
BRANCH   9  10
ATOM     10  N   UNL     1       4.092   4.096  17.785  0.00  0.00    +0.000 N 
ATOM     11  C   UNL     1       5.453   4.164  18.026  0.00  0.00    +0.000 C 
ATOM     12  O   UNL     1       5.978   4.091  19.136  0.00  0.00    +0.000 OA
ATOM     13  H   UNL     1       3.824   3.702  16.885  0.00  0.00    +0.000 HD
BRANCH  11  14
ATOM     14  C   UNL     1       6.297   4.301  16.772  0.00  0.00    +0.000 C 
BRANCH  14  15
ATOM     15  C   UNL     1       5.476   4.628  15.519  0.00  0.00    +0.000 C 
ATOM     16  C   UNL     1       5.382   6.136  15.276  0.00  0.00    +0.000 C 
ATOM     17  C   UNL     1       6.102   3.950  14.298  0.00  0.00    +0.000 C 
ENDBRANCH  14  15
ENDBRANCH  11  14
ENDBRANCH   9  10
ENDBRANCH   2   4
ENDBRANCH   1   2
BRANCH   1  18
ATOM     18  C   UNL     1       1.952   8.734  18.769  0.00  0.00    +0.000 C 
BRANCH  18  25
ATOM     19  C   UNL     1      -1.836  11.707  22.358  0.00  0.00    +0.000 A 
ATOM     20  N   UNL     1      -1.892  12.018  21.102  0.00  0.00    +0.000 NA
ATOM     21  N   UNL     1      -0.988  11.247  20.409  0.00  0.00    +0.000 N 
ATOM     22  C   UNL     1      -0.887  11.306  19.038  0.00  0.00    +0.000 A 
ATOM     23  O   UNL     1      -1.550  12.012  18.279  0.00  0.00    +0.000 OA
ATOM     24  C   UNL     1       0.130  10.390  18.484  0.00  0.00    +0.000 A 
ATOM     25  C   UNL     1       0.819   9.585  19.311  0.00  0.00    +0.000 A 
ATOM     26  N   UNL     1       0.615   9.522  20.678  0.00  0.00    +0.000 NA
ATOM     27  C   UNL     1      -0.260  10.355  21.143  0.00  0.00    +0.000 A 
ATOM     28  S   UNL     1      -0.691  10.473  22.821  0.00  0.00    +0.000 S 
BRANCH  19  29
ATOM     29  C   UNL     1      -2.749  12.299  23.382  0.00  0.00    +0.000 C 
BRANCH  29  30
ATOM     30  C   UNL     1      -3.840  13.061  22.643  0.00  0.00    +0.000 C 
BRANCH  30  31
ATOM     31  O   UNL     1      -5.042  12.296  22.621  0.00  0.00    +0.000 OA
BRANCH  31  33
ATOM     32  C   UNL     1      -6.953  12.729  24.004  0.00  0.00    +0.000 C 
ATOM     33  C   UNL     1      -6.180  13.146  22.771  0.00  0.00    +0.000 C 
ENDBRANCH  31  33
ENDBRANCH  30  31
ENDBRANCH  29  30
ENDBRANCH  19  29
ENDBRANCH  18  25
ENDBRANCH   1  18
TORSDOF 11
ENDMDL
MODEL 2
REMARK VINA RESULT:      -7.7      1.646      1.948
REMARK  Name = 
REMARK  14 active torsions:
REMARK  status: ('A' for Active; 'I' for Inactive)
REMARK    1  A    between atoms: C_1  and  C_2
REMARK    2  A    between atoms: C_2  and  O_3
REMARK    3  A    between atoms: O_3  and  C_4
REMARK    4  A    between atoms: C_4  and  C_5
REMARK    5  A    between atoms: C_5  and  C_6
REMARK    6  A    between atoms: C_12  and  C_13
REMARK    7  A    between atoms: C_13  and  O_14
REMARK    8  A    between atoms: O_14  and  C_15
REMARK    9  A    between atoms: C_15  and  C_17
REMARK   10  A    between atoms: C_22  and  N_23
REMARK   11  A    between atoms: C_24  and  C_26
REMARK   12  A    between atoms: C_26  and  C_27
REMARK   13  A    between atoms: C_27  and  C_28
REMARK   14  A    between atoms: C_27  and  C_29
REMARK                            x       y       z     vdW  Elec       q    Type
REMARK                         _______ _______ _______ _____ _____    ______ ____
ROOT
ATOM      1  O   UNL     1       2.110   7.296  20.126  0.00  0.00    +0.000 OA
ENDROOT
BRANCH   1   2
ATOM      2  C   UNL     1       2.444   6.324  19.240  0.00  0.00    +0.000 C 
ATOM      3  O   UNL     1       2.619   6.488  18.041  0.00  0.00    +0.000 OA
BRANCH   2   4
ATOM      4  C   UNL     1       2.565   5.002  19.902  0.00  0.00    +0.000 A 
ATOM      5  C   UNL     1       1.560   4.691  20.835  0.00  0.00    +0.000 A 
ATOM      6  C   UNL     1       1.529   3.447  21.463  0.00  0.00    +0.000 A 
ATOM      7  C   UNL     1       2.495   2.497  21.153  0.00  0.00    +0.000 A 
ATOM      8  C   UNL     1       3.478   2.781  20.201  0.00  0.00    +0.000 A 
ATOM      9  C   UNL     1       3.522   4.029  19.557  0.00  0.00    +0.000 A 
BRANCH   9  10
ATOM     10  N   UNL     1       4.525   4.279  18.588  0.00  0.00    +0.000 N 
ATOM     11  C   UNL     1       4.470   3.786  17.296  0.00  0.00    +0.000 C 
ATOM     12  O   UNL     1       3.528   3.154  16.822  0.00  0.00    +0.000 OA
ATOM     13  H   UNL     1       5.071   5.130  18.711  0.00  0.00    +0.000 HD
BRANCH  11  14
ATOM     14  C   UNL     1       5.685   4.125  16.453  0.00  0.00    +0.000 C 
BRANCH  14  15
ATOM     15  C   UNL     1       5.365   5.043  15.267  0.00  0.00    +0.000 C 
ATOM     16  C   UNL     1       5.562   6.519  15.617  0.00  0.00    +0.000 C 
ATOM     17  C   UNL     1       6.252   4.676  14.074  0.00  0.00    +0.000 C 
ENDBRANCH  14  15
ENDBRANCH  11  14
ENDBRANCH   9  10
ENDBRANCH   2   4
ENDBRANCH   1   2
BRANCH   1  18
ATOM     18  C   UNL     1       1.702   8.532  19.511  0.00  0.00    +0.000 C 
BRANCH  18  25
ATOM     19  C   UNL     1      -2.143  12.302  22.169  0.00  0.00    +0.000 A 
ATOM     20  N   UNL     1      -1.485  11.518  22.964  0.00  0.00    +0.000 NA
ATOM     21  N   UNL     1      -0.637  10.733  22.218  0.00  0.00    +0.000 N 
ATOM     22  C   UNL     1       0.246   9.859  22.808  0.00  0.00    +0.000 A 
ATOM     23  O   UNL     1       0.398   9.664  24.012  0.00  0.00    +0.000 OA
ATOM     24  C   UNL     1       1.079   9.121  21.836  0.00  0.00    +0.000 A 
ATOM     25  C   UNL     1       0.945   9.371  20.522  0.00  0.00    +0.000 A 
ATOM     26  N   UNL     1       0.086  10.322  19.999  0.00  0.00    +0.000 NA
ATOM     27  C   UNL     1      -0.653  10.933  20.867  0.00  0.00    +0.000 A 
ATOM     28  S   UNL     1      -1.810  12.163  20.461  0.00  0.00    +0.000 S 
BRANCH  19  29
ATOM     29  C   UNL     1      -3.091  13.346  22.662  0.00  0.00    +0.000 C 
BRANCH  29  30
ATOM     30  C   UNL     1      -4.249  12.634  23.346  0.00  0.00    +0.000 C 
BRANCH  30  31
ATOM     31  O   UNL     1      -5.282  12.364  22.402  0.00  0.00    +0.000 OA
BRANCH  31  33
ATOM     32  C   UNL     1      -7.000  12.973  23.961  0.00  0.00    +0.000 C 
ATOM     33  C   UNL     1      -6.388  13.246  22.603  0.00  0.00    +0.000 C 
ENDBRANCH  31  33
ENDBRANCH  30  31
ENDBRANCH  29  30
ENDBRANCH  19  29
ENDBRANCH  18  25
ENDBRANCH   1  18
TORSDOF 11
ENDMDL
MODEL 3
REMARK VINA RESULT:      -7.6      1.511      3.710
REMARK  Name = 
REMARK  14 active torsions:
REMARK  status: ('A' for Active; 'I' for Inactive)
REMARK    1  A    between atoms: C_1  and  C_2
REMARK    2  A    between atoms: C_2  and  O_3
REMARK    3  A    between atoms: O_3  and  C_4
REMARK    4  A    between atoms: C_4  and  C_5
REMARK    5  A    between atoms: C_5  and  C_6
REMARK    6  A    between atoms: C_12  and  C_13
REMARK    7  A    between atoms: C_13  and  O_14
REMARK    8  A    between atoms: O_14  and  C_15
REMARK    9  A    between atoms: C_15  and  C_17
REMARK   10  A    between atoms: C_22  and  N_23
REMARK   11  A    between atoms: C_24  and  C_26
REMARK   12  A    between atoms: C_26  and  C_27
REMARK   13  A    between atoms: C_27  and  C_28
REMARK   14  A    between atoms: C_27  and  C_29
REMARK                            x       y       z     vdW  Elec       q    Type
REMARK                         _______ _______ _______ _____ _____    ______ ____
ROOT
ATOM      1  O   UNL     1       2.361   6.841  18.163  0.00  0.00    +0.000 OA
ENDROOT
BRANCH   1   2
ATOM      2  C   UNL     1       3.444   6.130  18.567  0.00  0.00    +0.000 C 
ATOM      3  O   UNL     1       3.857   6.061  19.716  0.00  0.00    +0.000 OA
BRANCH   2   4
ATOM      4  C   UNL     1       4.097   5.437  17.430  0.00  0.00    +0.000 A 
ATOM      5  C   UNL     1       4.830   6.257  16.554  0.00  0.00    +0.000 A 
ATOM      6  C   UNL     1       5.547   5.705  15.493  0.00  0.00    +0.000 A 
ATOM      7  C   UNL     1       5.548   4.328  15.307  0.00  0.00    +0.000 A 
ATOM      8  C   UNL     1       4.852   3.500  16.192  0.00  0.00    +0.000 A 
ATOM      9  C   UNL     1       4.128   4.039  17.267  0.00  0.00    +0.000 A 
BRANCH   9  10
ATOM     10  N   UNL     1       3.443   3.170  18.153  0.00  0.00    +0.000 N 
ATOM     11  C   UNL     1       2.066   3.023  18.155  0.00  0.00    +0.000 C 
ATOM     12  O   UNL     1       1.299   3.553  17.355  0.00  0.00    +0.000 OA
ATOM     13  H   UNL     1       3.971   2.374  18.505  0.00  0.00    +0.000 HD
BRANCH  11  14
ATOM     14  C   UNL     1       1.547   2.089  19.233  0.00  0.00    +0.000 C 
BRANCH  14  15
ATOM     15  C   UNL     1       1.285   2.790  20.571  0.00  0.00    +0.000 C 
ATOM     16  C   UNL     1       2.506   2.737  21.492  0.00  0.00    +0.000 C 
ATOM     17  C   UNL     1       0.893   4.249  20.324  0.00  0.00    +0.000 C 
ENDBRANCH  14  15
ENDBRANCH  11  14
ENDBRANCH   9  10
ENDBRANCH   2   4
ENDBRANCH   1   2
BRANCH   1  18
ATOM     18  C   UNL     1       2.662   8.194  17.775  0.00  0.00    +0.000 C 
BRANCH  18  25
ATOM     19  C   UNL     1      -0.618  10.802  22.076  0.00  0.00    +0.000 A 
ATOM     20  N   UNL     1      -0.261  11.572  21.097  0.00  0.00    +0.000 NA
ATOM     21  N   UNL     1       0.462  10.835  20.188  0.00  0.00    +0.000 N 
ATOM     22  C   UNL     1       0.903  11.379  19.004  0.00  0.00    +0.000 A 
ATOM     23  O   UNL     1       0.726  12.530  18.609  0.00  0.00    +0.000 OA
ATOM     24  C   UNL     1       1.645  10.421  18.159  0.00  0.00    +0.000 A 
ATOM     25  C   UNL     1       1.796   9.151  18.571  0.00  0.00    +0.000 A 
ATOM     26  N   UNL     1       1.261   8.649  19.745  0.00  0.00    +0.000 NA
ATOM     27  C   UNL     1       0.641   9.513  20.480  0.00  0.00    +0.000 A 
ATOM     28  S   UNL     1      -0.113   9.132  21.998  0.00  0.00    +0.000 S 
BRANCH  19  29
ATOM     29  C   UNL     1      -1.490  11.266  23.197  0.00  0.00    +0.000 C 
BRANCH  29  30
ATOM     30  C   UNL     1      -2.042  12.632  22.818  0.00  0.00    +0.000 C 
BRANCH  30  31
ATOM     31  O   UNL     1      -3.458  12.563  22.667  0.00  0.00    +0.000 OA
BRANCH  31  33
ATOM     32  C   UNL     1      -5.081  13.776  23.950  0.00  0.00    +0.000 C 
ATOM     33  C   UNL     1      -4.101  12.622  23.942  0.00  0.00    +0.000 C 
ENDBRANCH  31  33
ENDBRANCH  30  31
ENDBRANCH  29  30
ENDBRANCH  19  29
ENDBRANCH  18  25
ENDBRANCH   1  18
TORSDOF 11
ENDMDL
MODEL 4
REMARK VINA RESULT:      -7.6      1.667      2.056
REMARK  Name = 
REMARK  14 active torsions:
REMARK  status: ('A' for Active; 'I' for Inactive)
REMARK    1  A    between atoms: C_1  and  C_2
REMARK    2  A    between atoms: C_2  and  O_3
REMARK    3  A    between atoms: O_3  and  C_4
REMARK    4  A    between atoms: C_4  and  C_5
REMARK    5  A    between atoms: C_5  and  C_6
REMARK    6  A    between atoms: C_12  and  C_13
REMARK    7  A    between atoms: C_13  and  O_14
REMARK    8  A    between atoms: O_14  and  C_15
REMARK    9  A    between atoms: C_15  and  C_17
REMARK   10  A    between atoms: C_22  and  N_23
REMARK   11  A    between atoms: C_24  and  C_26
REMARK   12  A    between atoms: C_26  and  C_27
REMARK   13  A    between atoms: C_27  and  C_28
REMARK   14  A    between atoms: C_27  and  C_29
REMARK                            x       y       z     vdW  Elec       q    Type
REMARK                         _______ _______ _______ _____ _____    ______ ____
ROOT
ATOM      1  O   UNL     1       2.351   7.166  20.157  0.00  0.00    +0.000 OA
ENDROOT
BRANCH   1   2
ATOM      2  C   UNL     1       2.969   6.308  19.307  0.00  0.00    +0.000 C 
ATOM      3  O   UNL     1       3.935   6.578  18.606  0.00  0.00    +0.000 OA
BRANCH   2   4
ATOM      4  C   UNL     1       2.321   4.974  19.313  0.00  0.00    +0.000 A 
ATOM      5  C   UNL     1       1.525   4.686  20.437  0.00  0.00    +0.000 A 
ATOM      6  C   UNL     1       0.807   3.494  20.516  0.00  0.00    +0.000 A 
ATOM      7  C   UNL     1       0.867   2.584  19.466  0.00  0.00    +0.000 A 
ATOM      8  C   UNL     1       1.626   2.875  18.329  0.00  0.00    +0.000 A 
ATOM      9  C   UNL     1       2.352   4.073  18.232  0.00  0.00    +0.000 A 
BRANCH   9  10
ATOM     10  N   UNL     1       3.102   4.342  17.059  0.00  0.00    +0.000 N 
ATOM     11  C   UNL     1       4.401   3.903  16.874  0.00  0.00    +0.000 C 
ATOM     12  O   UNL     1       5.017   3.176  17.651  0.00  0.00    +0.000 OA
ATOM     13  H   UNL     1       2.568   4.507  16.208  0.00  0.00    +0.000 HD
BRANCH  11  14
ATOM     14  C   UNL     1       5.030   4.364  15.573  0.00  0.00    +0.000 C 
BRANCH  14  15
ATOM     15  C   UNL     1       6.544   4.584  15.672  0.00  0.00    +0.000 C 
ATOM     16  C   UNL     1       7.179   4.821  14.299  0.00  0.00    +0.000 C 
ATOM     17  C   UNL     1       6.836   5.778  16.584  0.00  0.00    +0.000 C 
ENDBRANCH  14  15
ENDBRANCH  11  14
ENDBRANCH   9  10
ENDBRANCH   2   4
ENDBRANCH   1   2
BRANCH   1  18
ATOM     18  C   UNL     1       1.718   8.282  19.503  0.00  0.00    +0.000 C 
BRANCH  18  25
ATOM     19  C   UNL     1      -1.967  12.130  22.274  0.00  0.00    +0.000 A 
ATOM     20  N   UNL     1      -1.308  11.326  23.048  0.00  0.00    +0.000 NA
ATOM     21  N   UNL     1      -0.498  10.525  22.277  0.00  0.00    +0.000 N 
ATOM     22  C   UNL     1       0.377   9.627  22.841  0.00  0.00    +0.000 A 
ATOM     23  O   UNL     1       0.554   9.422  24.041  0.00  0.00    +0.000 OA
ATOM     24  C   UNL     1       1.168   8.874  21.846  0.00  0.00    +0.000 A 
ATOM     25  C   UNL     1       1.007   9.134  20.537  0.00  0.00    +0.000 A 
ATOM     26  N   UNL     1       0.159  10.108  20.039  0.00  0.00    +0.000 NA
ATOM     27  C   UNL     1      -0.543  10.732  20.928  0.00  0.00    +0.000 A 
ATOM     28  S   UNL     1      -1.680  11.991  20.557  0.00  0.00    +0.000 S 
BRANCH  19  29
ATOM     29  C   UNL     1      -2.876  13.194  22.795  0.00  0.00    +0.000 C 
BRANCH  29  30
ATOM     30  C   UNL     1      -4.203  13.069  22.062  0.00  0.00    +0.000 C 
BRANCH  30  31
ATOM     31  O   UNL     1      -5.176  12.466  22.911  0.00  0.00    +0.000 OA
BRANCH  31  33
ATOM     32  C   UNL     1      -7.453  12.468  23.666  0.00  0.00    +0.000 C 
ATOM     33  C   UNL     1      -6.386  13.228  22.907  0.00  0.00    +0.000 C 
ENDBRANCH  31  33
ENDBRANCH  30  31
ENDBRANCH  29  30
ENDBRANCH  19  29
ENDBRANCH  18  25
ENDBRANCH   1  18
TORSDOF 11
ENDMDL
MODEL 5
REMARK VINA RESULT:      -7.6      1.727      2.126
REMARK  Name = 
REMARK  14 active torsions:
REMARK  status: ('A' for Active; 'I' for Inactive)
REMARK    1  A    between atoms: C_1  and  C_2
REMARK    2  A    between atoms: C_2  and  O_3
REMARK    3  A    between atoms: O_3  and  C_4
REMARK    4  A    between atoms: C_4  and  C_5
REMARK    5  A    between atoms: C_5  and  C_6
REMARK    6  A    between atoms: C_12  and  C_13
REMARK    7  A    between atoms: C_13  and  O_14
REMARK    8  A    between atoms: O_14  and  C_15
REMARK    9  A    between atoms: C_15  and  C_17
REMARK   10  A    between atoms: C_22  and  N_23
REMARK   11  A    between atoms: C_24  and  C_26
REMARK   12  A    between atoms: C_26  and  C_27
REMARK   13  A    between atoms: C_27  and  C_28
REMARK   14  A    between atoms: C_27  and  C_29
REMARK                            x       y       z     vdW  Elec       q    Type
REMARK                         _______ _______ _______ _____ _____    ______ ____
ROOT
ATOM      1  O   UNL     1       1.614   7.280  19.821  0.00  0.00    +0.000 OA
ENDROOT
BRANCH   1   2
ATOM      2  C   UNL     1       2.623   6.538  19.299  0.00  0.00    +0.000 C 
ATOM      3  O   UNL     1       3.440   6.931  18.479  0.00  0.00    +0.000 OA
BRANCH   2   4
ATOM      4  C   UNL     1       2.618   5.157  19.840  0.00  0.00    +0.000 A 
ATOM      5  C   UNL     1       1.415   4.736  20.433  0.00  0.00    +0.000 A 
ATOM      6  C   UNL     1       1.270   3.434  20.908  0.00  0.00    +0.000 A 
ATOM      7  C   UNL     1       2.323   2.535  20.781  0.00  0.00    +0.000 A 
ATOM      8  C   UNL     1       3.511   2.930  20.161  0.00  0.00    +0.000 A 
ATOM      9  C   UNL     1       3.672   4.238  19.675  0.00  0.00    +0.000 A 
BRANCH   9  10
ATOM     10  N   UNL     1       4.886   4.603  19.040  0.00  0.00    +0.000 N 
ATOM     11  C   UNL     1       5.236   4.173  17.772  0.00  0.00    +0.000 C 
ATOM     12  O   UNL     1       4.517   3.508  17.029  0.00  0.00    +0.000 OA
ATOM     13  H   UNL     1       5.309   5.479  19.340  0.00  0.00    +0.000 HD
BRANCH  11  14
ATOM     14  C   UNL     1       6.610   4.633  17.321  0.00  0.00    +0.000 C 
BRANCH  14  15
ATOM     15  C   UNL     1       6.580   5.929  16.501  0.00  0.00    +0.000 C 
ATOM     16  C   UNL     1       5.243   6.116  15.778  0.00  0.00    +0.000 C 
ATOM     17  C   UNL     1       6.840   7.127  17.416  0.00  0.00    +0.000 C 
ENDBRANCH  14  15
ENDBRANCH  11  14
ENDBRANCH   9  10
ENDBRANCH   2   4
ENDBRANCH   1   2
BRANCH   1  18
ATOM     18  C   UNL     1       1.737   8.692  19.569  0.00  0.00    +0.000 C 
BRANCH  18  25
ATOM     19  C   UNL     1      -2.285  12.215  22.306  0.00  0.00    +0.000 A 
ATOM     20  N   UNL     1      -1.621  11.413  23.079  0.00  0.00    +0.000 NA
ATOM     21  N   UNL     1      -0.732  10.691  22.318  0.00  0.00    +0.000 N 
ATOM     22  C   UNL     1       0.163   9.816  22.887  0.00  0.00    +0.000 A 
ATOM     23  O   UNL     1       0.293   9.568  24.085  0.00  0.00    +0.000 OA
ATOM     24  C   UNL     1       1.042   9.151  21.903  0.00  0.00    +0.000 A 
ATOM     25  C   UNL     1       0.931   9.459  20.600  0.00  0.00    +0.000 A 
ATOM     26  N   UNL     1       0.055  10.408  20.101  0.00  0.00    +0.000 NA
ATOM     27  C   UNL     1      -0.723  10.954  20.978  0.00  0.00    +0.000 A 
ATOM     28  S   UNL     1      -1.908  12.167  20.601  0.00  0.00    +0.000 S 
BRANCH  19  29
ATOM     29  C   UNL     1      -3.276  13.205  22.824  0.00  0.00    +0.000 C 
BRANCH  29  30
ATOM     30  C   UNL     1      -3.756  12.713  24.181  0.00  0.00    +0.000 C 
BRANCH  30  31
ATOM     31  O   UNL     1      -5.068  12.169  24.068  0.00  0.00    +0.000 OA
BRANCH  31  33
ATOM     32  C   UNL     1      -7.197  12.635  23.068  0.00  0.00    +0.000 C 
ATOM     33  C   UNL     1      -6.023  13.206  23.834  0.00  0.00    +0.000 C 
ENDBRANCH  31  33
ENDBRANCH  30  31
ENDBRANCH  29  30
ENDBRANCH  19  29
ENDBRANCH  18  25
ENDBRANCH   1  18
TORSDOF 11
ENDMDL
MODEL 6
REMARK VINA RESULT:      -7.5      1.768      2.265
REMARK  Name = 
REMARK  14 active torsions:
REMARK  status: ('A' for Active; 'I' for Inactive)
REMARK    1  A    between atoms: C_1  and  C_2
REMARK    2  A    between atoms: C_2  and  O_3
REMARK    3  A    between atoms: O_3  and  C_4
REMARK    4  A    between atoms: C_4  and  C_5
REMARK    5  A    between atoms: C_5  and  C_6
REMARK    6  A    between atoms: C_12  and  C_13
REMARK    7  A    between atoms: C_13  and  O_14
REMARK    8  A    between atoms: O_14  and  C_15
REMARK    9  A    between atoms: C_15  and  C_17
REMARK   10  A    between atoms: C_22  and  N_23
REMARK   11  A    between atoms: C_24  and  C_26
REMARK   12  A    between atoms: C_26  and  C_27
REMARK   13  A    between atoms: C_27  and  C_28
REMARK   14  A    between atoms: C_27  and  C_29
REMARK                            x       y       z     vdW  Elec       q    Type
REMARK                         _______ _______ _______ _____ _____    ______ ____
ROOT
ATOM      1  O   UNL     1       3.005   6.543  18.698  0.00  0.00    +0.000 OA
ENDROOT
BRANCH   1   2
ATOM      2  C   UNL     1       2.307   5.399  18.481  0.00  0.00    +0.000 C 
ATOM      3  O   UNL     1       1.497   5.224  17.581  0.00  0.00    +0.000 OA
BRANCH   2   4
ATOM      4  C   UNL     1       2.635   4.362  19.489  0.00  0.00    +0.000 A 
ATOM      5  C   UNL     1       1.693   4.191  20.519  0.00  0.00    +0.000 A 
ATOM      6  C   UNL     1       1.859   3.194  21.479  0.00  0.00    +0.000 A 
ATOM      7  C   UNL     1       2.961   2.350  21.410  0.00  0.00    +0.000 A 
ATOM      8  C   UNL     1       3.885   2.487  20.370  0.00  0.00    +0.000 A 
ATOM      9  C   UNL     1       3.731   3.484  19.393  0.00  0.00    +0.000 A 
BRANCH   9  10
ATOM     10  N   UNL     1       4.680   3.588  18.346  0.00  0.00    +0.000 N 
ATOM     11  C   UNL     1       5.817   4.372  18.430  0.00  0.00    +0.000 C 
ATOM     12  O   UNL     1       6.173   4.994  19.428  0.00  0.00    +0.000 OA
ATOM     13  H   UNL     1       4.737   2.797  17.706  0.00  0.00    +0.000 HD
BRANCH  11  14
ATOM     14  C   UNL     1       6.655   4.383  17.165  0.00  0.00    +0.000 C 
BRANCH  14  15
ATOM     15  C   UNL     1       5.830   4.595  15.890  0.00  0.00    +0.000 C 
ATOM     16  C   UNL     1       5.211   5.994  15.836  0.00  0.00    +0.000 C 
ATOM     17  C   UNL     1       6.714   4.379  14.659  0.00  0.00    +0.000 C 
ENDBRANCH  14  15
ENDBRANCH  11  14
ENDBRANCH   9  10
ENDBRANCH   2   4
ENDBRANCH   1   2
BRANCH   1  18
ATOM     18  C   UNL     1       2.521   7.674  17.950  0.00  0.00    +0.000 C 
BRANCH  18  25
ATOM     19  C   UNL     1      -1.034  11.968  20.184  0.00  0.00    +0.000 A 
ATOM     20  N   UNL     1      -0.654  11.059  21.025  0.00  0.00    +0.000 NA
ATOM     21  N   UNL     1       0.164  10.162  20.378  0.00  0.00    +0.000 N 
ATOM     22  C   UNL     1       0.781   9.132  21.048  0.00  0.00    +0.000 A 
ATOM     23  O   UNL     1       0.698   8.877  22.248  0.00  0.00    +0.000 OA
ATOM     24  C   UNL     1       1.630   8.291  20.178  0.00  0.00    +0.000 A 
ATOM     25  C   UNL     1       1.757   8.600  18.876  0.00  0.00    +0.000 A 
ATOM     26  N   UNL     1       1.164   9.700  18.280  0.00  0.00    +0.000 NA
ATOM     27  C   UNL     1       0.403  10.402  19.055  0.00  0.00    +0.000 A 
ATOM     28  S   UNL     1      -0.452  11.825  18.544  0.00  0.00    +0.000 S 
BRANCH  19  29
ATOM     29  C   UNL     1      -1.864  13.145  20.581  0.00  0.00    +0.000 C 
BRANCH  29  30
ATOM     30  C   UNL     1      -3.261  12.636  20.907  0.00  0.00    +0.000 C 
BRANCH  30  31
ATOM     31  O   UNL     1      -3.932  12.250  19.711  0.00  0.00    +0.000 OA
BRANCH  31  33
ATOM     32  C   UNL     1      -5.760  12.618  21.220  0.00  0.00    +0.000 C 
ATOM     33  C   UNL     1      -5.314  12.610  19.773  0.00  0.00    +0.000 C 
ENDBRANCH  31  33
ENDBRANCH  30  31
ENDBRANCH  29  30
ENDBRANCH  19  29
ENDBRANCH  18  25
ENDBRANCH   1  18
TORSDOF 11
ENDMDL
MODEL 7
REMARK VINA RESULT:      -7.5      1.496      2.065
REMARK  Name = 
REMARK  14 active torsions:
REMARK  status: ('A' for Active; 'I' for Inactive)
REMARK    1  A    between atoms: C_1  and  C_2
REMARK    2  A    between atoms: C_2  and  O_3
REMARK    3  A    between atoms: O_3  and  C_4
REMARK    4  A    between atoms: C_4  and  C_5
REMARK    5  A    between atoms: C_5  and  C_6
REMARK    6  A    between atoms: C_12  and  C_13
REMARK    7  A    between atoms: C_13  and  O_14
REMARK    8  A    between atoms: O_14  and  C_15
REMARK    9  A    between atoms: C_15  and  C_17
REMARK   10  A    between atoms: C_22  and  N_23
REMARK   11  A    between atoms: C_24  and  C_26
REMARK   12  A    between atoms: C_26  and  C_27
REMARK   13  A    between atoms: C_27  and  C_28
REMARK   14  A    between atoms: C_27  and  C_29
REMARK                            x       y       z     vdW  Elec       q    Type
REMARK                         _______ _______ _______ _____ _____    ______ ____
ROOT
ATOM      1  O   UNL     1       2.304   6.054  18.232  0.00  0.00    +0.000 OA
ENDROOT
BRANCH   1   2
ATOM      2  C   UNL     1       1.863   4.774  18.133  0.00  0.00    +0.000 C 
ATOM      3  O   UNL     1       1.216   4.318  17.201  0.00  0.00    +0.000 OA
BRANCH   2   4
ATOM      4  C   UNL     1       2.253   3.971  19.318  0.00  0.00    +0.000 A 
ATOM      5  C   UNL     1       1.230   3.721  20.251  0.00  0.00    +0.000 A 
ATOM      6  C   UNL     1       1.462   2.915  21.364  0.00  0.00    +0.000 A 
ATOM      7  C   UNL     1       2.714   2.340  21.548  0.00  0.00    +0.000 A 
ATOM      8  C   UNL     1       3.727   2.551  20.609  0.00  0.00    +0.000 A 
ATOM      9  C   UNL     1       3.510   3.358  19.480  0.00  0.00    +0.000 A 
BRANCH   9  10
ATOM     10  N   UNL     1       4.555   3.542  18.541  0.00  0.00    +0.000 N 
ATOM     11  C   UNL     1       5.541   4.503  18.685  0.00  0.00    +0.000 C 
ATOM     12  O   UNL     1       5.672   5.239  19.660  0.00  0.00    +0.000 OA
ATOM     13  H   UNL     1       4.811   2.730  17.983  0.00  0.00    +0.000 HD
BRANCH  11  14
ATOM     14  C   UNL     1       6.519   4.562  17.526  0.00  0.00    +0.000 C 
BRANCH  14  15
ATOM     15  C   UNL     1       6.039   5.447  16.369  0.00  0.00    +0.000 C 
ATOM     16  C   UNL     1       5.182   4.667  15.371  0.00  0.00    +0.000 C 
ATOM     17  C   UNL     1       5.238   6.629  16.920  0.00  0.00    +0.000 C 
ENDBRANCH  14  15
ENDBRANCH  11  14
ENDBRANCH   9  10
ENDBRANCH   2   4
ENDBRANCH   1   2
BRANCH   1  18
ATOM     18  C   UNL     1       2.515   6.496  19.585  0.00  0.00    +0.000 C 
BRANCH  18  25
ATOM     19  C   UNL     1      -0.277  11.226  22.013  0.00  0.00    +0.000 A 
ATOM     20  N   UNL     1       0.144  11.385  20.798  0.00  0.00    +0.000 NA
ATOM     21  N   UNL     1       0.740  10.220  20.375  0.00  0.00    +0.000 N 
ATOM     22  C   UNL     1       1.209  10.073  19.090  0.00  0.00    +0.000 A 
ATOM     23  O   UNL     1       1.167  10.909  18.189  0.00  0.00    +0.000 OA
ATOM     24  C   UNL     1       1.799   8.744  18.828  0.00  0.00    +0.000 A 
ATOM     25  C   UNL     1       1.801   7.816  19.801  0.00  0.00    +0.000 A 
ATOM     26  N   UNL     1       1.243   8.006  21.053  0.00  0.00    +0.000 NA
ATOM     27  C   UNL     1       0.760   9.186  21.267  0.00  0.00    +0.000 A 
ATOM     28  S   UNL     1       0.011   9.672  22.757  0.00  0.00    +0.000 S 
BRANCH  19  29
ATOM     29  C   UNL     1      -1.049  12.273  22.747  0.00  0.00    +0.000 C 
BRANCH  29  30
ATOM     30  C   UNL     1      -2.334  11.633  23.251  0.00  0.00    +0.000 C 
BRANCH  30  31
ATOM     31  O   UNL     1      -3.376  12.604  23.304  0.00  0.00    +0.000 OA
BRANCH  31  33
ATOM     32  C   UNL     1      -4.060  14.119  21.576  0.00  0.00    +0.000 C 
ATOM     33  C   UNL     1      -4.054  12.681  22.049  0.00  0.00    +0.000 C 
ENDBRANCH  31  33
ENDBRANCH  30  31
ENDBRANCH  29  30
ENDBRANCH  19  29
ENDBRANCH  18  25
ENDBRANCH   1  18
TORSDOF 11
ENDMDL
MODEL 8
REMARK VINA RESULT:      -7.5      1.474      3.378
REMARK  Name = 
REMARK  14 active torsions:
REMARK  status: ('A' for Active; 'I' for Inactive)
REMARK    1  A    between atoms: C_1  and  C_2
REMARK    2  A    between atoms: C_2  and  O_3
REMARK    3  A    between atoms: O_3  and  C_4
REMARK    4  A    between atoms: C_4  and  C_5
REMARK    5  A    between atoms: C_5  and  C_6
REMARK    6  A    between atoms: C_12  and  C_13
REMARK    7  A    between atoms: C_13  and  O_14
REMARK    8  A    between atoms: O_14  and  C_15
REMARK    9  A    between atoms: C_15  and  C_17
REMARK   10  A    between atoms: C_22  and  N_23
REMARK   11  A    between atoms: C_24  and  C_26
REMARK   12  A    between atoms: C_26  and  C_27
REMARK   13  A    between atoms: C_27  and  C_28
REMARK   14  A    between atoms: C_27  and  C_29
REMARK                            x       y       z     vdW  Elec       q    Type
REMARK                         _______ _______ _______ _____ _____    ______ ____
ROOT
ATOM      1  O   UNL     1       2.848   7.568  18.812  0.00  0.00    +0.000 OA
ENDROOT
BRANCH   1   2
ATOM      2  C   UNL     1       3.014   6.396  18.148  0.00  0.00    +0.000 C 
ATOM      3  O   UNL     1       2.111   5.684  17.731  0.00  0.00    +0.000 OA
BRANCH   2   4
ATOM      4  C   UNL     1       4.450   6.059  17.991  0.00  0.00    +0.000 A 
ATOM      5  C   UNL     1       5.203   6.944  17.199  0.00  0.00    +0.000 A 
ATOM      6  C   UNL     1       6.577   6.770  17.042  0.00  0.00    +0.000 A 
ATOM      7  C   UNL     1       7.213   5.716  17.687  0.00  0.00    +0.000 A 
ATOM      8  C   UNL     1       6.482   4.850  18.506  0.00  0.00    +0.000 A 
ATOM      9  C   UNL     1       5.098   5.014  18.676  0.00  0.00    +0.000 A 
BRANCH   9  10
ATOM     10  N   UNL     1       4.389   4.125  19.523  0.00  0.00    +0.000 N 
ATOM     11  C   UNL     1       3.788   2.964  19.068  0.00  0.00    +0.000 C 
ATOM     12  O   UNL     1       3.866   2.533  17.919  0.00  0.00    +0.000 OA
ATOM     13  H   UNL     1       4.654   4.127  20.505  0.00  0.00    +0.000 HD
BRANCH  11  14
ATOM     14  C   UNL     1       3.028   2.201  20.137  0.00  0.00    +0.000 C 
BRANCH  14  15
ATOM     15  C   UNL     1       1.532   2.532  20.173  0.00  0.00    +0.000 C 
ATOM     16  C   UNL     1       1.269   3.933  20.730  0.00  0.00    +0.000 C 
ATOM     17  C   UNL     1       0.943   2.422  18.764  0.00  0.00    +0.000 C 
ENDBRANCH  14  15
ENDBRANCH  11  14
ENDBRANCH   9  10
ENDBRANCH   2   4
ENDBRANCH   1   2
BRANCH   1  18
ATOM     18  C   UNL     1       2.108   7.443  20.041  0.00  0.00    +0.000 C 
BRANCH  18  25
ATOM     19  C   UNL     1      -1.356  11.795  22.305  0.00  0.00    +0.000 A 
ATOM     20  N   UNL     1      -0.959  11.971  21.085  0.00  0.00    +0.000 NA
ATOM     21  N   UNL     1      -0.197  10.891  20.701  0.00  0.00    +0.000 N 
ATOM     22  C   UNL     1       0.293  10.770  19.422  0.00  0.00    +0.000 A 
ATOM     23  O   UNL     1       0.131  11.558  18.492  0.00  0.00    +0.000 OA
ATOM     24  C   UNL     1       1.072   9.534  19.206  0.00  0.00    +0.000 A 
ATOM     25  C   UNL     1       1.207   8.651  20.211  0.00  0.00    +0.000 A 
ATOM     26  N   UNL     1       0.623   8.801  21.457  0.00  0.00    +0.000 NA
ATOM     27  C   UNL     1      -0.029   9.904  21.630  0.00  0.00    +0.000 A 
ATOM     28  S   UNL     1      -0.846  10.327  23.103  0.00  0.00    +0.000 S 
BRANCH  19  29
ATOM     29  C   UNL     1      -2.276  12.742  23.003  0.00  0.00    +0.000 C 
BRANCH  29  30
ATOM     30  C   UNL     1      -3.537  12.868  22.161  0.00  0.00    +0.000 C 
BRANCH  30  31
ATOM     31  O   UNL     1      -4.642  12.281  22.843  0.00  0.00    +0.000 OA
BRANCH  31  33
ATOM     32  C   UNL     1      -6.644  12.690  24.099  0.00  0.00    +0.000 C 
ATOM     33  C   UNL     1      -5.319  13.258  23.636  0.00  0.00    +0.000 C 
ENDBRANCH  31  33
ENDBRANCH  30  31
ENDBRANCH  29  30
ENDBRANCH  19  29
ENDBRANCH  18  25
ENDBRANCH   1  18
TORSDOF 11
ENDMDL
MODEL 9
REMARK VINA RESULT:      -7.4      1.345      1.741
REMARK  Name = 
REMARK  14 active torsions:
REMARK  status: ('A' for Active; 'I' for Inactive)
REMARK    1  A    between atoms: C_1  and  C_2
REMARK    2  A    between atoms: C_2  and  O_3
REMARK    3  A    between atoms: O_3  and  C_4
REMARK    4  A    between atoms: C_4  and  C_5
REMARK    5  A    between atoms: C_5  and  C_6
REMARK    6  A    between atoms: C_12  and  C_13
REMARK    7  A    between atoms: C_13  and  O_14
REMARK    8  A    between atoms: O_14  and  C_15
REMARK    9  A    between atoms: C_15  and  C_17
REMARK   10  A    between atoms: C_22  and  N_23
REMARK   11  A    between atoms: C_24  and  C_26
REMARK   12  A    between atoms: C_26  and  C_27
REMARK   13  A    between atoms: C_27  and  C_28
REMARK   14  A    between atoms: C_27  and  C_29
REMARK                            x       y       z     vdW  Elec       q    Type
REMARK                         _______ _______ _______ _____ _____    ______ ____
ROOT
ATOM      1  O   UNL     1       2.558   7.218  19.258  0.00  0.00    +0.000 OA
ENDROOT
BRANCH   1   2
ATOM      2  C   UNL     1       3.056   6.132  18.614  0.00  0.00    +0.000 C 
ATOM      3  O   UNL     1       3.404   6.101  17.442  0.00  0.00    +0.000 OA
BRANCH   2   4
ATOM      4  C   UNL     1       3.122   4.951  19.509  0.00  0.00    +0.000 A 
ATOM      5  C   UNL     1       2.079   4.834  20.445  0.00  0.00    +0.000 A 
ATOM      6  C   UNL     1       1.996   3.726  21.287  0.00  0.00    +0.000 A 
ATOM      7  C   UNL     1       2.948   2.718  21.191  0.00  0.00    +0.000 A 
ATOM      8  C   UNL     1       3.968   2.805  20.241  0.00  0.00    +0.000 A 
ATOM      9  C   UNL     1       4.065   3.913  19.383  0.00  0.00    +0.000 A 
BRANCH   9  10
ATOM     10  N   UNL     1       5.105   3.964  18.422  0.00  0.00    +0.000 N 
ATOM     11  C   UNL     1       6.328   4.567  18.662  0.00  0.00    +0.000 C 
ATOM     12  O   UNL     1       6.678   5.047  19.738  0.00  0.00    +0.000 OA
ATOM     13  H   UNL     1       5.108   3.229  17.718  0.00  0.00    +0.000 HD
BRANCH  11  14
ATOM     14  C   UNL     1       7.265   4.560  17.469  0.00  0.00    +0.000 C 
BRANCH  14  15
ATOM     15  C   UNL     1       7.033   5.731  16.506  0.00  0.00    +0.000 C 
ATOM     16  C   UNL     1       5.900   5.443  15.519  0.00  0.00    +0.000 C 
ATOM     17  C   UNL     1       6.711   6.999  17.301  0.00  0.00    +0.000 C 
ENDBRANCH  14  15
ENDBRANCH  11  14
ENDBRANCH   9  10
ENDBRANCH   2   4
ENDBRANCH   1   2
BRANCH   1  18
ATOM     18  C   UNL     1       2.363   8.363  18.407  0.00  0.00    +0.000 C 
BRANCH  18  25
ATOM     19  C   UNL     1      -1.126  11.313  22.305  0.00  0.00    +0.000 A 
ATOM     20  N   UNL     1      -1.046  11.830  21.119  0.00  0.00    +0.000 NA
ATOM     21  N   UNL     1      -0.234  11.039  20.339  0.00  0.00    +0.000 N 
ATOM     22  C   UNL     1      -0.034  11.303  19.005  0.00  0.00    +0.000 A 
ATOM     23  O   UNL     1      -0.520  12.226  18.353  0.00  0.00    +0.000 OA
ATOM     24  C   UNL     1       0.857  10.330  18.341  0.00  0.00    +0.000 A 
ATOM     25  C   UNL     1       1.350   9.295  19.043  0.00  0.00    +0.000 A 
ATOM     26  N   UNL     1       1.046   9.045  20.370  0.00  0.00    +0.000 NA
ATOM     27  C   UNL     1       0.289   9.928  20.936  0.00  0.00    +0.000 A 
ATOM     28  S   UNL     1      -0.229   9.842  22.592  0.00  0.00    +0.000 S 
BRANCH  19  29
ATOM     29  C   UNL     1      -1.998  11.877  23.378  0.00  0.00    +0.000 C 
BRANCH  29  30
ATOM     30  C   UNL     1      -3.263  12.403  22.717  0.00  0.00    +0.000 C 
BRANCH  30  31
ATOM     31  O   UNL     1      -3.635  13.651  23.297  0.00  0.00    +0.000 OA
BRANCH  31  33
ATOM     32  C   UNL     1      -2.662  15.173  21.719  0.00  0.00    +0.000 C 
ATOM     33  C   UNL     1      -2.594  14.614  23.125  0.00  0.00    +0.000 C 
ENDBRANCH  31  33
ENDBRANCH  30  31
ENDBRANCH  29  30
ENDBRANCH  19  29
ENDBRANCH  18  25
ENDBRANCH   1  18
TORSDOF 11
ENDMDL
