MODEL 1
REMARK VINA RESULT:      -7.3      0.000      0.000
REMARK  Name = 
REMARK  3 active torsions:
REMARK  status: ('A' for Active; 'I' for Inactive)
REMARK    1  A    between atoms: C_1  and  N_2
REMARK    2  A    between atoms: N_15  and  C_16
REMARK    3  A    between atoms: C_27  and  C_28
REMARK                            x       y       z     vdW  Elec       q    Type
REMARK                         _______ _______ _______ _____ _____    ______ ____
ROOT
ATOM      1  C   UNL     1      -6.802  11.541  17.774  0.00  0.00    +0.000 C 
ATOM      2  N   UNL     1      -5.664  11.691  18.646  0.00  0.00    +0.000 N 
ATOM      3  C   UNL     1      -4.378  11.226  17.942  0.00  0.00    +0.000 C 
ATOM      4  C   UNL     1      -4.032  10.355  16.645  0.00  0.00    +0.000 C 
ATOM      5  C   UNL     1      -2.516   9.901  16.276  0.00  0.00    +0.000 C 
ATOM      6  C   UNL     1      -1.258  10.064  17.135  0.00  0.00    +0.000 C 
ATOM      7  C   UNL     1      -1.392  10.990  18.296  0.00  0.00    +0.000 C 
ATOM      8  O   UNL     1      -0.246  10.805  19.126  0.00  0.00    +0.000 OA
ATOM      9  C   UNL     1      -0.310  11.667  20.181  0.00  0.00    +0.000 A 
ATOM     10  C   UNL     1      -1.411  11.535  20.988  0.00  0.00    +0.000 A 
ATOM     11  C   UNL     1      -1.704  12.529  21.867  0.00  0.00    +0.000 A 
ATOM     12  C   UNL     1      -0.813  13.598  22.079  0.00  0.00    +0.000 A 
ATOM     13  C   UNL     1       0.342  13.639  21.352  0.00  0.00    +0.000 A 
ATOM     14  C   UNL     1       0.632  12.671  20.398  0.00  0.00    +0.000 A 
ATOM     15  N   UNL     1       1.841  12.779  19.647  0.00  0.00    +0.000 N 
ATOM     16  C   UNL     1       2.164  11.843  18.583  0.00  0.00    +0.000 C 
ATOM     17  C   UNL     1       2.753  13.793  19.910  0.00  0.00    +0.000 C 
ATOM     18  O   UNL     1       3.658  14.120  19.139  0.00  0.00    +0.000 OA
ATOM     19  C   UNL     1       2.673  14.385  21.280  0.00  0.00    +0.000 C 
ATOM     20  C   UNL     1       1.263  14.801  21.615  0.00  0.00    +0.000 C 
ATOM     21  N   UNL     1      -2.920  12.680  22.439  0.00  0.00    +0.000 N 
ATOM     22  C   UNL     1      -4.079  12.934  21.725  0.00  0.00    +0.000 A 
ATOM     23  C   UNL     1      -4.319  13.041  20.399  0.00  0.00    +0.000 A 
ATOM     24  C   UNL     1      -5.684  12.428  19.965  0.00  0.00    +0.000 A 
ATOM     25  N   UNL     1      -6.722  12.649  20.810  0.00  0.00    +0.000 NA
ATOM     26  C   UNL     1      -6.427  13.072  22.152  0.00  0.00    +0.000 A 
ATOM     27  C   UNL     1      -6.986  13.488  23.394  0.00  0.00    +0.000 A 
ATOM     28  C   UNL     1      -6.223  12.792  24.383  0.00  0.00    +0.000 A 
ATOM     29  N   UNL     1      -5.064  12.420  23.874  0.00  0.00    +0.000 NA
ATOM     30  N   UNL     1      -5.143  12.859  22.587  0.00  0.00    +0.000 N 
ATOM     31  H   UNL     1      -3.139  11.844  23.004  0.00  0.00    +0.000 HD
ENDROOT
BRANCH  27  32
ATOM     32  C   UNL     1      -7.439  14.795  23.840  0.00  0.00    +0.000 C 
ATOM     33  N   UNL     1      -7.551  15.936  24.101  0.00  0.00    +0.000 NA
ENDBRANCH  27  32
TORSDOF 1
ENDMDL
MODEL 2
REMARK VINA RESULT:      -7.1      2.427      7.153
REMARK  Name = 
REMARK  3 active torsions:
REMARK  status: ('A' for Active; 'I' for Inactive)
REMARK    1  A    between atoms: C_1  and  N_2
REMARK    2  A    between atoms: N_15  and  C_16
REMARK    3  A    between atoms: C_27  and  C_28
REMARK                            x       y       z     vdW  Elec       q    Type
REMARK                         _______ _______ _______ _____ _____    ______ ____
ROOT
ATOM      1  C   UNL     1       1.510  10.238  17.873  0.00  0.00    +0.000 C 
ATOM      2  N   UNL     1       0.600  11.110  18.575  0.00  0.00    +0.000 N 
ATOM      3  C   UNL     1      -0.858  10.714  18.288  0.00  0.00    +0.000 C 
ATOM      4  C   UNL     1      -1.608   9.811  17.200  0.00  0.00    +0.000 C 
ATOM      5  C   UNL     1      -3.228   9.746  17.084  0.00  0.00    +0.000 C 
ATOM      6  C   UNL     1      -4.251  10.613  17.825  0.00  0.00    +0.000 C 
ATOM      7  C   UNL     1      -3.715  11.389  18.980  0.00  0.00    +0.000 C 
ATOM      8  O   UNL     1      -4.715  12.332  19.364  0.00  0.00    +0.000 OA
ATOM      9  C   UNL     1      -4.278  13.036  20.448  0.00  0.00    +0.000 A 
ATOM     10  C   UNL     1      -3.116  13.741  20.267  0.00  0.00    +0.000 A 
ATOM     11  C   UNL     1      -2.460  14.215  21.359  0.00  0.00    +0.000 A 
ATOM     12  C   UNL     1      -3.035  14.142  22.641  0.00  0.00    +0.000 A 
ATOM     13  C   UNL     1      -4.256  13.548  22.776  0.00  0.00    +0.000 A 
ATOM     14  C   UNL     1      -4.917  12.994  21.686  0.00  0.00    +0.000 A 
ATOM     15  N   UNL     1      -6.179  12.360  21.890  0.00  0.00    +0.000 N 
ATOM     16  C   UNL     1      -6.882  11.694  20.806  0.00  0.00    +0.000 C 
ATOM     17  C   UNL     1      -6.778  12.355  23.143  0.00  0.00    +0.000 C 
ATOM     18  O   UNL     1      -7.702  11.603  23.459  0.00  0.00    +0.000 OA
ATOM     19  C   UNL     1      -6.334  13.442  24.067  0.00  0.00    +0.000 C 
ATOM     20  C   UNL     1      -4.831  13.495  24.168  0.00  0.00    +0.000 C 
ATOM     21  N   UNL     1      -1.162  14.596  21.337  0.00  0.00    +0.000 N 
ATOM     22  C   UNL     1      -0.114  13.738  21.048  0.00  0.00    +0.000 A 
ATOM     23  C   UNL     1      -0.085  12.434  20.691  0.00  0.00    +0.000 A 
ATOM     24  C   UNL     1       1.011  12.107  19.633  0.00  0.00    +0.000 A 
ATOM     25  N   UNL     1       2.201  12.736  19.804  0.00  0.00    +0.000 NA
ATOM     26  C   UNL     1       2.241  13.887  20.667  0.00  0.00    +0.000 A 
ATOM     27  C   UNL     1       3.083  14.868  21.264  0.00  0.00    +0.000 A 
ATOM     28  C   UNL     1       2.361  16.095  21.122  0.00  0.00    +0.000 A 
ATOM     29  N   UNL     1       1.078  15.840  20.943  0.00  0.00    +0.000 NA
ATOM     30  N   UNL     1       1.036  14.479  20.946  0.00  0.00    +0.000 N 
ATOM     31  H   UNL     1      -1.046  15.382  20.678  0.00  0.00    +0.000 HD
ENDROOT
BRANCH  27  32
ATOM     32  C   UNL     1       3.890  14.819  22.471  0.00  0.00    +0.000 C 
ATOM     33  N   UNL     1       4.459  14.506  23.452  0.00  0.00    +0.000 NA
ENDBRANCH  27  32
TORSDOF 1
ENDMDL
MODEL 3
REMARK VINA RESULT:      -6.9      2.542      5.382
REMARK  Name = 
REMARK  3 active torsions:
REMARK  status: ('A' for Active; 'I' for Inactive)
REMARK    1  A    between atoms: C_1  and  N_2
REMARK    2  A    between atoms: N_15  and  C_16
REMARK    3  A    between atoms: C_27  and  C_28
REMARK                            x       y       z     vdW  Elec       q    Type
REMARK                         _______ _______ _______ _____ _____    ______ ____
ROOT
ATOM      1  C   UNL     1      -7.430  14.504  24.201  0.00  0.00    +0.000 C 
ATOM      2  N   UNL     1      -6.308  14.396  23.301  0.00  0.00    +0.000 N 
ATOM      3  C   UNL     1      -5.229  15.434  23.655  0.00  0.00    +0.000 C 
ATOM      4  C   UNL     1      -5.167  16.766  24.539  0.00  0.00    +0.000 C 
ATOM      5  C   UNL     1      -3.869  17.744  24.558  0.00  0.00    +0.000 C 
ATOM      6  C   UNL     1      -2.630  17.665  23.660  0.00  0.00    +0.000 C 
ATOM      7  C   UNL     1      -2.473  16.393  22.897  0.00  0.00    +0.000 C 
ATOM      8  O   UNL     1      -1.449  16.601  21.924  0.00  0.00    +0.000 OA
ATOM      9  C   UNL     1      -1.246  15.445  21.231  0.00  0.00    +0.000 A 
ATOM     10  C   UNL     1      -2.337  14.956  20.560  0.00  0.00    +0.000 A 
ATOM     11  C   UNL     1      -2.308  13.677  20.101  0.00  0.00    +0.000 A 
ATOM     12  C   UNL     1      -1.127  12.914  20.154  0.00  0.00    +0.000 A 
ATOM     13  C   UNL     1      -0.013  13.470  20.713  0.00  0.00    +0.000 A 
ATOM     14  C   UNL     1      -0.036  14.752  21.250  0.00  0.00    +0.000 A 
ATOM     15  N   UNL     1       1.150  15.275  21.848  0.00  0.00    +0.000 N 
ATOM     16  C   UNL     1       1.169  16.575  22.495  0.00  0.00    +0.000 C 
ATOM     17  C   UNL     1       2.334  14.548  21.832  0.00  0.00    +0.000 C 
ATOM     18  O   UNL     1       3.300  14.793  22.556  0.00  0.00    +0.000 OA
ATOM     19  C   UNL     1       2.434  13.516  20.755  0.00  0.00    +0.000 C 
ATOM     20  C   UNL     1       1.226  12.615  20.745  0.00  0.00    +0.000 C 
ATOM     21  N   UNL     1      -3.418  12.986  19.759  0.00  0.00    +0.000 N 
ATOM     22  C   UNL     1      -4.433  12.672  20.647  0.00  0.00    +0.000 A 
ATOM     23  C   UNL     1      -4.618  12.973  21.952  0.00  0.00    +0.000 A 
ATOM     24  C   UNL     1      -6.104  13.271  22.314  0.00  0.00    +0.000 A 
ATOM     25  N   UNL     1      -7.026  12.473  21.718  0.00  0.00    +0.000 NA
ATOM     26  C   UNL     1      -6.621  11.711  20.567  0.00  0.00    +0.000 A 
ATOM     27  C   UNL     1      -7.029  10.740  19.609  0.00  0.00    +0.000 A 
ATOM     28  C   UNL     1      -6.531  11.235  18.362  0.00  0.00    +0.000 A 
ATOM     29  N   UNL     1      -5.545  12.084  18.580  0.00  0.00    +0.000 NA
ATOM     30  N   UNL     1      -5.473  12.123  19.939  0.00  0.00    +0.000 N 
ATOM     31  H   UNL     1      -3.893  13.466  18.978  0.00  0.00    +0.000 HD
ENDROOT
BRANCH  27  32
ATOM     32  C   UNL     1      -7.049   9.289  19.678  0.00  0.00    +0.000 C 
ATOM     33  N   UNL     1      -7.188   8.163  19.987  0.00  0.00    +0.000 NA
ENDBRANCH  27  32
TORSDOF 1
ENDMDL
MODEL 4
REMARK VINA RESULT:      -6.3      4.049      6.356
REMARK  Name = 
REMARK  3 active torsions:
REMARK  status: ('A' for Active; 'I' for Inactive)
REMARK    1  A    between atoms: C_1  and  N_2
REMARK    2  A    between atoms: N_15  and  C_16
REMARK    3  A    between atoms: C_27  and  C_28
REMARK                            x       y       z     vdW  Elec       q    Type
REMARK                         _______ _______ _______ _____ _____    ______ ____
ROOT
ATOM      1  C   UNL     1       3.194  18.406  20.855  0.00  0.00    +0.000 C 
ATOM      2  N   UNL     1       2.266  17.315  21.033  0.00  0.00    +0.000 N 
ATOM      3  C   UNL     1       2.554  16.191  20.023  0.00  0.00    +0.000 C 
ATOM      4  C   UNL     1       3.391  16.056  18.666  0.00  0.00    +0.000 C 
ATOM      5  C   UNL     1       3.339  14.724  17.736  0.00  0.00    +0.000 C 
ATOM      6  C   UNL     1       2.409  13.515  17.888  0.00  0.00    +0.000 C 
ATOM      7  C   UNL     1       1.686  13.426  19.189  0.00  0.00    +0.000 C 
ATOM      8  O   UNL     1       0.678  12.425  19.050  0.00  0.00    +0.000 OA
ATOM      9  C   UNL     1       0.018  12.283  20.235  0.00  0.00    +0.000 A 
ATOM     10  C   UNL     1      -0.604  13.410  20.706  0.00  0.00    +0.000 A 
ATOM     11  C   UNL     1      -1.020  13.439  22.000  0.00  0.00    +0.000 A 
ATOM     12  C   UNL     1      -0.975  12.285  22.803  0.00  0.00    +0.000 A 
ATOM     13  C   UNL     1      -0.467  11.136  22.269  0.00  0.00    +0.000 A 
ATOM     14  C   UNL     1       0.027  11.098  20.970  0.00  0.00    +0.000 A 
ATOM     15  N   UNL     1       0.572   9.877  20.471  0.00  0.00    +0.000 N 
ATOM     16  C   UNL     1       1.174   9.794  19.152  0.00  0.00    +0.000 C 
ATOM     17  C   UNL     1       0.547   8.721  21.240  0.00  0.00    +0.000 C 
ATOM     18  O   UNL     1       1.234   7.725  21.006  0.00  0.00    +0.000 OA
ATOM     19  C   UNL     1      -0.496   8.689  22.310  0.00  0.00    +0.000 C 
ATOM     20  C   UNL     1      -0.441   9.928  23.167  0.00  0.00    +0.000 C 
ATOM     21  N   UNL     1      -1.307  14.583  22.662  0.00  0.00    +0.000 N 
ATOM     22  C   UNL     1      -0.381  15.582  22.910  0.00  0.00    +0.000 A 
ATOM     23  C   UNL     1       0.919  15.717  22.559  0.00  0.00    +0.000 A 
ATOM     24  C   UNL     1       1.313  17.180  22.196  0.00  0.00    +0.000 A 
ATOM     25  N   UNL     1       0.771  18.146  22.979  0.00  0.00    +0.000 NA
ATOM     26  C   UNL     1      -0.365  17.803  23.793  0.00  0.00    +0.000 A 
ATOM     27  C   UNL     1      -1.278  18.273  24.780  0.00  0.00    +0.000 A 
ATOM     28  C   UNL     1      -2.554  17.795  24.344  0.00  0.00    +0.000 A 
ATOM     29  N   UNL     1      -2.393  16.774  23.524  0.00  0.00    +0.000 NA
ATOM     30  N   UNL     1      -1.039  16.660  23.443  0.00  0.00    +0.000 N 
ATOM     31  H   UNL     1      -2.090  15.064  22.191  0.00  0.00    +0.000 HD
ENDROOT
BRANCH  27  32
ATOM     32  C   UNL     1      -1.159  18.342  26.226  0.00  0.00    +0.000 C 
ATOM     33  N   UNL     1      -0.797  18.481  27.336  0.00  0.00    +0.000 NA
ENDBRANCH  27  32
TORSDOF 1
ENDMDL
MODEL 5
REMARK VINA RESULT:      -6.3      4.269      7.677
REMARK  Name = 
REMARK  3 active torsions:
REMARK  status: ('A' for Active; 'I' for Inactive)
REMARK    1  A    between atoms: C_1  and  N_2
REMARK    2  A    between atoms: N_15  and  C_16
REMARK    3  A    between atoms: C_27  and  C_28
REMARK                            x       y       z     vdW  Elec       q    Type
REMARK                         _______ _______ _______ _____ _____    ______ ____
ROOT
ATOM      1  C   UNL     1      -0.799   8.881  23.531  0.00  0.00    +0.000 C 
ATOM      2  N   UNL     1      -0.385   9.630  22.369  0.00  0.00    +0.000 N 
ATOM      3  C   UNL     1      -0.982  11.047  22.399  0.00  0.00    +0.000 C 
ATOM      4  C   UNL     1      -2.158  11.779  23.200  0.00  0.00    +0.000 C 
ATOM      5  C   UNL     1      -2.648  13.289  22.850  0.00  0.00    +0.000 C 
ATOM      6  C   UNL     1      -2.222  14.154  21.659  0.00  0.00    +0.000 C 
ATOM      7  C   UNL     1      -1.023  13.672  20.915  0.00  0.00    +0.000 C 
ATOM      8  O   UNL     1      -0.943  14.420  19.702  0.00  0.00    +0.000 OA
ATOM      9  C   UNL     1       0.168  14.037  19.010  0.00  0.00    +0.000 A 
ATOM     10  C   UNL     1       0.223  12.711  18.664  0.00  0.00    +0.000 A 
ATOM     11  C   UNL     1       1.407  12.190  18.247  0.00  0.00    +0.000 A 
ATOM     12  C   UNL     1       2.520  13.017  18.006  0.00  0.00    +0.000 A 
ATOM     13  C   UNL     1       2.401  14.357  18.237  0.00  0.00    +0.000 A 
ATOM     14  C   UNL     1       1.221  14.905  18.727  0.00  0.00    +0.000 A 
ATOM     15  N   UNL     1       1.161  16.309  18.976  0.00  0.00    +0.000 N 
ATOM     16  C   UNL     1      -0.015  16.930  19.562  0.00  0.00    +0.000 C 
ATOM     17  C   UNL     1       2.236  17.133  18.668  0.00  0.00    +0.000 C 
ATOM     18  O   UNL     1       2.372  18.277  19.104  0.00  0.00    +0.000 OA
ATOM     19  C   UNL     1       3.171  16.600  17.630  0.00  0.00    +0.000 C 
ATOM     20  C   UNL     1       3.618  15.200  17.963  0.00  0.00    +0.000 C 
ATOM     21  N   UNL     1       1.668  10.863  18.228  0.00  0.00    +0.000 N 
ATOM     22  C   UNL     1       1.686  10.066  19.360  0.00  0.00    +0.000 A 
ATOM     23  C   UNL     1       1.426  10.336  20.660  0.00  0.00    +0.000 A 
ATOM     24  C   UNL     1       0.678   9.183  21.393  0.00  0.00    +0.000 A 
ATOM     25  N   UNL     1       1.085   7.927  21.083  0.00  0.00    +0.000 NA
ATOM     26  C   UNL     1       1.861   7.741  19.886  0.00  0.00    +0.000 A 
ATOM     27  C   UNL     1       2.578   6.799  19.095  0.00  0.00    +0.000 A 
ATOM     28  C   UNL     1       2.196   7.096  17.749  0.00  0.00    +0.000 A 
ATOM     29  N   UNL     1       1.737   8.330  17.676  0.00  0.00    +0.000 NA
ATOM     30  N   UNL     1       1.812   8.758  18.967  0.00  0.00    +0.000 N 
ATOM     31  H   UNL     1       1.008  10.394  17.588  0.00  0.00    +0.000 HD
ENDROOT
BRANCH  27  32
ATOM     32  C   UNL     1       3.942   6.310  19.205  0.00  0.00    +0.000 C 
ATOM     33  N   UNL     1       4.933   5.677  19.185  0.00  0.00    +0.000 NA
ENDBRANCH  27  32
TORSDOF 1
ENDMDL
MODEL 6
REMARK VINA RESULT:      -6.2      6.615     11.371
REMARK  Name = 
REMARK  3 active torsions:
REMARK  status: ('A' for Active; 'I' for Inactive)
REMARK    1  A    between atoms: C_1  and  N_2
REMARK    2  A    between atoms: N_15  and  C_16
REMARK    3  A    between atoms: C_27  and  C_28
REMARK                            x       y       z     vdW  Elec       q    Type
REMARK                         _______ _______ _______ _____ _____    ______ ____
ROOT
ATOM      1  C   UNL     1       5.286  18.147  23.941  0.00  0.00    +0.000 C 
ATOM      2  N   UNL     1       5.801  17.552  22.733  0.00  0.00    +0.000 N 
ATOM      3  C   UNL     1       7.332  17.426  22.802  0.00  0.00    +0.000 C 
ATOM      4  C   UNL     1       8.494  18.051  23.709  0.00  0.00    +0.000 C 
ATOM      5  C   UNL     1      10.071  17.825  23.388  0.00  0.00    +0.000 C 
ATOM      6  C   UNL     1      10.685  17.169  22.147  0.00  0.00    +0.000 C 
ATOM      7  C   UNL     1       9.734  16.403  21.291  0.00  0.00    +0.000 C 
ATOM      8  O   UNL     1      10.402  16.109  20.065  0.00  0.00    +0.000 OA
ATOM      9  C   UNL     1       9.577  15.371  19.268  0.00  0.00    +0.000 A 
ATOM     10  C   UNL     1       8.386  15.965  18.938  0.00  0.00    +0.000 A 
ATOM     11  C   UNL     1       7.395  15.199  18.410  0.00  0.00    +0.000 A 
ATOM     12  C   UNL     1       7.628  13.860  18.044  0.00  0.00    +0.000 A 
ATOM     13  C   UNL     1       8.865  13.328  18.266  0.00  0.00    +0.000 A 
ATOM     14  C   UNL     1       9.876  14.071  18.866  0.00  0.00    +0.000 A 
ATOM     15  N   UNL     1      11.143  13.456  19.100  0.00  0.00    +0.000 N 
ATOM     16  C   UNL     1      12.212  14.152  19.793  0.00  0.00    +0.000 C 
ATOM     17  C   UNL     1      11.393  12.159  18.670  0.00  0.00    +0.000 C 
ATOM     18  O   UNL     1      12.333  11.471  19.073  0.00  0.00    +0.000 OA
ATOM     19  C   UNL     1      10.527  11.679  17.550  0.00  0.00    +0.000 C 
ATOM     20  C   UNL     1       9.067  11.893  17.856  0.00  0.00    +0.000 C 
ATOM     21  N   UNL     1       6.097  15.578  18.384  0.00  0.00    +0.000 N 
ATOM     22  C   UNL     1       5.343  15.817  19.521  0.00  0.00    +0.000 A 
ATOM     23  C   UNL     1       5.657  15.796  20.836  0.00  0.00    +0.000 A 
ATOM     24  C   UNL     1       4.950  16.914  21.659  0.00  0.00    +0.000 A 
ATOM     25  N   UNL     1       3.658  17.161  21.328  0.00  0.00    +0.000 NA
ATOM     26  C   UNL     1       3.179  16.678  20.061  0.00  0.00    +0.000 A 
ATOM     27  C   UNL     1       2.040  16.554  19.214  0.00  0.00    +0.000 A 
ATOM     28  C   UNL     1       2.524  16.887  17.910  0.00  0.00    +0.000 A 
ATOM     29  N   UNL     1       3.834  16.734  17.867  0.00  0.00    +0.000 NA
ATOM     30  N   UNL     1       4.136  16.344  19.136  0.00  0.00    +0.000 N 
ATOM     31  H   UNL     1       6.004  16.439  17.822  0.00  0.00    +0.000 HD
ENDROOT
BRANCH  27  32
ATOM     32  C   UNL     1       0.978  15.563  19.191  0.00  0.00    +0.000 C 
ATOM     33  N   UNL     1       0.076  14.850  19.440  0.00  0.00    +0.000 NA
ENDBRANCH  27  32
TORSDOF 1
ENDMDL
MODEL 7
REMARK VINA RESULT:      -6.2      3.400      7.701
REMARK  Name = 
REMARK  3 active torsions:
REMARK  status: ('A' for Active; 'I' for Inactive)
REMARK    1  A    between atoms: C_1  and  N_2
REMARK    2  A    between atoms: N_15  and  C_16
REMARK    3  A    between atoms: C_27  and  C_28
REMARK                            x       y       z     vdW  Elec       q    Type
REMARK                         _______ _______ _______ _____ _____    ______ ____
ROOT
ATOM      1  C   UNL     1       2.827  14.544  19.318  0.00  0.00    +0.000 C 
ATOM      2  N   UNL     1       1.504  14.310  19.843  0.00  0.00    +0.000 N 
ATOM      3  C   UNL     1       0.627  15.563  19.678  0.00  0.00    +0.000 C 
ATOM      4  C   UNL     1       0.887  17.111  19.369  0.00  0.00    +0.000 C 
ATOM      5  C   UNL     1      -0.293  18.227  19.435  0.00  0.00    +0.000 C 
ATOM      6  C   UNL     1      -1.726  18.039  19.943  0.00  0.00    +0.000 C 
ATOM      7  C   UNL     1      -2.162  16.623  20.118  0.00  0.00    +0.000 C 
ATOM      8  O   UNL     1      -3.388  16.640  20.848  0.00  0.00    +0.000 OA
ATOM      9  C   UNL     1      -3.843  15.362  20.993  0.00  0.00    +0.000 A 
ATOM     10  C   UNL     1      -3.000  14.505  21.653  0.00  0.00    +0.000 A 
ATOM     11  C   UNL     1      -3.234  13.168  21.578  0.00  0.00    +0.000 A 
ATOM     12  C   UNL     1      -4.408  12.667  20.985  0.00  0.00    +0.000 A 
ATOM     13  C   UNL     1      -5.296  13.552  20.448  0.00  0.00    +0.000 A 
ATOM     14  C   UNL     1      -5.048  14.920  20.451  0.00  0.00    +0.000 A 
ATOM     15  N   UNL     1      -5.999  15.798  19.850  0.00  0.00    +0.000 N 
ATOM     16  C   UNL     1      -5.761  17.228  19.751  0.00  0.00    +0.000 C 
ATOM     17  C   UNL     1      -7.191  15.308  19.332  0.00  0.00    +0.000 C 
ATOM     18  O   UNL     1      -7.916  15.940  18.561  0.00  0.00    +0.000 OA
ATOM     19  C   UNL     1      -7.639  13.997  19.891  0.00  0.00    +0.000 C 
ATOM     20  C   UNL     1      -6.538  12.969  19.826  0.00  0.00    +0.000 C 
ATOM     21  N   UNL     1      -2.300  12.234  21.870  0.00  0.00    +0.000 N 
ATOM     22  C   UNL     1      -1.111  12.091  21.175  0.00  0.00    +0.000 A 
ATOM     23  C   UNL     1      -0.571  12.793  20.153  0.00  0.00    +0.000 A 
ATOM     24  C   UNL     1       0.974  12.959  20.264  0.00  0.00    +0.000 A 
ATOM     25  N   UNL     1       1.652  11.869  20.703  0.00  0.00    +0.000 NA
ATOM     26  C   UNL     1       0.911  10.829  21.364  0.00  0.00    +0.000 A 
ATOM     27  C   UNL     1       0.987   9.534  21.951  0.00  0.00    +0.000 A 
ATOM     28  C   UNL     1       0.215   9.638  23.151  0.00  0.00    +0.000 A 
ATOM     29  N   UNL     1      -0.621  10.654  23.058  0.00  0.00    +0.000 NA
ATOM     30  N   UNL     1      -0.332  11.174  21.833  0.00  0.00    +0.000 N 
ATOM     31  H   UNL     1      -2.015  12.331  22.858  0.00  0.00    +0.000 HD
ENDROOT
BRANCH  27  32
ATOM     32  C   UNL     1       0.929   8.214  21.348  0.00  0.00    +0.000 C 
ATOM     33  N   UNL     1       1.127   7.108  20.999  0.00  0.00    +0.000 NA
ENDBRANCH  27  32
TORSDOF 1
ENDMDL
MODEL 8
REMARK VINA RESULT:      -6.2      1.527      1.672
REMARK  Name = 
REMARK  3 active torsions:
REMARK  status: ('A' for Active; 'I' for Inactive)
REMARK    1  A    between atoms: C_1  and  N_2
REMARK    2  A    between atoms: N_15  and  C_16
REMARK    3  A    between atoms: C_27  and  C_28
REMARK                            x       y       z     vdW  Elec       q    Type
REMARK                         _______ _______ _______ _____ _____    ______ ____
ROOT
ATOM      1  C   UNL     1      -6.372  12.259  18.911  0.00  0.00    +0.000 C 
ATOM      2  N   UNL     1      -5.079  12.487  19.510  0.00  0.00    +0.000 N 
ATOM      3  C   UNL     1      -3.979  11.771  18.710  0.00  0.00    +0.000 C 
ATOM      4  C   UNL     1      -3.934  10.618  17.600  0.00  0.00    +0.000 C 
ATOM      5  C   UNL     1      -2.543   9.963  17.076  0.00  0.00    +0.000 C 
ATOM      6  C   UNL     1      -1.135  10.188  17.638  0.00  0.00    +0.000 C 
ATOM      7  C   UNL     1      -0.996  11.346  18.567  0.00  0.00    +0.000 C 
ATOM      8  O   UNL     1       0.279  11.237  19.199  0.00  0.00    +0.000 OA
ATOM      9  C   UNL     1       0.462  12.304  20.029  0.00  0.00    +0.000 A 
ATOM     10  C   UNL     1      -0.465  12.444  21.029  0.00  0.00    +0.000 A 
ATOM     11  C   UNL     1      -0.533  13.623  21.701  0.00  0.00    +0.000 A 
ATOM     12  C   UNL     1       0.433  14.628  21.505  0.00  0.00    +0.000 A 
ATOM     13  C   UNL     1       1.425  14.411  20.594  0.00  0.00    +0.000 A 
ATOM     14  C   UNL     1       1.477  13.242  19.844  0.00  0.00    +0.000 A 
ATOM     15  N   UNL     1       2.521  13.080  18.884  0.00  0.00    +0.000 N 
ATOM     16  C   UNL     1       2.585  11.916  18.016  0.00  0.00    +0.000 C 
ATOM     17  C   UNL     1       3.515  14.040  18.746  0.00  0.00    +0.000 C 
ATOM     18  O   UNL     1       4.268  14.115  17.773  0.00  0.00    +0.000 OA
ATOM     19  C   UNL     1       3.731  14.912  19.941  0.00  0.00    +0.000 C 
ATOM     20  C   UNL     1       2.435  15.515  20.421  0.00  0.00    +0.000 C 
ATOM     21  N   UNL     1      -1.607  13.999  22.433  0.00  0.00    +0.000 N 
ATOM     22  C   UNL     1      -2.868  14.201  21.899  0.00  0.00    +0.000 A 
ATOM     23  C   UNL     1      -3.356  14.049  20.647  0.00  0.00    +0.000 A 
ATOM     24  C   UNL     1      -4.807  13.484  20.613  0.00  0.00    +0.000 A 
ATOM     25  N   UNL     1      -5.650  13.969  21.558  0.00  0.00    +0.000 NA
ATOM     26  C   UNL     1      -5.079  14.637  22.698  0.00  0.00    +0.000 A 
ATOM     27  C   UNL     1      -5.366  15.354  23.894  0.00  0.00    +0.000 A 
ATOM     28  C   UNL     1      -4.460  14.815  24.861  0.00  0.00    +0.000 A 
ATOM     29  N   UNL     1      -3.441  14.241  24.249  0.00  0.00    +0.000 NA
ATOM     30  N   UNL     1      -3.747  14.405  22.932  0.00  0.00    +0.000 N 
ATOM     31  H   UNL     1      -1.752  13.324  23.200  0.00  0.00    +0.000 HD
ENDROOT
BRANCH  27  32
ATOM     32  C   UNL     1      -5.659  16.760  24.110  0.00  0.00    +0.000 C 
ATOM     33  N   UNL     1      -5.707  17.870  24.497  0.00  0.00    +0.000 NA
ENDBRANCH  27  32
TORSDOF 1
ENDMDL
MODEL 9
REMARK VINA RESULT:      -6.1      1.694      1.845
REMARK  Name = 
REMARK  3 active torsions:
REMARK  status: ('A' for Active; 'I' for Inactive)
REMARK    1  A    between atoms: C_1  and  N_2
REMARK    2  A    between atoms: N_15  and  C_16
REMARK    3  A    between atoms: C_27  and  C_28
REMARK                            x       y       z     vdW  Elec       q    Type
REMARK                         _______ _______ _______ _____ _____    ______ ____
ROOT
ATOM      1  C   UNL     1      -6.919  11.877  18.735  0.00  0.00    +0.000 C 
ATOM      2  N   UNL     1      -5.705  12.385  19.326  0.00  0.00    +0.000 N 
ATOM      3  C   UNL     1      -4.475  11.705  18.700  0.00  0.00    +0.000 C 
ATOM      4  C   UNL     1      -4.214  10.399  17.813  0.00  0.00    +0.000 C 
ATOM      5  C   UNL     1      -2.720   9.867  17.458  0.00  0.00    +0.000 C 
ATOM      6  C   UNL     1      -1.389  10.382  18.016  0.00  0.00    +0.000 C 
ATOM      7  C   UNL     1      -1.459  11.689  18.730  0.00  0.00    +0.000 C 
ATOM      8  O   UNL     1      -0.219  11.872  19.411  0.00  0.00    +0.000 OA
ATOM      9  C   UNL     1      -0.226  13.079  20.045  0.00  0.00    +0.000 A 
ATOM     10  C   UNL     1      -1.219  13.255  20.974  0.00  0.00    +0.000 A 
ATOM     11  C   UNL     1      -1.482  14.509  21.426  0.00  0.00    +0.000 A 
ATOM     12  C   UNL     1      -0.650  15.593  21.087  0.00  0.00    +0.000 A 
ATOM     13  C   UNL     1       0.412  15.367  20.260  0.00  0.00    +0.000 A 
ATOM     14  C   UNL     1       0.663  14.106  19.731  0.00  0.00    +0.000 A 
ATOM     15  N   UNL     1       1.771  13.932  18.848  0.00  0.00    +0.000 N 
ATOM     16  C   UNL     1       2.039  12.659  18.201  0.00  0.00    +0.000 C 
ATOM     17  C   UNL     1       2.634  14.986  18.574  0.00  0.00    +0.000 C 
ATOM     18  O   UNL     1       3.423  15.000  17.628  0.00  0.00    +0.000 OA
ATOM     19  C   UNL     1       2.663  16.070  19.603  0.00  0.00    +0.000 C 
ATOM     20  C   UNL     1       1.274  16.556  19.927  0.00  0.00    +0.000 C 
ATOM     21  N   UNL     1      -2.635  14.849  22.045  0.00  0.00    +0.000 N 
ATOM     22  C   UNL     1      -3.881  14.776  21.444  0.00  0.00    +0.000 A 
ATOM     23  C   UNL     1      -4.272  14.345  20.223  0.00  0.00    +0.000 A 
ATOM     24  C   UNL     1      -5.631  13.583  20.243  0.00  0.00    +0.000 A 
ATOM     25  N   UNL     1      -6.583  14.098  21.061  0.00  0.00    +0.000 NA
ATOM     26  C   UNL     1      -6.171  15.024  22.082  0.00  0.00    +0.000 A 
ATOM     27  C   UNL     1      -6.618  15.887  23.123  0.00  0.00    +0.000 A 
ATOM     28  C   UNL     1      -5.704  15.654  24.198  0.00  0.00    +0.000 A 
ATOM     29  N   UNL     1      -4.585  15.135  23.730  0.00  0.00    +0.000 NA
ATOM     30  N   UNL     1      -4.836  15.027  22.396  0.00  0.00    +0.000 N 
ATOM     31  H   UNL     1      -2.732  14.301  22.914  0.00  0.00    +0.000 HD
ENDROOT
BRANCH  27  32
ATOM     32  C   UNL     1      -7.108  17.254  23.078  0.00  0.00    +0.000 C 
ATOM     33  N   UNL     1      -7.263  18.406  22.899  0.00  0.00    +0.000 NA
ENDBRANCH  27  32
TORSDOF 1
ENDMDL
