MODEL 1
REMARK VINA RESULT:      -6.7      0.000      0.000
REMARK  Name = 
REMARK  10 active torsions:
REMARK  status: ('A' for Active; 'I' for Inactive)
REMARK    1  A    between atoms: C_1  and  O_2
REMARK    2  A    between atoms: O_2  and  C_3
REMARK    3  A    between atoms: C_3  and  C_4
REMARK    4  A    between atoms: C_3  and  C_14
REMARK    5  A    between atoms: C_4  and  N_5
REMARK    6  A    between atoms: N_8  and  C_9
REMARK    7  A    between atoms: C_9  and  C_10
REMARK    8  A    between atoms: C_10  and  C_11
REMARK    9  A    between atoms: C_10  and  C_12
REMARK   10  A    between atoms: C_10  and  O_13
REMARK                            x       y       z     vdW  Elec       q    Type
REMARK                         _______ _______ _______ _____ _____    ______ ____
ROOT
ATOM      1  N   UNL     1       4.527   3.420  19.021  0.00  0.00    +0.000 N 
ATOM      2  C   UNL     1       5.443   4.320  18.554  0.00  0.00    +0.000 C 
ATOM      3  O   UNL     1       5.587   5.444  19.021  0.00  0.00    +0.000 OA
ATOM      4  N   UNL     1       6.148   3.838  17.488  0.00  0.00    +0.000 N 
ATOM      5  H   UNL     1       4.727   2.440  18.881  0.00  0.00    +0.000 HD
ATOM      6  H   UNL     1       5.836   2.984  17.053  0.00  0.00    +0.000 HD
ENDROOT
BRANCH   1   7
ATOM      7  C   UNL     1       3.688   3.771  20.158  0.00  0.00    +0.000 C 
BRANCH   7   8
ATOM      8  C   UNL     1       2.250   4.188  19.776  0.00  0.00    +0.000 C 
BRANCH   8   9
ATOM      9  C   UNL     1       2.125   5.689  19.570  0.00  0.00    +0.000 A 
ATOM     10  C   UNL     1       2.366   6.264  18.312  0.00  0.00    +0.000 A 
ATOM     11  C   UNL     1       2.246   7.645  18.126  0.00  0.00    +0.000 A 
ATOM     12  C   UNL     1       1.881   8.470  19.190  0.00  0.00    +0.000 A 
ATOM     13  C   UNL     1       1.634   7.909  20.439  0.00  0.00    +0.000 A 
ATOM     14 CL   UNL     1       1.171   8.915  21.757  0.00  0.00    +0.000 Cl
ATOM     15  C   UNL     1       1.754   6.536  20.632  0.00  0.00    +0.000 A 
ENDBRANCH   8   9
BRANCH   8  17
ATOM     16  C   UNL     1       0.851   2.498  18.790  0.00  0.00    +0.000 C 
ATOM     17  O   UNL     1       1.794   3.537  18.576  0.00  0.00    +0.000 OA
ENDBRANCH   8  17
ENDBRANCH   7   8
ENDBRANCH   1   7
BRANCH   4  18
ATOM     18  C   UNL     1       7.100   4.671  16.767  0.00  0.00    +0.000 C 
BRANCH  18  19
ATOM     19  C   UNL     1       6.639   5.033  15.332  0.00  0.00    +0.000 C 
ATOM     20  C   UNL     1       6.170   3.820  14.524  0.00  0.00    +0.000 C 
ATOM     21  C   UNL     1       5.514   6.069  15.398  0.00  0.00    +0.000 C 
BRANCH  19  22
ATOM     22  O   UNL     1       7.735   5.645  14.639  0.00  0.00    +0.000 OA
ATOM     23  H   UNL     1       7.892   6.506  15.066  0.00  0.00    +0.000 HD
ENDBRANCH  19  22
ENDBRANCH  18  19
ENDBRANCH   4  18
TORSDOF 7
ENDMDL
MODEL 2
REMARK VINA RESULT:      -6.7      3.619      7.332
REMARK  Name = 
REMARK  10 active torsions:
REMARK  status: ('A' for Active; 'I' for Inactive)
REMARK    1  A    between atoms: C_1  and  O_2
REMARK    2  A    between atoms: O_2  and  C_3
REMARK    3  A    between atoms: C_3  and  C_4
REMARK    4  A    between atoms: C_3  and  C_14
REMARK    5  A    between atoms: C_4  and  N_5
REMARK    6  A    between atoms: N_8  and  C_9
REMARK    7  A    between atoms: C_9  and  C_10
REMARK    8  A    between atoms: C_10  and  C_11
REMARK    9  A    between atoms: C_10  and  C_12
REMARK   10  A    between atoms: C_10  and  O_13
REMARK                            x       y       z     vdW  Elec       q    Type
REMARK                         _______ _______ _______ _____ _____    ______ ____
ROOT
ATOM      1  N   UNL     1       4.116   4.102  17.029  0.00  0.00    +0.000 N 
ATOM      2  C   UNL     1       4.105   3.964  18.388  0.00  0.00    +0.000 C 
ATOM      3  O   UNL     1       4.841   4.593  19.139  0.00  0.00    +0.000 OA
ATOM      4  N   UNL     1       3.210   3.021  18.807  0.00  0.00    +0.000 N 
ATOM      5  H   UNL     1       3.263   3.881  16.534  0.00  0.00    +0.000 HD
ATOM      6  H   UNL     1       2.786   2.421  18.117  0.00  0.00    +0.000 HD
ENDROOT
BRANCH   1   7
ATOM      7  C   UNL     1       5.013   5.068  16.411  0.00  0.00    +0.000 C 
BRANCH   7   8
ATOM      8  C   UNL     1       6.407   4.500  16.061  0.00  0.00    +0.000 C 
BRANCH   8   9
ATOM      9  C   UNL     1       6.633   4.427  14.559  0.00  0.00    +0.000 A 
ATOM     10  C   UNL     1       7.623   5.209  13.943  0.00  0.00    +0.000 A 
ATOM     11  C   UNL     1       7.832   5.136  12.563  0.00  0.00    +0.000 A 
ATOM     12  C   UNL     1       7.059   4.279  11.779  0.00  0.00    +0.000 A 
ATOM     13  C   UNL     1       6.080   3.494  12.380  0.00  0.00    +0.000 A 
ATOM     14 CL   UNL     1       5.129   2.425  11.425  0.00  0.00    +0.000 Cl
ATOM     15  C   UNL     1       5.866   3.565  13.753  0.00  0.00    +0.000 A 
ENDBRANCH   8   9
BRANCH   8  17
ATOM     16  C   UNL     1       7.771   4.969  17.985  0.00  0.00    +0.000 C 
ATOM     17  O   UNL     1       7.472   5.279  16.633  0.00  0.00    +0.000 OA
ENDBRANCH   8  17
ENDBRANCH   7   8
ENDBRANCH   1   7
BRANCH   4  18
ATOM     18  C   UNL     1       3.111   2.636  20.208  0.00  0.00    +0.000 C 
BRANCH  18  19
ATOM     19  C   UNL     1       1.889   3.258  20.932  0.00  0.00    +0.000 C 
ATOM     20  C   UNL     1       2.075   4.739  21.269  0.00  0.00    +0.000 C 
ATOM     21  C   UNL     1       0.636   3.084  20.071  0.00  0.00    +0.000 C 
BRANCH  19  22
ATOM     22  O   UNL     1       1.664   2.538  22.152  0.00  0.00    +0.000 OA
ATOM     23  H   UNL     1       2.511   2.530  22.634  0.00  0.00    +0.000 HD
ENDBRANCH  19  22
ENDBRANCH  18  19
ENDBRANCH   4  18
TORSDOF 7
ENDMDL
MODEL 3
REMARK VINA RESULT:      -6.6      3.469      7.197
REMARK  Name = 
REMARK  10 active torsions:
REMARK  status: ('A' for Active; 'I' for Inactive)
REMARK    1  A    between atoms: C_1  and  O_2
REMARK    2  A    between atoms: O_2  and  C_3
REMARK    3  A    between atoms: C_3  and  C_4
REMARK    4  A    between atoms: C_3  and  C_14
REMARK    5  A    between atoms: C_4  and  N_5
REMARK    6  A    between atoms: N_8  and  C_9
REMARK    7  A    between atoms: C_9  and  C_10
REMARK    8  A    between atoms: C_10  and  C_11
REMARK    9  A    between atoms: C_10  and  C_12
REMARK   10  A    between atoms: C_10  and  O_13
REMARK                            x       y       z     vdW  Elec       q    Type
REMARK                         _______ _______ _______ _____ _____    ______ ____
ROOT
ATOM      1  N   UNL     1       4.254   5.564  16.964  0.00  0.00    +0.000 N 
ATOM      2  C   UNL     1       3.911   5.412  18.278  0.00  0.00    +0.000 C 
ATOM      3  O   UNL     1       4.721   5.434  19.197  0.00  0.00    +0.000 OA
ATOM      4  N   UNL     1       2.573   5.194  18.444  0.00  0.00    +0.000 N 
ATOM      5  H   UNL     1       3.548   5.926  16.341  0.00  0.00    +0.000 HD
ATOM      6  H   UNL     1       2.013   5.004  17.628  0.00  0.00    +0.000 HD
ENDROOT
BRANCH   1   7
ATOM      7  C   UNL     1       5.645   5.805  16.607  0.00  0.00    +0.000 C 
BRANCH   7   8
ATOM      8  C   UNL     1       6.421   4.532  16.199  0.00  0.00    +0.000 C 
BRANCH   8   9
ATOM      9  C   UNL     1       6.687   4.481  14.703  0.00  0.00    +0.000 A 
ATOM     10  C   UNL     1       7.660   5.308  14.118  0.00  0.00    +0.000 A 
ATOM     11  C   UNL     1       7.905   5.254  12.742  0.00  0.00    +0.000 A 
ATOM     12  C   UNL     1       7.187   4.374  11.933  0.00  0.00    +0.000 A 
ATOM     13  C   UNL     1       6.227   3.545  12.504  0.00  0.00    +0.000 A 
ATOM     14 CL   UNL     1       5.343   2.447  11.516  0.00  0.00    +0.000 Cl
ATOM     15  C   UNL     1       5.975   3.595  13.871  0.00  0.00    +0.000 A 
ENDBRANCH   8   9
BRANCH   8  17
ATOM     16  C   UNL     1       7.784   5.192  18.067  0.00  0.00    +0.000 C 
ATOM     17  O   UNL     1       7.684   4.422  16.878  0.00  0.00    +0.000 OA
ENDBRANCH   8  17
ENDBRANCH   7   8
ENDBRANCH   1   7
BRANCH   4  18
ATOM     18  C   UNL     1       2.007   4.899  19.753  0.00  0.00    +0.000 C 
BRANCH  18  19
ATOM     19  C   UNL     1       1.697   3.395  19.965  0.00  0.00    +0.000 C 
ATOM     20  C   UNL     1       1.881   2.556  18.698  0.00  0.00    +0.000 C 
ATOM     21  C   UNL     1       2.585   2.838  21.080  0.00  0.00    +0.000 C 
BRANCH  19  22
ATOM     22  O   UNL     1       0.338   3.264  20.404  0.00  0.00    +0.000 OA
ATOM     23  H   UNL     1       0.082   4.124  20.785  0.00  0.00    +0.000 HD
ENDBRANCH  19  22
ENDBRANCH  18  19
ENDBRANCH   4  18
TORSDOF 7
ENDMDL
MODEL 4
REMARK VINA RESULT:      -6.5      3.515      7.340
REMARK  Name = 
REMARK  10 active torsions:
REMARK  status: ('A' for Active; 'I' for Inactive)
REMARK    1  A    between atoms: C_1  and  O_2
REMARK    2  A    between atoms: O_2  and  C_3
REMARK    3  A    between atoms: C_3  and  C_4
REMARK    4  A    between atoms: C_3  and  C_14
REMARK    5  A    between atoms: C_4  and  N_5
REMARK    6  A    between atoms: N_8  and  C_9
REMARK    7  A    between atoms: C_9  and  C_10
REMARK    8  A    between atoms: C_10  and  C_11
REMARK    9  A    between atoms: C_10  and  C_12
REMARK   10  A    between atoms: C_10  and  O_13
REMARK                            x       y       z     vdW  Elec       q    Type
REMARK                         _______ _______ _______ _____ _____    ______ ____
ROOT
ATOM      1  N   UNL     1       4.632   5.120  17.743  0.00  0.00    +0.000 N 
ATOM      2  C   UNL     1       3.755   4.073  17.785  0.00  0.00    +0.000 C 
ATOM      3  O   UNL     1       3.312   3.520  16.785  0.00  0.00    +0.000 OA
ATOM      4  N   UNL     1       3.401   3.743  19.062  0.00  0.00    +0.000 N 
ATOM      5  H   UNL     1       5.237   5.250  18.542  0.00  0.00    +0.000 HD
ATOM      6  H   UNL     1       3.663   4.367  19.809  0.00  0.00    +0.000 HD
ENDROOT
BRANCH   1   7
ATOM      7  C   UNL     1       5.116   5.603  16.457  0.00  0.00    +0.000 C 
BRANCH   7   8
ATOM      8  C   UNL     1       6.566   5.183  16.130  0.00  0.00    +0.000 C 
BRANCH   8   9
ATOM      9  C   UNL     1       6.751   4.873  14.653  0.00  0.00    +0.000 A 
ATOM     10  C   UNL     1       7.763   5.502  13.909  0.00  0.00    +0.000 A 
ATOM     11  C   UNL     1       7.934   5.212  12.552  0.00  0.00    +0.000 A 
ATOM     12  C   UNL     1       7.100   4.289  11.919  0.00  0.00    +0.000 A 
ATOM     13  C   UNL     1       6.099   3.655  12.649  0.00  0.00    +0.000 A 
ATOM     14 CL   UNL     1       5.073   2.506  11.882  0.00  0.00    +0.000 Cl
ATOM     15  C   UNL     1       5.923   3.942  13.999  0.00  0.00    +0.000 A 
ENDBRANCH   8   9
BRANCH   8  17
ATOM     16  C   UNL     1       6.994   7.251  17.279  0.00  0.00    +0.000 C 
ATOM     17  O   UNL     1       7.523   6.193  16.495  0.00  0.00    +0.000 OA
ENDBRANCH   8  17
ENDBRANCH   7   8
ENDBRANCH   1   7
BRANCH   4  18
ATOM     18  C   UNL     1       2.394   2.726  19.333  0.00  0.00    +0.000 C 
BRANCH  18  19
ATOM     19  C   UNL     1       1.297   3.195  20.323  0.00  0.00    +0.000 C 
ATOM     20  C   UNL     1       1.436   2.578  21.717  0.00  0.00    +0.000 C 
ATOM     21  C   UNL     1       1.323   4.721  20.436  0.00  0.00    +0.000 C 
BRANCH  19  22
ATOM     22  O   UNL     1       0.015   2.834  19.791  0.00  0.00    +0.000 OA
ATOM     23  H   UNL     1      -0.633   2.968  20.506  0.00  0.00    +0.000 HD
ENDBRANCH  19  22
ENDBRANCH  18  19
ENDBRANCH   4  18
TORSDOF 7
ENDMDL
MODEL 5
REMARK VINA RESULT:      -6.4      3.652      7.275
REMARK  Name = 
REMARK  10 active torsions:
REMARK  status: ('A' for Active; 'I' for Inactive)
REMARK    1  A    between atoms: C_1  and  O_2
REMARK    2  A    between atoms: O_2  and  C_3
REMARK    3  A    between atoms: C_3  and  C_4
REMARK    4  A    between atoms: C_3  and  C_14
REMARK    5  A    between atoms: C_4  and  N_5
REMARK    6  A    between atoms: N_8  and  C_9
REMARK    7  A    between atoms: C_9  and  C_10
REMARK    8  A    between atoms: C_10  and  C_11
REMARK    9  A    between atoms: C_10  and  C_12
REMARK   10  A    between atoms: C_10  and  O_13
REMARK                            x       y       z     vdW  Elec       q    Type
REMARK                         _______ _______ _______ _____ _____    ______ ____
ROOT
ATOM      1  N   UNL     1       3.972   4.459  16.826  0.00  0.00    +0.000 N 
ATOM      2  C   UNL     1       3.208   4.799  17.906  0.00  0.00    +0.000 C 
ATOM      3  O   UNL     1       3.360   5.833  18.545  0.00  0.00    +0.000 OA
ATOM      4  N   UNL     1       2.288   3.838  18.215  0.00  0.00    +0.000 N 
ATOM      5  H   UNL     1       3.558   3.842  16.142  0.00  0.00    +0.000 HD
ATOM      6  H   UNL     1       2.358   2.942  17.758  0.00  0.00    +0.000 HD
ENDROOT
BRANCH   1   7
ATOM      7  C   UNL     1       5.006   5.372  16.359  0.00  0.00    +0.000 C 
BRANCH   7   8
ATOM      8  C   UNL     1       6.368   4.696  16.085  0.00  0.00    +0.000 C 
BRANCH   8   9
ATOM      9  C   UNL     1       6.648   4.558  14.597  0.00  0.00    +0.000 A 
ATOM     10  C   UNL     1       7.613   5.363  13.970  0.00  0.00    +0.000 A 
ATOM     11  C   UNL     1       7.871   5.230  12.602  0.00  0.00    +0.000 A 
ATOM     12  C   UNL     1       7.173   4.291  11.842  0.00  0.00    +0.000 A 
ATOM     13  C   UNL     1       6.220   3.484  12.455  0.00  0.00    +0.000 A 
ATOM     14 CL   UNL     1       5.362   2.314  11.530  0.00  0.00    +0.000 Cl
ATOM     15  C   UNL     1       5.957   3.613  13.815  0.00  0.00    +0.000 A 
ENDBRANCH   8   9
BRANCH   8  17
ATOM     16  C   UNL     1       7.573   5.272  18.085  0.00  0.00    +0.000 C 
ATOM     17  O   UNL     1       7.463   5.416  16.677  0.00  0.00    +0.000 OA
ENDBRANCH   8  17
ENDBRANCH   7   8
ENDBRANCH   1   7
BRANCH   4  18
ATOM     18  C   UNL     1       1.441   3.946  19.395  0.00  0.00    +0.000 C 
BRANCH  18  19
ATOM     19  C   UNL     1       2.159   3.534  20.706  0.00  0.00    +0.000 C 
ATOM     20  C   UNL     1       1.261   2.748  21.665  0.00  0.00    +0.000 C 
ATOM     21  C   UNL     1       3.402   2.706  20.375  0.00  0.00    +0.000 C 
BRANCH  19  22
ATOM     22  O   UNL     1       2.609   4.721  21.375  0.00  0.00    +0.000 OA
ATOM     23  H   UNL     1       3.048   4.431  22.195  0.00  0.00    +0.000 HD
ENDBRANCH  19  22
ENDBRANCH  18  19
ENDBRANCH   4  18
TORSDOF 7
ENDMDL
MODEL 6
REMARK VINA RESULT:      -6.4      3.545      7.208
REMARK  Name = 
REMARK  10 active torsions:
REMARK  status: ('A' for Active; 'I' for Inactive)
REMARK    1  A    between atoms: C_1  and  O_2
REMARK    2  A    between atoms: O_2  and  C_3
REMARK    3  A    between atoms: C_3  and  C_4
REMARK    4  A    between atoms: C_3  and  C_14
REMARK    5  A    between atoms: C_4  and  N_5
REMARK    6  A    between atoms: N_8  and  C_9
REMARK    7  A    between atoms: C_9  and  C_10
REMARK    8  A    between atoms: C_10  and  C_11
REMARK    9  A    between atoms: C_10  and  C_12
REMARK   10  A    between atoms: C_10  and  O_13
REMARK                            x       y       z     vdW  Elec       q    Type
REMARK                         _______ _______ _______ _____ _____    ______ ____
ROOT
ATOM      1  N   UNL     1       4.481   5.885  17.546  0.00  0.00    +0.000 N 
ATOM      2  C   UNL     1       3.441   5.060  17.872  0.00  0.00    +0.000 C 
ATOM      3  O   UNL     1       2.902   4.302  17.074  0.00  0.00    +0.000 OA
ATOM      4  N   UNL     1       3.050   5.206  19.172  0.00  0.00    +0.000 N 
ATOM      5  H   UNL     1       5.106   6.158  18.291  0.00  0.00    +0.000 HD
ATOM      6  H   UNL     1       3.419   5.981  19.701  0.00  0.00    +0.000 HD
ENDROOT
BRANCH   1   7
ATOM      7  C   UNL     1       5.025   5.859  16.196  0.00  0.00    +0.000 C 
BRANCH   7   8
ATOM      8  C   UNL     1       6.204   4.877  16.011  0.00  0.00    +0.000 C 
BRANCH   8   9
ATOM      9  C   UNL     1       6.528   4.645  14.543  0.00  0.00    +0.000 A 
ATOM     10  C   UNL     1       7.554   5.367  13.912  0.00  0.00    +0.000 A 
ATOM     11  C   UNL     1       7.852   5.148  12.564  0.00  0.00    +0.000 A 
ATOM     12  C   UNL     1       7.135   4.204  11.828  0.00  0.00    +0.000 A 
ATOM     13  C   UNL     1       6.122   3.478  12.447  0.00  0.00    +0.000 A 
ATOM     14 CL   UNL     1       5.238   2.302  11.553  0.00  0.00    +0.000 Cl
ATOM     15  C   UNL     1       5.818   3.694  13.787  0.00  0.00    +0.000 A 
ENDBRANCH   8   9
BRANCH   8  17
ATOM     16  C   UNL     1       7.736   4.626  17.847  0.00  0.00    +0.000 C 
ATOM     17  O   UNL     1       7.402   5.333  16.663  0.00  0.00    +0.000 OA
ENDBRANCH   8  17
ENDBRANCH   7   8
ENDBRANCH   1   7
BRANCH   4  18
ATOM     18  C   UNL     1       1.890   4.501  19.701  0.00  0.00    +0.000 C 
BRANCH  18  19
ATOM     19  C   UNL     1       2.190   3.033  20.099  0.00  0.00    +0.000 C 
ATOM     20  C   UNL     1       3.680   2.759  20.316  0.00  0.00    +0.000 C 
ATOM     21  C   UNL     1       1.414   2.673  21.367  0.00  0.00    +0.000 C 
BRANCH  19  22
ATOM     22  O   UNL     1       1.716   2.170  19.056  0.00  0.00    +0.000 OA
ATOM     23  H   UNL     1       1.513   2.739  18.292  0.00  0.00    +0.000 HD
ENDBRANCH  19  22
ENDBRANCH  18  19
ENDBRANCH   4  18
TORSDOF 7
ENDMDL
MODEL 7
REMARK VINA RESULT:      -6.4      3.459      7.040
REMARK  Name = 
REMARK  10 active torsions:
REMARK  status: ('A' for Active; 'I' for Inactive)
REMARK    1  A    between atoms: C_1  and  O_2
REMARK    2  A    between atoms: O_2  and  C_3
REMARK    3  A    between atoms: C_3  and  C_4
REMARK    4  A    between atoms: C_3  and  C_14
REMARK    5  A    between atoms: C_4  and  N_5
REMARK    6  A    between atoms: N_8  and  C_9
REMARK    7  A    between atoms: C_9  and  C_10
REMARK    8  A    between atoms: C_10  and  C_11
REMARK    9  A    between atoms: C_10  and  C_12
REMARK   10  A    between atoms: C_10  and  O_13
REMARK                            x       y       z     vdW  Elec       q    Type
REMARK                         _______ _______ _______ _____ _____    ______ ____
ROOT
ATOM      1  N   UNL     1       5.719   3.569  17.342  0.00  0.00    +0.000 N 
ATOM      2  C   UNL     1       5.208   3.696  18.603  0.00  0.00    +0.000 C 
ATOM      3  O   UNL     1       5.628   4.499  19.427  0.00  0.00    +0.000 OA
ATOM      4  N   UNL     1       4.206   2.801  18.850  0.00  0.00    +0.000 N 
ATOM      5  H   UNL     1       5.104   3.208  16.628  0.00  0.00    +0.000 HD
ATOM      6  H   UNL     1       4.054   2.056  18.187  0.00  0.00    +0.000 HD
ENDROOT
BRANCH   1   7
ATOM      7  C   UNL     1       6.797   4.448  16.911  0.00  0.00    +0.000 C 
BRANCH   7   8
ATOM      8  C   UNL     1       6.373   5.497  15.860  0.00  0.00    +0.000 C 
BRANCH   8   9
ATOM      9  C   UNL     1       6.682   5.042  14.442  0.00  0.00    +0.000 A 
ATOM     10  C   UNL     1       7.737   5.621  13.717  0.00  0.00    +0.000 A 
ATOM     11  C   UNL     1       8.021   5.197  12.415  0.00  0.00    +0.000 A 
ATOM     12  C   UNL     1       7.261   4.189  11.821  0.00  0.00    +0.000 A 
ATOM     13  C   UNL     1       6.219   3.605  12.534  0.00  0.00    +0.000 A 
ATOM     14 CL   UNL     1       5.283   2.352  11.816  0.00  0.00    +0.000 Cl
ATOM     15  C   UNL     1       5.929   4.024  13.828  0.00  0.00    +0.000 A 
ENDBRANCH   8   9
BRANCH   8  17
ATOM     16  C   UNL     1       4.642   6.876  16.802  0.00  0.00    +0.000 C 
ATOM     17  O   UNL     1       4.969   5.804  15.931  0.00  0.00    +0.000 OA
ENDBRANCH   8  17
ENDBRANCH   7   8
ENDBRANCH   1   7
BRANCH   4  18
ATOM     18  C   UNL     1       3.593   2.688  20.166  0.00  0.00    +0.000 C 
BRANCH  18  19
ATOM     19  C   UNL     1       2.044   2.735  20.129  0.00  0.00    +0.000 C 
ATOM     20  C   UNL     1       1.401   2.588  21.511  0.00  0.00    +0.000 C 
ATOM     21  C   UNL     1       1.582   4.046  19.488  0.00  0.00    +0.000 C 
BRANCH  19  22
ATOM     22  O   UNL     1       1.573   1.669  19.293  0.00  0.00    +0.000 OA
ATOM     23  H   UNL     1       1.249   2.079  18.471  0.00  0.00    +0.000 HD
ENDBRANCH  19  22
ENDBRANCH  18  19
ENDBRANCH   4  18
TORSDOF 7
ENDMDL
MODEL 8
REMARK VINA RESULT:      -6.4      3.417      7.081
REMARK  Name = 
REMARK  10 active torsions:
REMARK  status: ('A' for Active; 'I' for Inactive)
REMARK    1  A    between atoms: C_1  and  O_2
REMARK    2  A    between atoms: O_2  and  C_3
REMARK    3  A    between atoms: C_3  and  C_4
REMARK    4  A    between atoms: C_3  and  C_14
REMARK    5  A    between atoms: C_4  and  N_5
REMARK    6  A    between atoms: N_8  and  C_9
REMARK    7  A    between atoms: C_9  and  C_10
REMARK    8  A    between atoms: C_10  and  C_11
REMARK    9  A    between atoms: C_10  and  C_12
REMARK   10  A    between atoms: C_10  and  O_13
REMARK                            x       y       z     vdW  Elec       q    Type
REMARK                         _______ _______ _______ _____ _____    ______ ____
ROOT
ATOM      1  N   UNL     1       4.054   5.649  17.099  0.00  0.00    +0.000 N 
ATOM      2  C   UNL     1       3.862   5.429  18.434  0.00  0.00    +0.000 C 
ATOM      3  O   UNL     1       4.750   5.530  19.272  0.00  0.00    +0.000 OA
ATOM      4  N   UNL     1       2.582   5.047  18.718  0.00  0.00    +0.000 N 
ATOM      5  H   UNL     1       3.252   5.936  16.557  0.00  0.00    +0.000 HD
ATOM      6  H   UNL     1       1.971   4.807  17.953  0.00  0.00    +0.000 HD
ENDROOT
BRANCH   1   7
ATOM      7  C   UNL     1       5.365   6.065  16.620  0.00  0.00    +0.000 C 
BRANCH   7   8
ATOM      8  C   UNL     1       6.336   4.895  16.345  0.00  0.00    +0.000 C 
BRANCH   8   9
ATOM      9  C   UNL     1       6.613   4.720  14.860  0.00  0.00    +0.000 A 
ATOM     10  C   UNL     1       7.681   5.393  14.245  0.00  0.00    +0.000 A 
ATOM     11  C   UNL     1       7.936   5.227  12.880  0.00  0.00    +0.000 A 
ATOM     12  C   UNL     1       7.132   4.384  12.112  0.00  0.00    +0.000 A 
ATOM     13  C   UNL     1       6.076   3.708  12.713  0.00  0.00    +0.000 A 
ATOM     14 CL   UNL     1       5.085   2.656  11.778  0.00  0.00    +0.000 Cl
ATOM     15  C   UNL     1       5.815   3.871  14.070  0.00  0.00    +0.000 A 
ENDBRANCH   8   9
BRANCH   8  17
ATOM     16  C   UNL     1       7.692   6.237  17.809  0.00  0.00    +0.000 C 
ATOM     17  O   UNL     1       7.598   5.065  17.014  0.00  0.00    +0.000 OA
ENDBRANCH   8  17
ENDBRANCH   7   8
ENDBRANCH   1   7
BRANCH   4  18
ATOM     18  C   UNL     1       2.185   4.657  20.064  0.00  0.00    +0.000 C 
BRANCH  18  19
ATOM     19  C   UNL     1       2.211   3.124  20.294  0.00  0.00    +0.000 C 
ATOM     20  C   UNL     1       1.438   2.686  21.540  0.00  0.00    +0.000 C 
ATOM     21  C   UNL     1       1.645   2.409  19.065  0.00  0.00    +0.000 C 
BRANCH  19  22
ATOM     22  O   UNL     1       3.576   2.705  20.434  0.00  0.00    +0.000 OA
ATOM     23  H   UNL     1       3.584   1.996  21.103  0.00  0.00    +0.000 HD
ENDBRANCH  19  22
ENDBRANCH  18  19
ENDBRANCH   4  18
TORSDOF 7
ENDMDL
MODEL 9
REMARK VINA RESULT:      -6.4      3.592      7.042
REMARK  Name = 
REMARK  10 active torsions:
REMARK  status: ('A' for Active; 'I' for Inactive)
REMARK    1  A    between atoms: C_1  and  O_2
REMARK    2  A    between atoms: O_2  and  C_3
REMARK    3  A    between atoms: C_3  and  C_4
REMARK    4  A    between atoms: C_3  and  C_14
REMARK    5  A    between atoms: C_4  and  N_5
REMARK    6  A    between atoms: N_8  and  C_9
REMARK    7  A    between atoms: C_9  and  C_10
REMARK    8  A    between atoms: C_10  and  C_11
REMARK    9  A    between atoms: C_10  and  C_12
REMARK   10  A    between atoms: C_10  and  O_13
REMARK                            x       y       z     vdW  Elec       q    Type
REMARK                         _______ _______ _______ _____ _____    ______ ____
ROOT
ATOM      1  N   UNL     1       5.495   3.513  17.262  0.00  0.00    +0.000 N 
ATOM      2  C   UNL     1       5.097   3.512  18.569  0.00  0.00    +0.000 C 
ATOM      3  O   UNL     1       5.681   4.122  19.456  0.00  0.00    +0.000 OA
ATOM      4  N   UNL     1       4.001   2.724  18.777  0.00  0.00    +0.000 N 
ATOM      5  H   UNL     1       4.787   3.345  16.562  0.00  0.00    +0.000 HD
ATOM      6  H   UNL     1       3.701   2.112  18.034  0.00  0.00    +0.000 HD
ENDROOT
BRANCH   1   7
ATOM      7  C   UNL     1       6.651   4.304  16.863  0.00  0.00    +0.000 C 
BRANCH   7   8
ATOM      8  C   UNL     1       6.332   5.412  15.834  0.00  0.00    +0.000 C 
BRANCH   8   9
ATOM      9  C   UNL     1       6.648   4.978  14.411  0.00  0.00    +0.000 A 
ATOM     10  C   UNL     1       7.699   5.575  13.696  0.00  0.00    +0.000 A 
ATOM     11  C   UNL     1       7.990   5.171  12.389  0.00  0.00    +0.000 A 
ATOM     12  C   UNL     1       7.241   4.164  11.781  0.00  0.00    +0.000 A 
ATOM     13  C   UNL     1       6.203   3.561  12.484  0.00  0.00    +0.000 A 
ATOM     14 CL   UNL     1       5.280   2.309  11.747  0.00  0.00    +0.000 Cl
ATOM     15  C   UNL     1       5.906   3.961  13.783  0.00  0.00    +0.000 A 
ENDBRANCH   8   9
BRANCH   8  17
ATOM     16  C   UNL     1       4.652   6.789  16.867  0.00  0.00    +0.000 C 
ATOM     17  O   UNL     1       4.952   5.816  15.877  0.00  0.00    +0.000 OA
ENDBRANCH   8  17
ENDBRANCH   7   8
ENDBRANCH   1   7
BRANCH   4  18
ATOM     18  C   UNL     1       3.473   2.493  20.115  0.00  0.00    +0.000 C 
BRANCH  18  19
ATOM     19  C   UNL     1       2.131   3.222  20.381  0.00  0.00    +0.000 C 
ATOM     20  C   UNL     1       1.145   3.119  19.215  0.00  0.00    +0.000 C 
ATOM     21  C   UNL     1       1.483   2.663  21.650  0.00  0.00    +0.000 C 
BRANCH  19  22
ATOM     22  O   UNL     1       2.404   4.609  20.625  0.00  0.00    +0.000 OA
ATOM     23  H   UNL     1       2.501   5.033  19.753  0.00  0.00    +0.000 HD
ENDBRANCH  19  22
ENDBRANCH  18  19
ENDBRANCH   4  18
TORSDOF 7
ENDMDL
