MODEL 1
REMARK VINA RESULT:      -8.1      0.000      0.000
REMARK  Name = 
REMARK  9 active torsions:
REMARK  status: ('A' for Active; 'I' for Inactive)
REMARK    1  A    between atoms: C_1  and  C_2
REMARK    2  A    between atoms: C_2  and  C_3
REMARK    3  A    between atoms: C_2  and  O_4
REMARK    4  A    between atoms: C_2  and  C_5
REMARK    5  A    between atoms: C_5  and  N_6
REMARK    6  A    between atoms: C_7  and  C_9
REMARK    7  A    between atoms: C_14  and  O_15
REMARK    8  A    between atoms: O_15  and  C_16
REMARK    9  A    between atoms: C_19  and  C_20
REMARK                            x       y       z     vdW  Elec       q    Type
REMARK                         _______ _______ _______ _____ _____    ______ ____
ROOT
ATOM      1  C   UNL     1       2.596   7.357  18.936  0.00  0.00    +0.000 A 
ATOM      2  C   UNL     1       2.627   8.103  17.765  0.00  0.00    +0.000 A 
ATOM      3  C   UNL     1       1.862   9.260  17.701  0.00  0.00    +0.000 A 
ATOM      4  C   UNL     1       1.086   9.639  18.803  0.00  0.00    +0.000 A 
ATOM      5  C   UNL     1       0.292  10.800  18.772  0.00  0.00    +0.000 A 
ATOM      6  C   UNL     1      -0.472  11.159  19.882  0.00  0.00    +0.000 A 
ATOM      7  C   UNL     1      -0.477  10.330  21.001  0.00  0.00    +0.000 A 
ATOM      8  C   UNL     1       0.329   9.186  21.033  0.00  0.00    +0.000 A 
ATOM      9  C   UNL     1       1.118   8.816  19.954  0.00  0.00    +0.000 A 
ATOM     10  N   UNL     1       1.861   7.697  20.032  0.00  0.00    +0.000 NA
ENDROOT
BRANCH   1  12
ATOM     11  N   UNL     1       4.130   5.775  17.886  0.00  0.00    +0.000 N 
ATOM     12  C   UNL     1       3.397   6.092  19.008  0.00  0.00    +0.000 C 
ATOM     13  O   UNL     1       3.386   5.400  20.023  0.00  0.00    +0.000 OA
ATOM     14  H   UNL     1       4.095   6.414  17.095  0.00  0.00    +0.000 HD
BRANCH  11  15
ATOM     15  C   UNL     1       4.958   4.584  17.800  0.00  0.00    +0.000 C 
BRANCH  15  17
ATOM     16  C   UNL     1       6.682   6.377  17.424  0.00  0.00    +0.000 C 
ATOM     17  C   UNL     1       6.404   4.872  17.335  0.00  0.00    +0.000 C 
ATOM     18  C   UNL     1       6.669   4.377  15.910  0.00  0.00    +0.000 C 
BRANCH  17  19
ATOM     19  O   UNL     1       7.310   4.204  18.225  0.00  0.00    +0.000 OA
ATOM     20  H   UNL     1       6.792   3.877  18.982  0.00  0.00    +0.000 HD
ENDBRANCH  17  19
ENDBRANCH  15  17
ENDBRANCH  11  15
ENDBRANCH   1  12
BRANCH   6  21
ATOM     21  O   UNL     1      -1.252  12.288  19.762  0.00  0.00    +0.000 OA
BRANCH  21  22
ATOM     22  C   UNL     1      -2.590  12.130  19.422  0.00  0.00    +0.000 A 
ATOM     23  C   UNL     1      -2.858  11.484  18.224  0.00  0.00    +0.000 A 
ATOM     24  C   UNL     1      -4.190  11.303  17.854  0.00  0.00    +0.000 A 
ATOM     25  C   UNL     1      -5.211  11.780  18.682  0.00  0.00    +0.000 A 
ATOM     26  C   UNL     1      -4.837  12.430  19.849  0.00  0.00    +0.000 A 
ATOM     27  N   UNL     1      -3.556  12.627  20.227  0.00  0.00    +0.000 NA
BRANCH  25  28
ATOM     28  C   UNL     1      -6.666  11.623  18.367  0.00  0.00    +0.000 C 
ATOM     29  F   UNL     1      -7.036  12.212  17.197  0.00  0.00    +0.000 F 
ATOM     30  F   UNL     1      -7.039  10.318  18.264  0.00  0.00    +0.000 F 
ATOM     31  F   UNL     1      -7.466  12.164  19.327  0.00  0.00    +0.000 F 
ENDBRANCH  25  28
ENDBRANCH  21  22
ENDBRANCH   6  21
TORSDOF 7
ENDMDL
MODEL 2
REMARK VINA RESULT:      -8.1      1.631      1.982
REMARK  Name = 
REMARK  9 active torsions:
REMARK  status: ('A' for Active; 'I' for Inactive)
REMARK    1  A    between atoms: C_1  and  C_2
REMARK    2  A    between atoms: C_2  and  C_3
REMARK    3  A    between atoms: C_2  and  O_4
REMARK    4  A    between atoms: C_2  and  C_5
REMARK    5  A    between atoms: C_5  and  N_6
REMARK    6  A    between atoms: C_7  and  C_9
REMARK    7  A    between atoms: C_14  and  O_15
REMARK    8  A    between atoms: O_15  and  C_16
REMARK    9  A    between atoms: C_19  and  C_20
REMARK                            x       y       z     vdW  Elec       q    Type
REMARK                         _______ _______ _______ _____ _____    ______ ____
ROOT
ATOM      1  C   UNL     1       2.488   7.213  19.209  0.00  0.00    +0.000 A 
ATOM      2  C   UNL     1       2.527   7.828  17.965  0.00  0.00    +0.000 A 
ATOM      3  C   UNL     1       1.784   8.987  17.780  0.00  0.00    +0.000 A 
ATOM      4  C   UNL     1       1.023   9.498  18.837  0.00  0.00    +0.000 A 
ATOM      5  C   UNL     1       0.251  10.664  18.685  0.00  0.00    +0.000 A 
ATOM      6  C   UNL     1      -0.498  11.156  19.753  0.00  0.00    +0.000 A 
ATOM      7  C   UNL     1      -0.512  10.451  20.955  0.00  0.00    +0.000 A 
ATOM      8  C   UNL     1       0.271   9.302  21.106  0.00  0.00    +0.000 A 
ATOM      9  C   UNL     1       1.046   8.802  20.070  0.00  0.00    +0.000 A 
ATOM     10  N   UNL     1       1.767   7.683  20.265  0.00  0.00    +0.000 NA
ENDROOT
BRANCH   1  12
ATOM     11  N   UNL     1       2.521   4.793  19.528  0.00  0.00    +0.000 N 
ATOM     12  C   UNL     1       3.265   5.947  19.414  0.00  0.00    +0.000 C 
ATOM     13  O   UNL     1       4.492   5.965  19.469  0.00  0.00    +0.000 OA
ATOM     14  H   UNL     1       1.509   4.866  19.454  0.00  0.00    +0.000 HD
BRANCH  11  15
ATOM     15  C   UNL     1       3.126   3.487  19.729  0.00  0.00    +0.000 C 
BRANCH  15  17
ATOM     16  C   UNL     1       2.599   3.202  17.285  0.00  0.00    +0.000 C 
ATOM     17  C   UNL     1       3.558   2.800  18.412  0.00  0.00    +0.000 C 
ATOM     18  C   UNL     1       3.604   1.274  18.537  0.00  0.00    +0.000 C 
BRANCH  17  19
ATOM     19  O   UNL     1       4.869   3.269  18.064  0.00  0.00    +0.000 OA
ATOM     20  H   UNL     1       5.180   3.840  18.788  0.00  0.00    +0.000 HD
ENDBRANCH  17  19
ENDBRANCH  15  17
ENDBRANCH  11  15
ENDBRANCH   1  12
BRANCH   6  21
ATOM     21  O   UNL     1      -1.257  12.281  19.516  0.00  0.00    +0.000 OA
BRANCH  21  22
ATOM     22  C   UNL     1      -2.619  12.121  19.292  0.00  0.00    +0.000 A 
ATOM     23  C   UNL     1      -3.475  12.675  20.232  0.00  0.00    +0.000 A 
ATOM     24  C   UNL     1      -4.849  12.540  20.036  0.00  0.00    +0.000 A 
ATOM     25  C   UNL     1      -5.325  11.850  18.916  0.00  0.00    +0.000 A 
ATOM     26  C   UNL     1      -4.386  11.317  18.046  0.00  0.00    +0.000 A 
ATOM     27  N   UNL     1      -3.051  11.425  18.217  0.00  0.00    +0.000 NA
BRANCH  25  28
ATOM     28  C   UNL     1      -6.781  11.664  18.623  0.00  0.00    +0.000 C 
ATOM     29  F   UNL     1      -7.239  12.457  17.616  0.00  0.00    +0.000 F 
ATOM     30  F   UNL     1      -7.080  10.386  18.259  0.00  0.00    +0.000 F 
ATOM     31  F   UNL     1      -7.567  11.937  19.701  0.00  0.00    +0.000 F 
ENDBRANCH  25  28
ENDBRANCH  21  22
ENDBRANCH   6  21
TORSDOF 7
ENDMDL
MODEL 3
REMARK VINA RESULT:      -7.9      0.711      1.265
REMARK  Name = 
REMARK  9 active torsions:
REMARK  status: ('A' for Active; 'I' for Inactive)
REMARK    1  A    between atoms: C_1  and  C_2
REMARK    2  A    between atoms: C_2  and  C_3
REMARK    3  A    between atoms: C_2  and  O_4
REMARK    4  A    between atoms: C_2  and  C_5
REMARK    5  A    between atoms: C_5  and  N_6
REMARK    6  A    between atoms: C_7  and  C_9
REMARK    7  A    between atoms: C_14  and  O_15
REMARK    8  A    between atoms: O_15  and  C_16
REMARK    9  A    between atoms: C_19  and  C_20
REMARK                            x       y       z     vdW  Elec       q    Type
REMARK                         _______ _______ _______ _____ _____    ______ ____
ROOT
ATOM      1  C   UNL     1       2.542   7.334  19.165  0.00  0.00    +0.000 A 
ATOM      2  C   UNL     1       2.595   7.999  17.947  0.00  0.00    +0.000 A 
ATOM      3  C   UNL     1       1.830   9.147  17.790  0.00  0.00    +0.000 A 
ATOM      4  C   UNL     1       1.032   9.597  18.848  0.00  0.00    +0.000 A 
ATOM      5  C   UNL     1       0.236  10.751  18.724  0.00  0.00    +0.000 A 
ATOM      6  C   UNL     1      -0.549  11.182  19.792  0.00  0.00    +0.000 A 
ATOM      7  C   UNL     1      -0.575  10.430  20.964  0.00  0.00    +0.000 A 
ATOM      8  C   UNL     1       0.232   9.293  21.089  0.00  0.00    +0.000 A 
ATOM      9  C   UNL     1       1.043   8.854  20.052  0.00  0.00    +0.000 A 
ATOM     10  N   UNL     1       1.786   7.744  20.220  0.00  0.00    +0.000 NA
ENDROOT
BRANCH   1  12
ATOM     11  N   UNL     1       4.620   6.099  18.818  0.00  0.00    +0.000 N 
ATOM     12  C   UNL     1       3.344   6.079  19.338  0.00  0.00    +0.000 C 
ATOM     13  O   UNL     1       2.869   5.105  19.918  0.00  0.00    +0.000 OA
ATOM     14  H   UNL     1       4.939   6.953  18.368  0.00  0.00    +0.000 HD
BRANCH  11  15
ATOM     15  C   UNL     1       5.521   4.963  18.906  0.00  0.00    +0.000 C 
BRANCH  15  17
ATOM     16  C   UNL     1       6.844   6.207  17.165  0.00  0.00    +0.000 C 
ATOM     17  C   UNL     1       6.449   4.817  17.678  0.00  0.00    +0.000 C 
ATOM     18  C   UNL     1       5.802   4.011  16.548  0.00  0.00    +0.000 C 
BRANCH  17  19
ATOM     19  O   UNL     1       7.647   4.143  18.091  0.00  0.00    +0.000 OA
ATOM     20  H   UNL     1       8.087   3.806  17.291  0.00  0.00    +0.000 HD
ENDBRANCH  17  19
ENDBRANCH  15  17
ENDBRANCH  11  15
ENDBRANCH   1  12
BRANCH   6  21
ATOM     21  O   UNL     1      -1.329  12.297  19.581  0.00  0.00    +0.000 OA
BRANCH  21  22
ATOM     22  C   UNL     1      -2.694  12.121  19.387  0.00  0.00    +0.000 A 
ATOM     23  C   UNL     1      -3.536  12.660  20.348  0.00  0.00    +0.000 A 
ATOM     24  C   UNL     1      -4.912  12.506  20.183  0.00  0.00    +0.000 A 
ATOM     25  C   UNL     1      -5.403  11.814  19.072  0.00  0.00    +0.000 A 
ATOM     26  C   UNL     1      -4.477  11.296  18.178  0.00  0.00    +0.000 A 
ATOM     27  N   UNL     1      -3.141  11.421  18.320  0.00  0.00    +0.000 NA
BRANCH  25  28
ATOM     28  C   UNL     1      -6.863  11.609  18.811  0.00  0.00    +0.000 C 
ATOM     29  F   UNL     1      -7.636  11.722  19.925  0.00  0.00    +0.000 F 
ATOM     30  F   UNL     1      -7.364  12.505  17.916  0.00  0.00    +0.000 F 
ATOM     31  F   UNL     1      -7.130  10.377  18.295  0.00  0.00    +0.000 F 
ENDBRANCH  25  28
ENDBRANCH  21  22
ENDBRANCH   6  21
TORSDOF 7
ENDMDL
MODEL 4
REMARK VINA RESULT:      -7.9      5.615     10.677
REMARK  Name = 
REMARK  9 active torsions:
REMARK  status: ('A' for Active; 'I' for Inactive)
REMARK    1  A    between atoms: C_1  and  C_2
REMARK    2  A    between atoms: C_2  and  C_3
REMARK    3  A    between atoms: C_2  and  O_4
REMARK    4  A    between atoms: C_2  and  C_5
REMARK    5  A    between atoms: C_5  and  N_6
REMARK    6  A    between atoms: C_7  and  C_9
REMARK    7  A    between atoms: C_14  and  O_15
REMARK    8  A    between atoms: O_15  and  C_16
REMARK    9  A    between atoms: C_19  and  C_20
REMARK                            x       y       z     vdW  Elec       q    Type
REMARK                         _______ _______ _______ _____ _____    ______ ____
ROOT
ATOM      1  C   UNL     1       1.561   8.521  19.201  0.00  0.00    +0.000 A 
ATOM      2  C   UNL     1       2.118   9.081  18.059  0.00  0.00    +0.000 A 
ATOM      3  C   UNL     1       3.223   8.458  17.493  0.00  0.00    +0.000 A 
ATOM      4  C   UNL     1       3.741   7.299  18.080  0.00  0.00    +0.000 A 
ATOM      5  C   UNL     1       4.865   6.645  17.541  0.00  0.00    +0.000 A 
ATOM      6  C   UNL     1       5.363   5.491  18.142  0.00  0.00    +0.000 A 
ATOM      7  C   UNL     1       4.767   5.021  19.310  0.00  0.00    +0.000 A 
ATOM      8  C   UNL     1       3.639   5.664  19.833  0.00  0.00    +0.000 A 
ATOM      9  C   UNL     1       3.106   6.801  19.243  0.00  0.00    +0.000 A 
ATOM     10  N   UNL     1       2.030   7.390  19.797  0.00  0.00    +0.000 NA
ENDROOT
BRANCH   1  12
ATOM     11  N   UNL     1      -0.086  10.323  19.195  0.00  0.00    +0.000 N 
ATOM     12  C   UNL     1       0.383   9.197  19.836  0.00  0.00    +0.000 C 
ATOM     13  O   UNL     1      -0.117   8.751  20.866  0.00  0.00    +0.000 OA
ATOM     14  H   UNL     1       0.377  10.614  18.338  0.00  0.00    +0.000 HD
BRANCH  11  15
ATOM     15  C   UNL     1      -1.219  11.089  19.686  0.00  0.00    +0.000 C 
BRANCH  15  17
ATOM     16  C   UNL     1      -2.326  11.510  17.466  0.00  0.00    +0.000 C 
ATOM     17  C   UNL     1      -1.701  12.177  18.697  0.00  0.00    +0.000 C 
ATOM     18  C   UNL     1      -0.570  13.114  18.263  0.00  0.00    +0.000 C 
BRANCH  17  19
ATOM     19  O   UNL     1      -2.718  12.958  19.341  0.00  0.00    +0.000 OA
ATOM     20  H   UNL     1      -3.156  13.494  18.656  0.00  0.00    +0.000 HD
ENDBRANCH  17  19
ENDBRANCH  15  17
ENDBRANCH  11  15
ENDBRANCH   1  12
BRANCH   6  21
ATOM     21  O   UNL     1       6.487   4.930  17.578  0.00  0.00    +0.000 OA
BRANCH  21  22
ATOM     22  C   UNL     1       6.461   4.625  16.222  0.00  0.00    +0.000 A 
ATOM     23  C   UNL     1       5.497   3.719  15.804  0.00  0.00    +0.000 A 
ATOM     24  C   UNL     1       5.439   3.395  14.449  0.00  0.00    +0.000 A 
ATOM     25  C   UNL     1       6.346   3.975  13.557  0.00  0.00    +0.000 A 
ATOM     26  C   UNL     1       7.284   4.854  14.079  0.00  0.00    +0.000 A 
ATOM     27  N   UNL     1       7.369   5.178  15.387  0.00  0.00    +0.000 NA
BRANCH  25  28
ATOM     28  C   UNL     1       6.351   3.690  12.088  0.00  0.00    +0.000 C 
ATOM     29  F   UNL     1       7.112   4.559  11.368  0.00  0.00    +0.000 F 
ATOM     30  F   UNL     1       6.826   2.447  11.799  0.00  0.00    +0.000 F 
ATOM     31  F   UNL     1       5.104   3.748  11.544  0.00  0.00    +0.000 F 
ENDBRANCH  25  28
ENDBRANCH  21  22
ENDBRANCH   6  21
TORSDOF 7
ENDMDL
MODEL 5
REMARK VINA RESULT:      -7.9      5.632     10.652
REMARK  Name = 
REMARK  9 active torsions:
REMARK  status: ('A' for Active; 'I' for Inactive)
REMARK    1  A    between atoms: C_1  and  C_2
REMARK    2  A    between atoms: C_2  and  C_3
REMARK    3  A    between atoms: C_2  and  O_4
REMARK    4  A    between atoms: C_2  and  C_5
REMARK    5  A    between atoms: C_5  and  N_6
REMARK    6  A    between atoms: C_7  and  C_9
REMARK    7  A    between atoms: C_14  and  O_15
REMARK    8  A    between atoms: O_15  and  C_16
REMARK    9  A    between atoms: C_19  and  C_20
REMARK                            x       y       z     vdW  Elec       q    Type
REMARK                         _______ _______ _______ _____ _____    ______ ____
ROOT
ATOM      1  C   UNL     1       1.339   8.762  18.933  0.00  0.00    +0.000 A 
ATOM      2  C   UNL     1       1.978   9.239  17.797  0.00  0.00    +0.000 A 
ATOM      3  C   UNL     1       3.085   8.546  17.323  0.00  0.00    +0.000 A 
ATOM      4  C   UNL     1       3.524   7.400  17.997  0.00  0.00    +0.000 A 
ATOM      5  C   UNL     1       4.646   6.677  17.552  0.00  0.00    +0.000 A 
ATOM      6  C   UNL     1       5.065   5.538  18.238  0.00  0.00    +0.000 A 
ATOM      7  C   UNL     1       4.389   5.153  19.394  0.00  0.00    +0.000 A 
ATOM      8  C   UNL     1       3.263   5.866  19.822  0.00  0.00    +0.000 A 
ATOM      9  C   UNL     1       2.808   6.989  19.146  0.00  0.00    +0.000 A 
ATOM     10  N   UNL     1       1.730   7.647  19.611  0.00  0.00    +0.000 NA
ENDROOT
BRANCH   1  12
ATOM     11  N   UNL     1      -0.522  10.297  18.561  0.00  0.00    +0.000 N 
ATOM     12  C   UNL     1       0.159   9.516  19.468  0.00  0.00    +0.000 C 
ATOM     13  O   UNL     1      -0.162   9.421  20.651  0.00  0.00    +0.000 OA
ATOM     14  H   UNL     1      -0.198  10.304  17.597  0.00  0.00    +0.000 HD
BRANCH  11  15
ATOM     15  C   UNL     1      -1.687  11.087  18.924  0.00  0.00    +0.000 C 
BRANCH  15  17
ATOM     16  C   UNL     1      -2.529  11.327  16.566  0.00  0.00    +0.000 C 
ATOM     17  C   UNL     1      -2.895  10.871  17.984  0.00  0.00    +0.000 C 
ATOM     18  C   UNL     1      -4.147  11.612  18.461  0.00  0.00    +0.000 C 
BRANCH  17  19
ATOM     19  O   UNL     1      -3.187   9.467  17.933  0.00  0.00    +0.000 OA
ATOM     20  H   UNL     1      -4.123   9.350  18.175  0.00  0.00    +0.000 HD
ENDBRANCH  17  19
ENDBRANCH  15  17
ENDBRANCH  11  15
ENDBRANCH   1  12
BRANCH   6  21
ATOM     21  O   UNL     1       6.193   4.905  17.765  0.00  0.00    +0.000 OA
BRANCH  21  22
ATOM     22  C   UNL     1       6.266   4.617  16.407  0.00  0.00    +0.000 A 
ATOM     23  C   UNL     1       5.258   3.822  15.882  0.00  0.00    +0.000 A 
ATOM     24  C   UNL     1       5.298   3.518  14.522  0.00  0.00    +0.000 A 
ATOM     25  C   UNL     1       6.342   4.008  13.732  0.00  0.00    +0.000 A 
ATOM     26  C   UNL     1       7.311   4.779  14.356  0.00  0.00    +0.000 A 
ATOM     27  N   UNL     1       7.303   5.080  15.673  0.00  0.00    +0.000 NA
BRANCH  25  28
ATOM     28  C   UNL     1       6.458   3.738  12.264  0.00  0.00    +0.000 C 
ATOM     29  F   UNL     1       7.030   2.538  11.975  0.00  0.00    +0.000 F 
ATOM     30  F   UNL     1       5.249   3.737  11.636  0.00  0.00    +0.000 F 
ATOM     31  F   UNL     1       7.209   4.675  11.622  0.00  0.00    +0.000 F 
ENDBRANCH  25  28
ENDBRANCH  21  22
ENDBRANCH   6  21
TORSDOF 7
ENDMDL
MODEL 6
REMARK VINA RESULT:      -7.9      2.049      2.802
REMARK  Name = 
REMARK  9 active torsions:
REMARK  status: ('A' for Active; 'I' for Inactive)
REMARK    1  A    between atoms: C_1  and  C_2
REMARK    2  A    between atoms: C_2  and  C_3
REMARK    3  A    between atoms: C_2  and  O_4
REMARK    4  A    between atoms: C_2  and  C_5
REMARK    5  A    between atoms: C_5  and  N_6
REMARK    6  A    between atoms: C_7  and  C_9
REMARK    7  A    between atoms: C_14  and  O_15
REMARK    8  A    between atoms: O_15  and  C_16
REMARK    9  A    between atoms: C_19  and  C_20
REMARK                            x       y       z     vdW  Elec       q    Type
REMARK                         _______ _______ _______ _____ _____    ______ ____
ROOT
ATOM      1  C   UNL     1       2.210   7.711  19.106  0.00  0.00    +0.000 A 
ATOM      2  C   UNL     1       2.126   8.417  17.914  0.00  0.00    +0.000 A 
ATOM      3  C   UNL     1       1.359   9.575  17.886  0.00  0.00    +0.000 A 
ATOM      4  C   UNL     1       0.697   9.994  19.046  0.00  0.00    +0.000 A 
ATOM      5  C   UNL     1      -0.096  11.157  19.054  0.00  0.00    +0.000 A 
ATOM      6  C   UNL     1      -0.746  11.556  20.221  0.00  0.00    +0.000 A 
ATOM      7  C   UNL     1      -0.641  10.764  21.363  0.00  0.00    +0.000 A 
ATOM      8  C   UNL     1       0.163   9.619  21.354  0.00  0.00    +0.000 A 
ATOM      9  C   UNL     1       0.841   9.210  20.215  0.00  0.00    +0.000 A 
ATOM     10  N   UNL     1       1.587   8.090  20.257  0.00  0.00    +0.000 NA
ENDROOT
BRANCH   1  12
ATOM     11  N   UNL     1       2.774   5.608  20.209  0.00  0.00    +0.000 N 
ATOM     12  C   UNL     1       3.013   6.446  19.142  0.00  0.00    +0.000 C 
ATOM     13  O   UNL     1       3.827   6.194  18.256  0.00  0.00    +0.000 OA
ATOM     14  H   UNL     1       2.071   5.886  20.888  0.00  0.00    +0.000 HD
BRANCH  11  15
ATOM     15  C   UNL     1       3.471   4.345  20.385  0.00  0.00    +0.000 C 
BRANCH  15  17
ATOM     16  C   UNL     1       2.764   2.098  19.502  0.00  0.00    +0.000 C 
ATOM     17  C   UNL     1       2.522   3.143  20.598  0.00  0.00    +0.000 C 
ATOM     18  C   UNL     1       1.048   3.557  20.607  0.00  0.00    +0.000 C 
BRANCH  17  19
ATOM     19  O   UNL     1       2.833   2.536  21.861  0.00  0.00    +0.000 OA
ATOM     20  H   UNL     1       2.048   2.620  22.430  0.00  0.00    +0.000 HD
ENDBRANCH  17  19
ENDBRANCH  15  17
ENDBRANCH  11  15
ENDBRANCH   1  12
BRANCH   6  21
ATOM     21  O   UNL     1      -1.534  12.683  20.141  0.00  0.00    +0.000 OA
BRANCH  21  22
ATOM     22  C   UNL     1      -2.913  12.522  20.104  0.00  0.00    +0.000 A 
ATOM     23  C   UNL     1      -3.613  12.859  21.253  0.00  0.00    +0.000 A 
ATOM     24  C   UNL     1      -5.000  12.715  21.249  0.00  0.00    +0.000 A 
ATOM     25  C   UNL     1      -5.643  12.232  20.105  0.00  0.00    +0.000 A 
ATOM     26  C   UNL     1      -4.851  11.904  19.015  0.00  0.00    +0.000 A 
ATOM     27  N   UNL     1      -3.506  12.024  18.995  0.00  0.00    +0.000 NA
BRANCH  25  28
ATOM     28  C   UNL     1      -7.126  12.054  20.010  0.00  0.00    +0.000 C 
ATOM     29  F   UNL     1      -7.582  11.955  18.732  0.00  0.00    +0.000 F 
ATOM     30  F   UNL     1      -7.559  10.931  20.649  0.00  0.00    +0.000 F 
ATOM     31  F   UNL     1      -7.811  13.088  20.572  0.00  0.00    +0.000 F 
ENDBRANCH  25  28
ENDBRANCH  21  22
ENDBRANCH   6  21
TORSDOF 7
ENDMDL
MODEL 7
REMARK VINA RESULT:      -7.8      1.844      2.343
REMARK  Name = 
REMARK  9 active torsions:
REMARK  status: ('A' for Active; 'I' for Inactive)
REMARK    1  A    between atoms: C_1  and  C_2
REMARK    2  A    between atoms: C_2  and  C_3
REMARK    3  A    between atoms: C_2  and  O_4
REMARK    4  A    between atoms: C_2  and  C_5
REMARK    5  A    between atoms: C_5  and  N_6
REMARK    6  A    between atoms: C_7  and  C_9
REMARK    7  A    between atoms: C_14  and  O_15
REMARK    8  A    between atoms: O_15  and  C_16
REMARK    9  A    between atoms: C_19  and  C_20
REMARK                            x       y       z     vdW  Elec       q    Type
REMARK                         _______ _______ _______ _____ _____    ______ ____
ROOT
ATOM      1  C   UNL     1       2.377   7.090  19.339  0.00  0.00    +0.000 A 
ATOM      2  C   UNL     1       2.450   7.710  18.100  0.00  0.00    +0.000 A 
ATOM      3  C   UNL     1       1.787   8.918  17.927  0.00  0.00    +0.000 A 
ATOM      4  C   UNL     1       1.067   9.471  18.992  0.00  0.00    +0.000 A 
ATOM      5  C   UNL     1       0.375  10.688  18.853  0.00  0.00    +0.000 A 
ATOM      6  C   UNL     1      -0.334  11.220  19.929  0.00  0.00    +0.000 A 
ATOM      7  C   UNL     1      -0.390  10.509  21.125  0.00  0.00    +0.000 A 
ATOM      8  C   UNL     1       0.315   9.308  21.264  0.00  0.00    +0.000 A 
ATOM      9  C   UNL     1       1.050   8.766  20.220  0.00  0.00    +0.000 A 
ATOM     10  N   UNL     1       1.695   7.599  20.403  0.00  0.00    +0.000 NA
ENDROOT
BRANCH   1  12
ATOM     11  N   UNL     1       2.251   4.666  19.598  0.00  0.00    +0.000 N 
ATOM     12  C   UNL     1       3.068   5.773  19.531  0.00  0.00    +0.000 C 
ATOM     13  O   UNL     1       4.292   5.713  19.615  0.00  0.00    +0.000 OA
ATOM     14  H   UNL     1       1.248   4.804  19.502  0.00  0.00    +0.000 HD
BRANCH  11  15
ATOM     15  C   UNL     1       2.768   3.320  19.780  0.00  0.00    +0.000 C 
BRANCH  15  17
ATOM     16  C   UNL     1       3.727   1.407  18.458  0.00  0.00    +0.000 C 
ATOM     17  C   UNL     1       2.573   2.413  18.543  0.00  0.00    +0.000 C 
ATOM     18  C   UNL     1       2.483   3.213  17.240  0.00  0.00    +0.000 C 
BRANCH  17  19
ATOM     19  O   UNL     1       1.355   1.673  18.709  0.00  0.00    +0.000 OA
ATOM     20  H   UNL     1       1.586   0.728  18.744  0.00  0.00    +0.000 HD
ENDBRANCH  17  19
ENDBRANCH  15  17
ENDBRANCH  11  15
ENDBRANCH   1  12
BRANCH   6  21
ATOM     21  O   UNL     1      -1.017  12.395  19.704  0.00  0.00    +0.000 OA
BRANCH  21  22
ATOM     22  C   UNL     1      -2.406  12.368  19.745  0.00  0.00    +0.000 A 
ATOM     23  C   UNL     1      -3.051  11.793  18.660  0.00  0.00    +0.000 A 
ATOM     24  C   UNL     1      -4.445  11.744  18.670  0.00  0.00    +0.000 A 
ATOM     25  C   UNL     1      -5.149  12.277  19.754  0.00  0.00    +0.000 A 
ATOM     26  C   UNL     1      -4.411  12.848  20.780  0.00  0.00    +0.000 A 
ATOM     27  N   UNL     1      -3.063  12.918  20.791  0.00  0.00    +0.000 NA
BRANCH  25  28
ATOM     28  C   UNL     1      -6.643  12.260  19.852  0.00  0.00    +0.000 C 
ATOM     29  F   UNL     1      -7.265  12.095  18.652  0.00  0.00    +0.000 F 
ATOM     30  F   UNL     1      -7.102  11.257  20.651  0.00  0.00    +0.000 F 
ATOM     31  F   UNL     1      -7.142  13.413  20.376  0.00  0.00    +0.000 F 
ENDBRANCH  25  28
ENDBRANCH  21  22
ENDBRANCH   6  21
TORSDOF 7
ENDMDL
MODEL 8
REMARK VINA RESULT:      -7.8      0.873      1.222
REMARK  Name = 
REMARK  9 active torsions:
REMARK  status: ('A' for Active; 'I' for Inactive)
REMARK    1  A    between atoms: C_1  and  C_2
REMARK    2  A    between atoms: C_2  and  C_3
REMARK    3  A    between atoms: C_2  and  O_4
REMARK    4  A    between atoms: C_2  and  C_5
REMARK    5  A    between atoms: C_5  and  N_6
REMARK    6  A    between atoms: C_7  and  C_9
REMARK    7  A    between atoms: C_14  and  O_15
REMARK    8  A    between atoms: O_15  and  C_16
REMARK    9  A    between atoms: C_19  and  C_20
REMARK                            x       y       z     vdW  Elec       q    Type
REMARK                         _______ _______ _______ _____ _____    ______ ____
ROOT
ATOM      1  C   UNL     1       2.347   7.574  19.129  0.00  0.00    +0.000 A 
ATOM      2  C   UNL     1       2.246   8.220  17.904  0.00  0.00    +0.000 A 
ATOM      3  C   UNL     1       1.449   9.355  17.823  0.00  0.00    +0.000 A 
ATOM      4  C   UNL     1       0.775   9.810  18.961  0.00  0.00    +0.000 A 
ATOM      5  C   UNL     1      -0.049  10.951  18.916  0.00  0.00    +0.000 A 
ATOM      6  C   UNL     1      -0.710  11.387  20.063  0.00  0.00    +0.000 A 
ATOM      7  C   UNL     1      -0.585  10.652  21.240  0.00  0.00    +0.000 A 
ATOM      8  C   UNL     1       0.248   9.529  21.285  0.00  0.00    +0.000 A 
ATOM      9  C   UNL     1       0.939   9.086  20.166  0.00  0.00    +0.000 A 
ATOM     10  N   UNL     1       1.714   7.989  20.260  0.00  0.00    +0.000 NA
ENDROOT
BRANCH   1  12
ATOM     11  N   UNL     1       4.364   6.344  18.513  0.00  0.00    +0.000 N 
ATOM     12  C   UNL     1       3.184   6.333  19.224  0.00  0.00    +0.000 C 
ATOM     13  O   UNL     1       2.817   5.379  19.906  0.00  0.00    +0.000 OA
ATOM     14  H   UNL     1       4.599   7.182  17.988  0.00  0.00    +0.000 HD
BRANCH  11  15
ATOM     15  C   UNL     1       5.284   5.219  18.504  0.00  0.00    +0.000 C 
BRANCH  15  17
ATOM     16  C   UNL     1       5.222   5.565  16.013  0.00  0.00    +0.000 C 
ATOM     17  C   UNL     1       5.394   4.525  17.126  0.00  0.00    +0.000 C 
ATOM     18  C   UNL     1       4.367   3.403  16.953  0.00  0.00    +0.000 C 
BRANCH  17  19
ATOM     19  O   UNL     1       6.709   3.963  17.004  0.00  0.00    +0.000 OA
ATOM     20  H   UNL     1       7.216   4.526  16.393  0.00  0.00    +0.000 HD
ENDBRANCH  17  19
ENDBRANCH  15  17
ENDBRANCH  11  15
ENDBRANCH   1  12
BRANCH   6  21
ATOM     21  O   UNL     1      -1.527  12.488  19.930  0.00  0.00    +0.000 OA
BRANCH  21  22
ATOM     22  C   UNL     1      -2.851  12.285  19.562  0.00  0.00    +0.000 A 
ATOM     23  C   UNL     1      -3.821  12.728  20.450  0.00  0.00    +0.000 A 
ATOM     24  C   UNL     1      -5.161  12.546  20.109  0.00  0.00    +0.000 A 
ATOM     25  C   UNL     1      -5.491  11.922  18.902  0.00  0.00    +0.000 A 
ATOM     26  C   UNL     1      -4.447  11.498  18.093  0.00  0.00    +0.000 A 
ATOM     27  N   UNL     1      -3.142  11.652  18.403  0.00  0.00    +0.000 NA
BRANCH  25  28
ATOM     28  C   UNL     1      -6.901  11.693  18.454  0.00  0.00    +0.000 C 
ATOM     29  F   UNL     1      -7.194  12.275  17.259  0.00  0.00    +0.000 F 
ATOM     30  F   UNL     1      -7.194  10.371  18.307  0.00  0.00    +0.000 F 
ATOM     31  F   UNL     1      -7.813  12.180  19.340  0.00  0.00    +0.000 F 
ENDBRANCH  25  28
ENDBRANCH  21  22
ENDBRANCH   6  21
TORSDOF 7
ENDMDL
MODEL 9
REMARK VINA RESULT:      -7.8      0.839      1.090
REMARK  Name = 
REMARK  9 active torsions:
REMARK  status: ('A' for Active; 'I' for Inactive)
REMARK    1  A    between atoms: C_1  and  C_2
REMARK    2  A    between atoms: C_2  and  C_3
REMARK    3  A    between atoms: C_2  and  O_4
REMARK    4  A    between atoms: C_2  and  C_5
REMARK    5  A    between atoms: C_5  and  N_6
REMARK    6  A    between atoms: C_7  and  C_9
REMARK    7  A    between atoms: C_14  and  O_15
REMARK    8  A    between atoms: O_15  and  C_16
REMARK    9  A    between atoms: C_19  and  C_20
REMARK                            x       y       z     vdW  Elec       q    Type
REMARK                         _______ _______ _______ _____ _____    ______ ____
ROOT
ATOM      1  C   UNL     1       2.317   7.440  19.251  0.00  0.00    +0.000 A 
ATOM      2  C   UNL     1       2.251   8.027  17.995  0.00  0.00    +0.000 A 
ATOM      3  C   UNL     1       1.499   9.185  17.848  0.00  0.00    +0.000 A 
ATOM      4  C   UNL     1       0.833   9.723  18.954  0.00  0.00    +0.000 A 
ATOM      5  C   UNL     1       0.054  10.890  18.842  0.00  0.00    +0.000 A 
ATOM      6  C   UNL     1      -0.600  11.408  19.959  0.00  0.00    +0.000 A 
ATOM      7  C   UNL     1      -0.514  10.731  21.173  0.00  0.00    +0.000 A 
ATOM      8  C   UNL     1       0.276   9.581  21.283  0.00  0.00    +0.000 A 
ATOM      9  C   UNL     1       0.959   9.055  20.196  0.00  0.00    +0.000 A 
ATOM     10  N   UNL     1       1.691   7.937  20.353  0.00  0.00    +0.000 NA
ENDROOT
BRANCH   1  12
ATOM     11  N   UNL     1       4.346   6.153  18.820  0.00  0.00    +0.000 N 
ATOM     12  C   UNL     1       3.105   6.175  19.417  0.00  0.00    +0.000 C 
ATOM     13  O   UNL     1       2.649   5.231  20.058  0.00  0.00    +0.000 OA
ATOM     14  H   UNL     1       4.653   6.985  18.322  0.00  0.00    +0.000 HD
BRANCH  11  15
ATOM     15  C   UNL     1       5.230   5.002  18.890  0.00  0.00    +0.000 C 
BRANCH  15  17
ATOM     16  C   UNL     1       6.597   6.248  17.186  0.00  0.00    +0.000 C 
ATOM     17  C   UNL     1       6.154   4.858  17.659  0.00  0.00    +0.000 C 
ATOM     18  C   UNL     1       5.480   4.107  16.507  0.00  0.00    +0.000 C 
BRANCH  17  19
ATOM     19  O   UNL     1       7.327   4.132  18.053  0.00  0.00    +0.000 OA
ATOM     20  H   UNL     1       7.164   3.189  17.875  0.00  0.00    +0.000 HD
ENDBRANCH  17  19
ENDBRANCH  15  17
ENDBRANCH  11  15
ENDBRANCH   1  12
BRANCH   6  21
ATOM     21  O   UNL     1      -1.373  12.531  19.762  0.00  0.00    +0.000 OA
BRANCH  21  22
ATOM     22  C   UNL     1      -2.755  12.402  19.839  0.00  0.00    +0.000 A 
ATOM     23  C   UNL     1      -3.396  11.885  18.723  0.00  0.00    +0.000 A 
ATOM     24  C   UNL     1      -4.782  11.736  18.768  0.00  0.00    +0.000 A 
ATOM     25  C   UNL     1      -5.484  12.114  19.917  0.00  0.00    +0.000 A 
ATOM     26  C   UNL     1      -4.750  12.638  20.972  0.00  0.00    +0.000 A 
ATOM     27  N   UNL     1      -3.411  12.803  20.951  0.00  0.00    +0.000 NA
BRANCH  25  28
ATOM     28  C   UNL     1      -6.968  11.982  20.055  0.00  0.00    +0.000 C 
ATOM     29  F   UNL     1      -7.578  13.118  20.490  0.00  0.00    +0.000 F 
ATOM     30  F   UNL     1      -7.574  11.659  18.879  0.00  0.00    +0.000 F 
ATOM     31  F   UNL     1      -7.323  11.006  20.936  0.00  0.00    +0.000 F 
ENDBRANCH  25  28
ENDBRANCH  21  22
ENDBRANCH   6  21
TORSDOF 7
ENDMDL
