MODEL 1
REMARK VINA RESULT:      -6.6      0.000      0.000
REMARK  Name = 
REMARK  2 active torsions:
REMARK  status: ('A' for Active; 'I' for Inactive)
REMARK    1  A    between atoms: C_11  and  C_12
REMARK    2  A    between atoms: C_18  and  C_19
REMARK                            x       y       z     vdW  Elec       q    Type
REMARK                         _______ _______ _______ _____ _____    ______ ____
ROOT
ATOM      1  O   UNL     1      -6.364  11.450  17.893  0.00  0.00    +0.000 OA
ATOM      2  C   UNL     1      -5.568  11.800  18.760  0.00  0.00    +0.000 A 
ATOM      3  N   UNL     1      -6.025  12.317  19.940  0.00  0.00    +0.000 N 
ATOM      4  C   UNL     1      -5.196  12.770  20.964  0.00  0.00    +0.000 A 
ATOM      5  C   UNL     1      -5.768  13.236  22.152  0.00  0.00    +0.000 A 
ATOM      6  C   UNL     1      -4.946  13.676  23.189  0.00  0.00    +0.000 A 
ATOM      7  C   UNL     1      -3.563  13.658  23.026  0.00  0.00    +0.000 A 
ATOM      8 CL   UNL     1      -2.546  14.189  24.310  0.00  0.00    +0.000 Cl
ATOM      9  C   UNL     1      -2.994  13.202  21.837  0.00  0.00    +0.000 A 
ATOM     10  C   UNL     1      -3.807  12.742  20.790  0.00  0.00    +0.000 A 
ATOM     11  C   UNL     1      -3.231  12.183  19.536  0.00  0.00    +0.000 A 
ATOM     12  C   UNL     1      -4.075  11.698  18.587  0.00  0.00    +0.000 A 
ATOM     13  H   UNL     1      -7.031  12.347  20.037  0.00  0.00    +0.000 HD
ENDROOT
BRANCH  11  14
ATOM     14  C   UNL     1      -1.764  12.084  19.315  0.00  0.00    +0.000 A 
ATOM     15  C   UNL     1      -1.045  10.995  19.829  0.00  0.00    +0.000 A 
ATOM     16  C   UNL     1       0.337  10.929  19.658  0.00  0.00    +0.000 A 
ATOM     17  C   UNL     1       1.005  11.938  18.962  0.00  0.00    +0.000 A 
ATOM     18  C   UNL     1       0.290  13.010  18.431  0.00  0.00    +0.000 A 
ATOM     19  C   UNL     1      -1.090  13.085  18.605  0.00  0.00    +0.000 A 
ENDBRANCH  11  14
BRANCH  12  20
ATOM     20  C   UNL     1      -3.578  11.000  17.446  0.00  0.00    +0.000 A 
ATOM     21  C   UNL     1      -3.060   9.731  17.280  0.00  0.00    +0.000 A 
ATOM     22  C   UNL     1      -2.634   9.613  15.936  0.00  0.00    +0.000 A 
ATOM     23  C   UNL     1      -2.932  10.802  15.308  0.00  0.00    +0.000 A 
ATOM     24  N   UNL     1      -3.538  11.626  16.224  0.00  0.00    +0.000 N 
ATOM     25  H   UNL     1      -3.859  12.566  16.035  0.00  0.00    +0.000 HD
ENDBRANCH  12  20
TORSDOF 2
ENDMDL
MODEL 2
REMARK VINA RESULT:      -6.6      0.091      1.013
REMARK  Name = 
REMARK  2 active torsions:
REMARK  status: ('A' for Active; 'I' for Inactive)
REMARK    1  A    between atoms: C_11  and  C_12
REMARK    2  A    between atoms: C_18  and  C_19
REMARK                            x       y       z     vdW  Elec       q    Type
REMARK                         _______ _______ _______ _____ _____    ______ ____
ROOT
ATOM      1  O   UNL     1      -6.383  11.405  17.917  0.00  0.00    +0.000 OA
ATOM      2  C   UNL     1      -5.603  11.765  18.794  0.00  0.00    +0.000 A 
ATOM      3  N   UNL     1      -6.083  12.267  19.972  0.00  0.00    +0.000 N 
ATOM      4  C   UNL     1      -5.273  12.730  21.007  0.00  0.00    +0.000 A 
ATOM      5  C   UNL     1      -5.866  13.179  22.190  0.00  0.00    +0.000 A 
ATOM      6  C   UNL     1      -5.063  13.629  23.239  0.00  0.00    +0.000 A 
ATOM      7  C   UNL     1      -3.679  13.638  23.091  0.00  0.00    +0.000 A 
ATOM      8 CL   UNL     1      -2.686  14.180  24.388  0.00  0.00    +0.000 Cl
ATOM      9  C   UNL     1      -3.088  13.198  21.905  0.00  0.00    +0.000 A 
ATOM     10  C   UNL     1      -3.882  12.729  20.847  0.00  0.00    +0.000 A 
ATOM     11  C   UNL     1      -3.282  12.187  19.597  0.00  0.00    +0.000 A 
ATOM     12  C   UNL     1      -4.107  11.692  18.636  0.00  0.00    +0.000 A 
ATOM     13  H   UNL     1      -7.090  12.278  20.059  0.00  0.00    +0.000 HD
ENDROOT
BRANCH  11  14
ATOM     14  C   UNL     1      -1.811  12.117  19.391  0.00  0.00    +0.000 A 
ATOM     15  C   UNL     1      -1.151  13.121  18.668  0.00  0.00    +0.000 A 
ATOM     16  C   UNL     1       0.221  13.029  18.439  0.00  0.00    +0.000 A 
ATOM     17  C   UNL     1       0.942  11.945  18.940  0.00  0.00    +0.000 A 
ATOM     18  C   UNL     1       0.293  10.955  19.678  0.00  0.00    +0.000 A 
ATOM     19  C   UNL     1      -1.079  11.039  19.904  0.00  0.00    +0.000 A 
ENDBRANCH  11  14
BRANCH  12  20
ATOM     20  C   UNL     1      -3.585  11.010  17.497  0.00  0.00    +0.000 A 
ATOM     21  C   UNL     1      -3.038   9.752  17.331  0.00  0.00    +0.000 A 
ATOM     22  C   UNL     1      -2.598   9.649  15.989  0.00  0.00    +0.000 A 
ATOM     23  C   UNL     1      -2.916  10.835  15.364  0.00  0.00    +0.000 A 
ATOM     24  N   UNL     1      -3.548  11.641  16.277  0.00  0.00    +0.000 N 
ATOM     25  H   UNL     1      -3.888  12.575  16.090  0.00  0.00    +0.000 HD
ENDBRANCH  12  20
TORSDOF 2
ENDMDL
MODEL 3
REMARK VINA RESULT:      -6.5      6.835      8.816
REMARK  Name = 
REMARK  2 active torsions:
REMARK  status: ('A' for Active; 'I' for Inactive)
REMARK    1  A    between atoms: C_11  and  C_12
REMARK    2  A    between atoms: C_18  and  C_19
REMARK                            x       y       z     vdW  Elec       q    Type
REMARK                         _______ _______ _______ _____ _____    ______ ____
ROOT
ATOM      1  O   UNL     1       4.046   7.415  16.569  0.00  0.00    +0.000 OA
ATOM      2  C   UNL     1       3.313   7.419  17.554  0.00  0.00    +0.000 A 
ATOM      3  N   UNL     1       2.771   8.593  17.998  0.00  0.00    +0.000 N 
ATOM      4  C   UNL     1       1.957   8.696  19.124  0.00  0.00    +0.000 A 
ATOM      5  C   UNL     1       1.414   9.939  19.464  0.00  0.00    +0.000 A 
ATOM      6  C   UNL     1       0.584  10.050  20.580  0.00  0.00    +0.000 A 
ATOM      7  C   UNL     1       0.315   8.923  21.352  0.00  0.00    +0.000 A 
ATOM      8 CL   UNL     1      -0.718   9.054  22.722  0.00  0.00    +0.000 Cl
ATOM      9  C   UNL     1       0.865   7.685  21.017  0.00  0.00    +0.000 A 
ATOM     10  C   UNL     1       1.690   7.554  19.889  0.00  0.00    +0.000 A 
ATOM     11  C   UNL     1       2.235   6.236  19.464  0.00  0.00    +0.000 A 
ATOM     12  C   UNL     1       2.976   6.170  18.326  0.00  0.00    +0.000 A 
ATOM     13  H   UNL     1       2.993   9.409  17.443  0.00  0.00    +0.000 HD
ENDROOT
BRANCH  11  14
ATOM     14  C   UNL     1       1.946   4.982  20.209  0.00  0.00    +0.000 A 
ATOM     15  C   UNL     1       2.790   4.570  21.250  0.00  0.00    +0.000 A 
ATOM     16  C   UNL     1       2.541   3.371  21.917  0.00  0.00    +0.000 A 
ATOM     17  C   UNL     1       1.443   2.588  21.560  0.00  0.00    +0.000 A 
ATOM     18  C   UNL     1       0.589   3.005  20.540  0.00  0.00    +0.000 A 
ATOM     19  C   UNL     1       0.837   4.199  19.866  0.00  0.00    +0.000 A 
ENDBRANCH  11  14
BRANCH  12  20
ATOM     20  C   UNL     1       3.381   4.915  17.781  0.00  0.00    +0.000 A 
ATOM     21  C   UNL     1       2.676   3.881  17.195  0.00  0.00    +0.000 A 
ATOM     22  C   UNL     1       3.592   2.835  16.929  0.00  0.00    +0.000 A 
ATOM     23  C   UNL     1       4.836   3.269  17.331  0.00  0.00    +0.000 A 
ATOM     24  N   UNL     1       4.704   4.548  17.814  0.00  0.00    +0.000 N 
ATOM     25  H   UNL     1       5.460   5.110  18.181  0.00  0.00    +0.000 HD
ENDBRANCH  12  20
TORSDOF 2
ENDMDL
MODEL 4
REMARK VINA RESULT:      -6.4      6.881      8.884
REMARK  Name = 
REMARK  2 active torsions:
REMARK  status: ('A' for Active; 'I' for Inactive)
REMARK    1  A    between atoms: C_11  and  C_12
REMARK    2  A    between atoms: C_18  and  C_19
REMARK                            x       y       z     vdW  Elec       q    Type
REMARK                         _______ _______ _______ _____ _____    ______ ____
ROOT
ATOM      1  O   UNL     1       4.122   7.395  16.548  0.00  0.00    +0.000 OA
ATOM      2  C   UNL     1       3.378   7.390  17.525  0.00  0.00    +0.000 A 
ATOM      3  N   UNL     1       2.824   8.559  17.968  0.00  0.00    +0.000 N 
ATOM      4  C   UNL     1       1.997   8.653  19.086  0.00  0.00    +0.000 A 
ATOM      5  C   UNL     1       1.444   9.891  19.425  0.00  0.00    +0.000 A 
ATOM      6  C   UNL     1       0.601   9.992  20.532  0.00  0.00    +0.000 A 
ATOM      7  C   UNL     1       0.330   8.860  21.296  0.00  0.00    +0.000 A 
ATOM      8 CL   UNL     1      -0.719   8.979  22.655  0.00  0.00    +0.000 Cl
ATOM      9  C   UNL     1       0.891   7.627  20.962  0.00  0.00    +0.000 A 
ATOM     10  C   UNL     1       1.729   7.506  19.843  0.00  0.00    +0.000 A 
ATOM     11  C   UNL     1       2.286   6.192  19.418  0.00  0.00    +0.000 A 
ATOM     12  C   UNL     1       3.040   6.136  18.288  0.00  0.00    +0.000 A 
ATOM     13  H   UNL     1       3.048   9.378  17.419  0.00  0.00    +0.000 HD
ENDROOT
BRANCH  11  14
ATOM     14  C   UNL     1       1.996   4.934  20.155  0.00  0.00    +0.000 A 
ATOM     15  C   UNL     1       0.878   4.159  19.815  0.00  0.00    +0.000 A 
ATOM     16  C   UNL     1       0.584   3.004  20.537  0.00  0.00    +0.000 A 
ATOM     17  C   UNL     1       1.411   2.608  21.589  0.00  0.00    +0.000 A 
ATOM     18  C   UNL     1       2.537   3.364  21.916  0.00  0.00    +0.000 A 
ATOM     19  C   UNL     1       2.830   4.524  21.202  0.00  0.00    +0.000 A 
ENDBRANCH  11  14
BRANCH  12  20
ATOM     20  C   UNL     1       3.458   4.886  17.742  0.00  0.00    +0.000 A 
ATOM     21  C   UNL     1       2.761   3.829  17.189  0.00  0.00    +0.000 A 
ATOM     22  C   UNL     1       3.693   2.803  16.904  0.00  0.00    +0.000 A 
ATOM     23  C   UNL     1       4.939   3.272  17.260  0.00  0.00    +0.000 A 
ATOM     24  N   UNL     1       4.790   4.552  17.735  0.00  0.00    +0.000 N 
ATOM     25  H   UNL     1       5.543   5.136  18.071  0.00  0.00    +0.000 HD
ENDBRANCH  12  20
TORSDOF 2
ENDMDL
MODEL 5
REMARK VINA RESULT:      -6.1     12.546     13.408
REMARK  Name = 
REMARK  2 active torsions:
REMARK  status: ('A' for Active; 'I' for Inactive)
REMARK    1  A    between atoms: C_11  and  C_12
REMARK    2  A    between atoms: C_18  and  C_19
REMARK                            x       y       z     vdW  Elec       q    Type
REMARK                         _______ _______ _______ _____ _____    ______ ____
ROOT
ATOM      1  O   UNL     1       9.677  10.350  19.564  0.00  0.00    +0.000 OA
ATOM      2  C   UNL     1       9.525  11.268  20.366  0.00  0.00    +0.000 A 
ATOM      3  N   UNL     1       9.025  11.011  21.612  0.00  0.00    +0.000 N 
ATOM      4  C   UNL     1       8.788  11.993  22.572  0.00  0.00    +0.000 A 
ATOM      5  C   UNL     1       8.319  11.616  23.834  0.00  0.00    +0.000 A 
ATOM      6  C   UNL     1       8.095  12.589  24.807  0.00  0.00    +0.000 A 
ATOM      7  C   UNL     1       8.328  13.929  24.508  0.00  0.00    +0.000 A 
ATOM      8 CL   UNL     1       8.064  15.131  25.711  0.00  0.00    +0.000 Cl
ATOM      9  C   UNL     1       8.786  14.305  23.245  0.00  0.00    +0.000 A 
ATOM     10  C   UNL     1       9.031  13.336  22.259  0.00  0.00    +0.000 A 
ATOM     11  C   UNL     1       9.587  13.695  20.926  0.00  0.00    +0.000 A 
ATOM     12  C   UNL     1       9.858  12.700  20.040  0.00  0.00    +0.000 A 
ATOM     13  H   UNL     1       8.836  10.037  21.810  0.00  0.00    +0.000 HD
ENDROOT
BRANCH  11  14
ATOM     14  C   UNL     1       9.910  15.098  20.555  0.00  0.00    +0.000 A 
ATOM     15  C   UNL     1      11.189  15.616  20.800  0.00  0.00    +0.000 A 
ATOM     16  C   UNL     1      11.475  16.945  20.492  0.00  0.00    +0.000 A 
ATOM     17  C   UNL     1      10.492  17.758  19.926  0.00  0.00    +0.000 A 
ATOM     18  C   UNL     1       9.225  17.241  19.661  0.00  0.00    +0.000 A 
ATOM     19  C   UNL     1       8.932  15.915  19.973  0.00  0.00    +0.000 A 
ENDBRANCH  11  14
BRANCH  12  20
ATOM     20  C   UNL     1      10.545  12.967  18.819  0.00  0.00    +0.000 A 
ATOM     21  C   UNL     1      10.117  13.425  17.587  0.00  0.00    +0.000 A 
ATOM     22  C   UNL     1      11.229  13.405  16.712  0.00  0.00    +0.000 A 
ATOM     23  C   UNL     1      12.313  12.966  17.439  0.00  0.00    +0.000 A 
ATOM     24  N   UNL     1      11.896  12.737  18.727  0.00  0.00    +0.000 N 
ATOM     25  H   UNL     1      12.487  12.404  19.477  0.00  0.00    +0.000 HD
ENDBRANCH  12  20
TORSDOF 2
ENDMDL
MODEL 6
REMARK VINA RESULT:      -6.1      2.186      3.897
REMARK  Name = 
REMARK  2 active torsions:
REMARK  status: ('A' for Active; 'I' for Inactive)
REMARK    1  A    between atoms: C_11  and  C_12
REMARK    2  A    between atoms: C_18  and  C_19
REMARK                            x       y       z     vdW  Elec       q    Type
REMARK                         _______ _______ _______ _____ _____    ______ ____
ROOT
ATOM      1  O   UNL     1      -2.295  11.114  16.353  0.00  0.00    +0.000 OA
ATOM      2  C   UNL     1      -2.941  11.399  17.356  0.00  0.00    +0.000 A 
ATOM      3  N   UNL     1      -4.298  11.233  17.366  0.00  0.00    +0.000 N 
ATOM      4  C   UNL     1      -5.114  11.563  18.446  0.00  0.00    +0.000 A 
ATOM      5  C   UNL     1      -6.487  11.308  18.370  0.00  0.00    +0.000 A 
ATOM      6  C   UNL     1      -7.309  11.618  19.452  0.00  0.00    +0.000 A 
ATOM      7  C   UNL     1      -6.757  12.191  20.595  0.00  0.00    +0.000 A 
ATOM      8 CL   UNL     1      -7.768  12.563  21.937  0.00  0.00    +0.000 Cl
ATOM      9  C   UNL     1      -5.389  12.454  20.666  0.00  0.00    +0.000 A 
ATOM     10  C   UNL     1      -4.545  12.134  19.591  0.00  0.00    +0.000 A 
ATOM     11  C   UNL     1      -3.072  12.336  19.662  0.00  0.00    +0.000 A 
ATOM     12  C   UNL     1      -2.307  11.947  18.608  0.00  0.00    +0.000 A 
ATOM     13  H   UNL     1      -4.691  10.839  16.522  0.00  0.00    +0.000 HD
ENDROOT
BRANCH  11  14
ATOM     14  C   UNL     1      -2.407  12.894  20.869  0.00  0.00    +0.000 A 
ATOM     15  C   UNL     1      -1.920  12.036  21.866  0.00  0.00    +0.000 A 
ATOM     16  C   UNL     1      -1.336  12.564  23.016  0.00  0.00    +0.000 A 
ATOM     17  C   UNL     1      -1.224  13.946  23.172  0.00  0.00    +0.000 A 
ATOM     18  C   UNL     1      -1.688  14.802  22.174  0.00  0.00    +0.000 A 
ATOM     19  C   UNL     1      -2.278  14.279  21.024  0.00  0.00    +0.000 A 
ENDBRANCH  11  14
BRANCH  12  20
ATOM     20  C   UNL     1      -0.882  11.960  18.687  0.00  0.00    +0.000 A 
ATOM     21  C   UNL     1       0.050  12.973  18.571  0.00  0.00    +0.000 A 
ATOM     22  C   UNL     1       1.335  12.384  18.639  0.00  0.00    +0.000 A 
ATOM     23  C   UNL     1       1.154  11.031  18.826  0.00  0.00    +0.000 A 
ATOM     24  N   UNL     1      -0.196  10.788  18.889  0.00  0.00    +0.000 N 
ATOM     25  H   UNL     1      -0.615   9.877  19.017  0.00  0.00    +0.000 HD
ENDBRANCH  12  20
TORSDOF 2
ENDMDL
MODEL 7
REMARK VINA RESULT:      -6.1      2.195      4.017
REMARK  Name = 
REMARK  2 active torsions:
REMARK  status: ('A' for Active; 'I' for Inactive)
REMARK    1  A    between atoms: C_11  and  C_12
REMARK    2  A    between atoms: C_18  and  C_19
REMARK                            x       y       z     vdW  Elec       q    Type
REMARK                         _______ _______ _______ _____ _____    ______ ____
ROOT
ATOM      1  O   UNL     1      -2.293  11.118  16.333  0.00  0.00    +0.000 OA
ATOM      2  C   UNL     1      -2.944  11.398  17.335  0.00  0.00    +0.000 A 
ATOM      3  N   UNL     1      -4.301  11.231  17.337  0.00  0.00    +0.000 N 
ATOM      4  C   UNL     1      -5.122  11.555  18.416  0.00  0.00    +0.000 A 
ATOM      5  C   UNL     1      -6.494  11.300  18.332  0.00  0.00    +0.000 A 
ATOM      6  C   UNL     1      -7.321  11.604  19.412  0.00  0.00    +0.000 A 
ATOM      7  C   UNL     1      -6.774  12.172  20.560  0.00  0.00    +0.000 A 
ATOM      8 CL   UNL     1      -7.792  12.536  21.899  0.00  0.00    +0.000 Cl
ATOM      9  C   UNL     1      -5.407  12.435  20.639  0.00  0.00    +0.000 A 
ATOM     10  C   UNL     1      -4.558  12.121  19.566  0.00  0.00    +0.000 A 
ATOM     11  C   UNL     1      -3.085  12.323  19.645  0.00  0.00    +0.000 A 
ATOM     12  C   UNL     1      -2.315  11.940  18.592  0.00  0.00    +0.000 A 
ATOM     13  H   UNL     1      -4.690  10.841  16.490  0.00  0.00    +0.000 HD
ENDROOT
BRANCH  11  14
ATOM     14  C   UNL     1      -2.426  12.875  20.858  0.00  0.00    +0.000 A 
ATOM     15  C   UNL     1      -2.287  14.261  21.015  0.00  0.00    +0.000 A 
ATOM     16  C   UNL     1      -1.629  14.774  22.132  0.00  0.00    +0.000 A 
ATOM     17  C   UNL     1      -1.120  13.908  23.102  0.00  0.00    +0.000 A 
ATOM     18  C   UNL     1      -1.276  12.530  22.960  0.00  0.00    +0.000 A 
ATOM     19  C   UNL     1      -1.927  12.013  21.841  0.00  0.00    +0.000 A 
ENDBRANCH  11  14
BRANCH  12  20
ATOM     20  C   UNL     1      -0.891  11.953  18.677  0.00  0.00    +0.000 A 
ATOM     21  C   UNL     1       0.041  12.968  18.572  0.00  0.00    +0.000 A 
ATOM     22  C   UNL     1       1.326  12.378  18.642  0.00  0.00    +0.000 A 
ATOM     23  C   UNL     1       1.145  11.024  18.819  0.00  0.00    +0.000 A 
ATOM     24  N   UNL     1      -0.205  10.780  18.875  0.00  0.00    +0.000 N 
ATOM     25  H   UNL     1      -0.624   9.868  18.996  0.00  0.00    +0.000 HD
ENDBRANCH  12  20
TORSDOF 2
ENDMDL
MODEL 8
REMARK VINA RESULT:      -6.0     12.556     13.356
REMARK  Name = 
REMARK  2 active torsions:
REMARK  status: ('A' for Active; 'I' for Inactive)
REMARK    1  A    between atoms: C_11  and  C_12
REMARK    2  A    between atoms: C_18  and  C_19
REMARK                            x       y       z     vdW  Elec       q    Type
REMARK                         _______ _______ _______ _____ _____    ______ ____
ROOT
ATOM      1  O   UNL     1       9.464  10.396  19.905  0.00  0.00    +0.000 OA
ATOM      2  C   UNL     1       9.363  11.346  20.677  0.00  0.00    +0.000 A 
ATOM      3  N   UNL     1       8.899  11.148  21.947  0.00  0.00    +0.000 N 
ATOM      4  C   UNL     1       8.720  12.170  22.878  0.00  0.00    +0.000 A 
ATOM      5  C   UNL     1       8.285  11.852  24.168  0.00  0.00    +0.000 A 
ATOM      6  C   UNL     1       8.120  12.866  25.111  0.00  0.00    +0.000 A 
ATOM      7  C   UNL     1       8.376  14.187  24.754  0.00  0.00    +0.000 A 
ATOM      8 CL   UNL     1       8.184  15.438  25.920  0.00  0.00    +0.000 Cl
ATOM      9  C   UNL     1       8.800  14.504  23.463  0.00  0.00    +0.000 A 
ATOM     10  C   UNL     1       8.986  13.494  22.507  0.00  0.00    +0.000 A 
ATOM     11  C   UNL     1       9.505  13.789  21.143  0.00  0.00    +0.000 A 
ATOM     12  C   UNL     1       9.721  12.756  20.287  0.00  0.00    +0.000 A 
ATOM     13  H   UNL     1       8.693  10.187  22.188  0.00  0.00    +0.000 HD
ENDROOT
BRANCH  11  14
ATOM     14  C   UNL     1       9.850  15.169  20.710  0.00  0.00    +0.000 A 
ATOM     15  C   UNL     1       8.874  15.990  20.128  0.00  0.00    +0.000 A 
ATOM     16  C   UNL     1       9.212  17.267  19.683  0.00  0.00    +0.000 A 
ATOM     17  C   UNL     1      10.518  17.735  19.828  0.00  0.00    +0.000 A 
ATOM     18  C   UNL     1      11.487  16.930  20.426  0.00  0.00    +0.000 A 
ATOM     19  C   UNL     1      11.156  15.650  20.867  0.00  0.00    +0.000 A 
ENDBRANCH  11  14
BRANCH  12  20
ATOM     20  C   UNL     1      10.372  12.960  19.034  0.00  0.00    +0.000 A 
ATOM     21  C   UNL     1       9.924  13.428  17.814  0.00  0.00    +0.000 A 
ATOM     22  C   UNL     1      10.994  13.323  16.894  0.00  0.00    +0.000 A 
ATOM     23  C   UNL     1      12.077  12.823  17.584  0.00  0.00    +0.000 A 
ATOM     24  N   UNL     1      11.700  12.640  18.891  0.00  0.00    +0.000 N 
ATOM     25  H   UNL     1      12.298  12.279  19.622  0.00  0.00    +0.000 HD
ENDBRANCH  12  20
TORSDOF 2
ENDMDL
MODEL 9
REMARK VINA RESULT:      -6.0      2.270      3.944
REMARK  Name = 
REMARK  2 active torsions:
REMARK  status: ('A' for Active; 'I' for Inactive)
REMARK    1  A    between atoms: C_11  and  C_12
REMARK    2  A    between atoms: C_18  and  C_19
REMARK                            x       y       z     vdW  Elec       q    Type
REMARK                         _______ _______ _______ _____ _____    ______ ____
ROOT
ATOM      1  O   UNL     1      -2.379   9.935  16.675  0.00  0.00    +0.000 OA
ATOM      2  C   UNL     1      -3.003  10.611  17.488  0.00  0.00    +0.000 A 
ATOM      3  N   UNL     1      -4.349  10.792  17.336  0.00  0.00    +0.000 N 
ATOM      4  C   UNL     1      -5.130  11.570  18.189  0.00  0.00    +0.000 A 
ATOM      5  C   UNL     1      -6.508  11.651  17.971  0.00  0.00    +0.000 A 
ATOM      6  C   UNL     1      -7.300  12.413  18.830  0.00  0.00    +0.000 A 
ATOM      7  C   UNL     1      -6.708  13.097  19.888  0.00  0.00    +0.000 A 
ATOM      8 CL   UNL     1      -7.686  14.027  20.956  0.00  0.00    +0.000 Cl
ATOM      9  C   UNL     1      -5.331  13.024  20.098  0.00  0.00    +0.000 A 
ATOM     10  C   UNL     1      -4.522  12.249  19.252  0.00  0.00    +0.000 A 
ATOM     11  C   UNL     1      -3.061  12.092  19.491  0.00  0.00    +0.000 A 
ATOM     12  C   UNL     1      -2.347  11.278  18.669  0.00  0.00    +0.000 A 
ATOM     13  H   UNL     1      -4.764  10.311  16.550  0.00  0.00    +0.000 HD
ENDROOT
BRANCH  11  14
ATOM     14  C   UNL     1      -2.370  12.750  20.631  0.00  0.00    +0.000 A 
ATOM     15  C   UNL     1      -1.664  13.946  20.433  0.00  0.00    +0.000 A 
ATOM     16  C   UNL     1      -0.981  14.536  21.495  0.00  0.00    +0.000 A 
ATOM     17  C   UNL     1      -1.010  13.946  22.760  0.00  0.00    +0.000 A 
ATOM     18  C   UNL     1      -1.728  12.769  22.965  0.00  0.00    +0.000 A 
ATOM     19  C   UNL     1      -2.408  12.171  21.905  0.00  0.00    +0.000 A 
ENDBRANCH  11  14
BRANCH  12  20
ATOM     20  C   UNL     1      -0.985  10.958  18.948  0.00  0.00    +0.000 A 
ATOM     21  C   UNL     1      -0.395  10.095  19.851  0.00  0.00    +0.000 A 
ATOM     22  C   UNL     1       1.007  10.263  19.752  0.00  0.00    +0.000 A 
ATOM     23  C   UNL     1       1.237  11.201  18.770  0.00  0.00    +0.000 A 
ATOM     24  N   UNL     1       0.023  11.591  18.262  0.00  0.00    +0.000 N 
ATOM     25  H   UNL     1      -0.107  12.275  17.530  0.00  0.00    +0.000 HD
ENDBRANCH  12  20
TORSDOF 2
ENDMDL
