MODEL 1
REMARK VINA RESULT:      -8.4      0.000      0.000
REMARK  Name = 
REMARK  15 active torsions:
REMARK  status: ('A' for Active; 'I' for Inactive)
REMARK    1  A    between atoms: C_1  and  O_2
REMARK    2  A    between atoms: O_2  and  C_3
REMARK    3  A    between atoms: C_6  and  C_7
REMARK    4  A    between atoms: C_7  and  C_8
REMARK    5  A    between atoms: C_7  and  C_10
REMARK    6  A    between atoms: C_7  and  C_28
REMARK    7  A    between atoms: C_10  and  C_11
REMARK    8  A    between atoms: C_11  and  C_12
REMARK    9  A    between atoms: C_12  and  N_13
REMARK   10  A    between atoms: N_13  and  C_14
REMARK   11  A    between atoms: N_13  and  C_15
REMARK   12  A    between atoms: C_28  and  C_29
REMARK   13  A    between atoms: C_28  and  C_30
REMARK   14  A    between atoms: C_32  and  O_33
REMARK   15  A    between atoms: O_33  and  C_34
REMARK                            x       y       z     vdW  Elec       q    Type
REMARK                         _______ _______ _______ _____ _____    ______ ____
ROOT
ATOM      1  C   UNL     1      -0.072   9.743  20.365  0.00  0.00    +0.000 C 
ENDROOT
BRANCH   1   2
ATOM      2  C   UNL     1      -0.665  11.115  19.931  0.00  0.00    +0.000 C 
BRANCH   2   6
ATOM      3  C   UNL     1      -3.314  10.505  16.490  0.00  0.00    +0.000 A 
ATOM      4  C   UNL     1      -2.028   9.953  16.506  0.00  0.00    +0.000 A 
ATOM      5  C   UNL     1      -1.171  10.149  17.589  0.00  0.00    +0.000 A 
ATOM      6  C   UNL     1      -1.557  10.939  18.682  0.00  0.00    +0.000 A 
ATOM      7  C   UNL     1      -2.808  11.575  18.601  0.00  0.00    +0.000 A 
ATOM      8  C   UNL     1      -3.692  11.367  17.528  0.00  0.00    +0.000 A 
BRANCH   3  10
ATOM      9  C   UNL     1      -3.575  10.040  14.186  0.00  0.00    +0.000 C 
ATOM     10  O   UNL     1      -4.181  10.237  15.465  0.00  0.00    +0.000 OA
ENDBRANCH   3  10
BRANCH   8  11
ATOM     11  O   UNL     1      -4.862  12.059  17.695  0.00  0.00    +0.000 OA
ATOM     12  C   UNL     1      -6.007  11.374  18.176  0.00  0.00    +0.000 C 
ENDBRANCH   8  11
ENDBRANCH   2   6
BRANCH   2  13
ATOM     13  C   UNL     1       0.514  12.142  19.625  0.00  0.00    +0.000 C 
ATOM     14  C   UNL     1       0.097  13.280  18.673  0.00  0.00    +0.000 C 
ATOM     15  C   UNL     1       1.132  12.782  20.885  0.00  0.00    +0.000 C 
ENDBRANCH   2  13
BRANCH   2  16
ATOM     16  C   UNL     1      -1.451  11.701  21.092  0.00  0.00    +0.000 C 
ATOM     17  N   UNL     1      -2.102  12.187  22.056  0.00  0.00    +0.000 NA
ENDBRANCH   2  16
ENDBRANCH   1   2
BRANCH   1  18
ATOM     18  C   UNL     1       1.286   9.412  19.736  0.00  0.00    +0.000 C 
BRANCH  18  19
ATOM     19  C   UNL     1       1.737   7.968  20.003  0.00  0.00    +0.000 C 
BRANCH  19  20
ATOM     20  N   UNL     1       2.197   7.210  18.825  0.00  0.00    +0.000 NA
ATOM     21  C   UNL     1       2.814   8.105  17.828  0.00  0.00    +0.000 C 
BRANCH  20  22
ATOM     22  C   UNL     1       3.098   6.076  19.215  0.00  0.00    +0.000 C 
ATOM     23  C   UNL     1       2.339   4.746  19.244  0.00  0.00    +0.000 A 
ATOM     24  C   UNL     1       1.324   4.346  20.102  0.00  0.00    +0.000 A 
ATOM     25  C   UNL     1       0.735   3.100  19.882  0.00  0.00    +0.000 A 
ATOM     26  C   UNL     1       1.161   2.276  18.823  0.00  0.00    +0.000 A 
ATOM     27  C   UNL     1       2.177   2.691  17.957  0.00  0.00    +0.000 A 
ATOM     28  C   UNL     1       2.753   3.932  18.160  0.00  0.00    +0.000 A 
ATOM     29  C   UNL     1       3.809   4.612  17.442  0.00  0.00    +0.000 A 
ATOM     30  C   UNL     1       4.388   4.362  16.214  0.00  0.00    +0.000 A 
ATOM     31  C   UNL     1       5.409   5.214  15.776  0.00  0.00    +0.000 A 
ATOM     32  C   UNL     1       5.897   6.242  16.597  0.00  0.00    +0.000 A 
ATOM     33  C   UNL     1       5.289   6.518  17.820  0.00  0.00    +0.000 A 
ATOM     34  C   UNL     1       4.174   5.765  18.165  0.00  0.00    +0.000 A 
ENDBRANCH  20  22
ENDBRANCH  19  20
ENDBRANCH  18  19
ENDBRANCH   1  18
TORSDOF 10
ENDMDL
MODEL 2
REMARK VINA RESULT:      -8.3      1.446      3.643
REMARK  Name = 
REMARK  15 active torsions:
REMARK  status: ('A' for Active; 'I' for Inactive)
REMARK    1  A    between atoms: C_1  and  O_2
REMARK    2  A    between atoms: O_2  and  C_3
REMARK    3  A    between atoms: C_6  and  C_7
REMARK    4  A    between atoms: C_7  and  C_8
REMARK    5  A    between atoms: C_7  and  C_10
REMARK    6  A    between atoms: C_7  and  C_28
REMARK    7  A    between atoms: C_10  and  C_11
REMARK    8  A    between atoms: C_11  and  C_12
REMARK    9  A    between atoms: C_12  and  N_13
REMARK   10  A    between atoms: N_13  and  C_14
REMARK   11  A    between atoms: N_13  and  C_15
REMARK   12  A    between atoms: C_28  and  C_29
REMARK   13  A    between atoms: C_28  and  C_30
REMARK   14  A    between atoms: C_32  and  O_33
REMARK   15  A    between atoms: O_33  and  C_34
REMARK                            x       y       z     vdW  Elec       q    Type
REMARK                         _______ _______ _______ _____ _____    ______ ____
ROOT
ATOM      1  C   UNL     1       0.888  10.483  18.305  0.00  0.00    +0.000 C 
ENDROOT
BRANCH   1   2
ATOM      2  C   UNL     1       0.292  11.506  19.315  0.00  0.00    +0.000 C 
BRANCH   2   6
ATOM      3  C   UNL     1      -4.047  11.814  18.752  0.00  0.00    +0.000 A 
ATOM      4  C   UNL     1      -3.447  12.272  19.932  0.00  0.00    +0.000 A 
ATOM      5  C   UNL     1      -2.070  12.169  20.128  0.00  0.00    +0.000 A 
ATOM      6  C   UNL     1      -1.245  11.569  19.166  0.00  0.00    +0.000 A 
ATOM      7  C   UNL     1      -1.876  11.017  18.037  0.00  0.00    +0.000 A 
ATOM      8  C   UNL     1      -3.260  11.135  17.813  0.00  0.00    +0.000 A 
BRANCH   3  10
ATOM      9  C   UNL     1      -6.177  12.214  19.697  0.00  0.00    +0.000 C 
ATOM     10  O   UNL     1      -5.385  11.997  18.529  0.00  0.00    +0.000 OA
ENDBRANCH   3  10
BRANCH   8  11
ATOM     11  O   UNL     1      -3.631  10.557  16.630  0.00  0.00    +0.000 OA
ATOM     12  C   UNL     1      -2.783  10.689  15.500  0.00  0.00    +0.000 C 
ENDBRANCH   8  11
ENDBRANCH   2   6
BRANCH   2  13
ATOM     13  C   UNL     1       0.927  12.946  19.067  0.00  0.00    +0.000 C 
ATOM     14  C   UNL     1       1.128  13.754  20.363  0.00  0.00    +0.000 C 
ATOM     15  C   UNL     1       2.273  12.916  18.315  0.00  0.00    +0.000 C 
ENDBRANCH   2  13
BRANCH   2  16
ATOM     16  C   UNL     1       0.693  11.100  20.723  0.00  0.00    +0.000 C 
ATOM     17  N   UNL     1       1.025  10.762  21.891  0.00  0.00    +0.000 NA
ENDBRANCH   2  16
ENDBRANCH   1   2
BRANCH   1  18
ATOM     18  C   UNL     1       1.269   9.133  18.922  0.00  0.00    +0.000 C 
BRANCH  18  19
ATOM     19  C   UNL     1       1.974   8.196  17.930  0.00  0.00    +0.000 C 
BRANCH  19  20
ATOM     20  N   UNL     1       2.969   7.275  18.511  0.00  0.00    +0.000 NA
ATOM     21  C   UNL     1       2.436   6.613  19.716  0.00  0.00    +0.000 C 
BRANCH  20  22
ATOM     22  C   UNL     1       3.475   6.296  17.493  0.00  0.00    +0.000 C 
ATOM     23  C   UNL     1       4.990   6.101  17.614  0.00  0.00    +0.000 A 
ATOM     24  C   UNL     1       6.004   7.014  17.363  0.00  0.00    +0.000 A 
ATOM     25  C   UNL     1       7.318   6.618  17.616  0.00  0.00    +0.000 A 
ATOM     26  C   UNL     1       7.603   5.331  18.108  0.00  0.00    +0.000 A 
ATOM     27  C   UNL     1       6.575   4.420  18.368  0.00  0.00    +0.000 A 
ATOM     28  C   UNL     1       5.270   4.813  18.135  0.00  0.00    +0.000 A 
ATOM     29  C   UNL     1       4.023   4.096  18.302  0.00  0.00    +0.000 A 
ATOM     30  C   UNL     1       3.726   2.922  18.965  0.00  0.00    +0.000 A 
ATOM     31  C   UNL     1       2.400   2.472  18.952  0.00  0.00    +0.000 A 
ATOM     32  C   UNL     1       1.413   3.143  18.214  0.00  0.00    +0.000 A 
ATOM     33  C   UNL     1       1.705   4.346  17.577  0.00  0.00    +0.000 A 
ATOM     34  C   UNL     1       2.986   4.861  17.734  0.00  0.00    +0.000 A 
ENDBRANCH  20  22
ENDBRANCH  19  20
ENDBRANCH  18  19
ENDBRANCH   1  18
TORSDOF 10
ENDMDL
MODEL 3
REMARK VINA RESULT:      -8.3      1.512      3.413
REMARK  Name = 
REMARK  15 active torsions:
REMARK  status: ('A' for Active; 'I' for Inactive)
REMARK    1  A    between atoms: C_1  and  O_2
REMARK    2  A    between atoms: O_2  and  C_3
REMARK    3  A    between atoms: C_6  and  C_7
REMARK    4  A    between atoms: C_7  and  C_8
REMARK    5  A    between atoms: C_7  and  C_10
REMARK    6  A    between atoms: C_7  and  C_28
REMARK    7  A    between atoms: C_10  and  C_11
REMARK    8  A    between atoms: C_11  and  C_12
REMARK    9  A    between atoms: C_12  and  N_13
REMARK   10  A    between atoms: N_13  and  C_14
REMARK   11  A    between atoms: N_13  and  C_15
REMARK   12  A    between atoms: C_28  and  C_29
REMARK   13  A    between atoms: C_28  and  C_30
REMARK   14  A    between atoms: C_32  and  O_33
REMARK   15  A    between atoms: O_33  and  C_34
REMARK                            x       y       z     vdW  Elec       q    Type
REMARK                         _______ _______ _______ _____ _____    ______ ____
ROOT
ATOM      1  C   UNL     1       0.516  10.228  18.256  0.00  0.00    +0.000 C 
ENDROOT
BRANCH   1   2
ATOM      2  C   UNL     1      -0.328  10.970  19.334  0.00  0.00    +0.000 C 
BRANCH   2   6
ATOM      3  C   UNL     1      -4.529  11.322  18.125  0.00  0.00    +0.000 A 
ATOM      4  C   UNL     1      -3.645  10.510  17.404  0.00  0.00    +0.000 A 
ATOM      5  C   UNL     1      -2.304  10.398  17.771  0.00  0.00    +0.000 A 
ATOM      6  C   UNL     1      -1.788  11.127  18.852  0.00  0.00    +0.000 A 
ATOM      7  C   UNL     1      -2.661  12.020  19.497  0.00  0.00    +0.000 A 
ATOM      8  C   UNL     1      -4.021  12.125  19.155  0.00  0.00    +0.000 A 
BRANCH   3  10
ATOM      9  C   UNL     1      -6.289  12.515  17.090  0.00  0.00    +0.000 C 
ATOM     10  O   UNL     1      -5.861  11.360  17.813  0.00  0.00    +0.000 OA
ENDBRANCH   3  10
BRANCH   8  11
ATOM     11  O   UNL     1      -4.674  13.027  19.950  0.00  0.00    +0.000 OA
ATOM     12  C   UNL     1      -4.902  12.708  21.314  0.00  0.00    +0.000 C 
ENDBRANCH   8  11
ENDBRANCH   2   6
BRANCH   2  13
ATOM     13  C   UNL     1       0.310  12.400  19.631  0.00  0.00    +0.000 C 
ATOM     14  C   UNL     1       1.276  12.397  20.832  0.00  0.00    +0.000 C 
ATOM     15  C   UNL     1       1.052  13.018  18.429  0.00  0.00    +0.000 C 
ENDBRANCH   2  13
BRANCH   2  16
ATOM     16  C   UNL     1      -0.257  10.191  20.637  0.00  0.00    +0.000 C 
ATOM     17  N   UNL     1      -0.199   9.546  21.718  0.00  0.00    +0.000 NA
ENDBRANCH   2  16
ENDBRANCH   1   2
BRANCH   1  18
ATOM     18  C   UNL     1       1.647   9.363  18.823  0.00  0.00    +0.000 C 
BRANCH  18  19
ATOM     19  C   UNL     1       1.878   8.073  18.021  0.00  0.00    +0.000 C 
BRANCH  19  20
ATOM     20  N   UNL     1       2.894   7.152  18.563  0.00  0.00    +0.000 NA
ATOM     21  C   UNL     1       2.392   6.458  19.763  0.00  0.00    +0.000 C 
BRANCH  20  22
ATOM     22  C   UNL     1       3.391   6.201  17.515  0.00  0.00    +0.000 C 
ATOM     23  C   UNL     1       4.918   6.086  17.547  0.00  0.00    +0.000 A 
ATOM     24  C   UNL     1       5.867   7.051  17.240  0.00  0.00    +0.000 A 
ATOM     25  C   UNL     1       7.212   6.725  17.415  0.00  0.00    +0.000 A 
ATOM     26  C   UNL     1       7.593   5.455  17.886  0.00  0.00    +0.000 A 
ATOM     27  C   UNL     1       6.630   4.491  18.203  0.00  0.00    +0.000 A 
ATOM     28  C   UNL     1       5.295   4.815  18.047  0.00  0.00    +0.000 A 
ATOM     29  C   UNL     1       4.100   4.033  18.284  0.00  0.00    +0.000 A 
ATOM     30  C   UNL     1       3.904   2.845  18.959  0.00  0.00    +0.000 A 
ATOM     31  C   UNL     1       2.605   2.325  19.022  0.00  0.00    +0.000 A 
ATOM     32  C   UNL     1       1.543   2.943  18.344  0.00  0.00    +0.000 A 
ATOM     33  C   UNL     1       1.734   4.161  17.694  0.00  0.00    +0.000 A 
ATOM     34  C   UNL     1       2.992   4.742  17.779  0.00  0.00    +0.000 A 
ENDBRANCH  20  22
ENDBRANCH  19  20
ENDBRANCH  18  19
ENDBRANCH   1  18
TORSDOF 10
ENDMDL
MODEL 4
REMARK VINA RESULT:      -8.2      1.208      2.097
REMARK  Name = 
REMARK  15 active torsions:
REMARK  status: ('A' for Active; 'I' for Inactive)
REMARK    1  A    between atoms: C_1  and  O_2
REMARK    2  A    between atoms: O_2  and  C_3
REMARK    3  A    between atoms: C_6  and  C_7
REMARK    4  A    between atoms: C_7  and  C_8
REMARK    5  A    between atoms: C_7  and  C_10
REMARK    6  A    between atoms: C_7  and  C_28
REMARK    7  A    between atoms: C_10  and  C_11
REMARK    8  A    between atoms: C_11  and  C_12
REMARK    9  A    between atoms: C_12  and  N_13
REMARK   10  A    between atoms: N_13  and  C_14
REMARK   11  A    between atoms: N_13  and  C_15
REMARK   12  A    between atoms: C_28  and  C_29
REMARK   13  A    between atoms: C_28  and  C_30
REMARK   14  A    between atoms: C_32  and  O_33
REMARK   15  A    between atoms: O_33  and  C_34
REMARK                            x       y       z     vdW  Elec       q    Type
REMARK                         _______ _______ _______ _____ _____    ______ ____
ROOT
ATOM      1  C   UNL     1       1.430  10.129  18.388  0.00  0.00    +0.000 C 
ENDROOT
BRANCH   1   2
ATOM      2  C   UNL     1       0.629  11.145  19.253  0.00  0.00    +0.000 C 
BRANCH   2   6
ATOM      3  C   UNL     1      -3.533  11.283  17.876  0.00  0.00    +0.000 A 
ATOM      4  C   UNL     1      -3.141  11.970  19.032  0.00  0.00    +0.000 A 
ATOM      5  C   UNL     1      -1.824  11.924  19.487  0.00  0.00    +0.000 A 
ATOM      6  C   UNL     1      -0.855  11.157  18.823  0.00  0.00    +0.000 A 
ATOM      7  C   UNL     1      -1.289  10.388  17.729  0.00  0.00    +0.000 A 
ATOM      8  C   UNL     1      -2.608  10.443  17.244  0.00  0.00    +0.000 A 
BRANCH   3  10
ATOM      9  C   UNL     1      -5.847  11.021  18.288  0.00  0.00    +0.000 C 
ATOM     10  O   UNL     1      -4.806  11.401  17.387  0.00  0.00    +0.000 OA
ENDBRANCH   3  10
BRANCH   8  11
ATOM     11  O   UNL     1      -2.776   9.640  16.148  0.00  0.00    +0.000 OA
ATOM     12  C   UNL     1      -2.897  10.236  14.866  0.00  0.00    +0.000 C 
ENDBRANCH   8  11
ENDBRANCH   2   6
BRANCH   2  13
ATOM     13  C   UNL     1       1.258  12.601  19.100  0.00  0.00    +0.000 C 
ATOM     14  C   UNL     1       1.659  13.234  20.447  0.00  0.00    +0.000 C 
ATOM     15  C   UNL     1       2.483  12.660  18.166  0.00  0.00    +0.000 C 
ENDBRANCH   2  13
BRANCH   2  16
ATOM     16  C   UNL     1       0.775  10.768  20.718  0.00  0.00    +0.000 C 
ATOM     17  N   UNL     1       0.897  10.456  21.933  0.00  0.00    +0.000 NA
ENDBRANCH   2  16
ENDBRANCH   1   2
BRANCH   1  18
ATOM     18  C   UNL     1       1.127   8.659  18.695  0.00  0.00    +0.000 C 
BRANCH  18  19
ATOM     19  C   UNL     1       2.364   7.872  19.154  0.00  0.00    +0.000 C 
BRANCH  19  20
ATOM     20  N   UNL     1       2.912   6.910  18.181  0.00  0.00    +0.000 NA
ATOM     21  C   UNL     1       3.751   7.592  17.178  0.00  0.00    +0.000 C 
BRANCH  20  22
ATOM     22  C   UNL     1       3.632   5.784  18.863  0.00  0.00    +0.000 C 
ATOM     23  C   UNL     1       2.784   4.508  18.877  0.00  0.00    +0.000 A 
ATOM     24  C   UNL     1       1.595   4.266  19.549  0.00  0.00    +0.000 A 
ATOM     25  C   UNL     1       0.969   3.035  19.346  0.00  0.00    +0.000 A 
ATOM     26  C   UNL     1       1.530   2.071  18.489  0.00  0.00    +0.000 A 
ATOM     27  C   UNL     1       2.723   2.327  17.807  0.00  0.00    +0.000 A 
ATOM     28  C   UNL     1       3.340   3.551  17.991  0.00  0.00    +0.000 A 
ATOM     29  C   UNL     1       4.565   4.085  17.435  0.00  0.00    +0.000 A 
ATOM     30  C   UNL     1       5.351   3.662  16.383  0.00  0.00    +0.000 A 
ATOM     31  C   UNL     1       6.499   4.402  16.073  0.00  0.00    +0.000 A 
ATOM     32  C   UNL     1       6.893   5.493  16.864  0.00  0.00    +0.000 A 
ATOM     33  C   UNL     1       6.080   5.942  17.901  0.00  0.00    +0.000 A 
ATOM     34  C   UNL     1       4.866   5.295  18.091  0.00  0.00    +0.000 A 
ENDBRANCH  20  22
ENDBRANCH  19  20
ENDBRANCH  18  19
ENDBRANCH   1  18
TORSDOF 10
ENDMDL
MODEL 5
REMARK VINA RESULT:      -8.2      0.944      1.881
REMARK  Name = 
REMARK  15 active torsions:
REMARK  status: ('A' for Active; 'I' for Inactive)
REMARK    1  A    between atoms: C_1  and  O_2
REMARK    2  A    between atoms: O_2  and  C_3
REMARK    3  A    between atoms: C_6  and  C_7
REMARK    4  A    between atoms: C_7  and  C_8
REMARK    5  A    between atoms: C_7  and  C_10
REMARK    6  A    between atoms: C_7  and  C_28
REMARK    7  A    between atoms: C_10  and  C_11
REMARK    8  A    between atoms: C_11  and  C_12
REMARK    9  A    between atoms: C_12  and  N_13
REMARK   10  A    between atoms: N_13  and  C_14
REMARK   11  A    between atoms: N_13  and  C_15
REMARK   12  A    between atoms: C_28  and  C_29
REMARK   13  A    between atoms: C_28  and  C_30
REMARK   14  A    between atoms: C_32  and  O_33
REMARK   15  A    between atoms: O_33  and  C_34
REMARK                            x       y       z     vdW  Elec       q    Type
REMARK                         _______ _______ _______ _____ _____    ______ ____
ROOT
ATOM      1  C   UNL     1       0.830  10.589  18.659  0.00  0.00    +0.000 C 
ENDROOT
BRANCH   1   2
ATOM      2  C   UNL     1      -0.003  11.820  19.121  0.00  0.00    +0.000 C 
BRANCH   2   6
ATOM      3  C   UNL     1      -4.120  11.628  17.621  0.00  0.00    +0.000 A 
ATOM      4  C   UNL     1      -3.867  11.812  18.986  0.00  0.00    +0.000 A 
ATOM      5  C   UNL     1      -2.562  11.864  19.477  0.00  0.00    +0.000 A 
ATOM      6  C   UNL     1      -1.461  11.694  18.625  0.00  0.00    +0.000 A 
ATOM      7  C   UNL     1      -1.735  11.401  17.277  0.00  0.00    +0.000 A 
ATOM      8  C   UNL     1      -3.044  11.371  16.763  0.00  0.00    +0.000 A 
BRANCH   3  10
ATOM      9  C   UNL     1      -6.429  11.736  18.120  0.00  0.00    +0.000 C 
ATOM     10  O   UNL     1      -5.399  11.666  17.134  0.00  0.00    +0.000 OA
ENDBRANCH   3  10
BRANCH   8  11
ATOM     11  O   UNL     1      -3.052  11.108  15.419  0.00  0.00    +0.000 OA
ATOM     12  C   UNL     1      -2.948   9.764  14.978  0.00  0.00    +0.000 C 
ENDBRANCH   8  11
ENDBRANCH   2   6
BRANCH   2  13
ATOM     13  C   UNL     1       0.653  13.160  18.561  0.00  0.00    +0.000 C 
ATOM     14  C   UNL     1      -0.133  14.428  18.944  0.00  0.00    +0.000 C 
ATOM     15  C   UNL     1       2.120  13.366  18.989  0.00  0.00    +0.000 C 
ENDBRANCH   2  13
BRANCH   2  16
ATOM     16  C   UNL     1       0.058  11.916  20.636  0.00  0.00    +0.000 C 
ATOM     17  N   UNL     1       0.108  11.994  21.893  0.00  0.00    +0.000 NA
ENDBRANCH   2  16
ENDBRANCH   1   2
BRANCH   1  18
ATOM     18  C   UNL     1       0.565   9.310  19.459  0.00  0.00    +0.000 C 
BRANCH  18  19
ATOM     19  C   UNL     1       1.835   8.484  19.711  0.00  0.00    +0.000 C 
BRANCH  19  20
ATOM     20  N   UNL     1       2.165   7.479  18.684  0.00  0.00    +0.000 NA
ATOM     21  C   UNL     1       2.651   8.124  17.450  0.00  0.00    +0.000 C 
BRANCH  20  22
ATOM     22  C   UNL     1       3.119   6.447  19.207  0.00  0.00    +0.000 C 
ATOM     23  C   UNL     1       2.398   5.133  19.525  0.00  0.00    +0.000 A 
ATOM     24  C   UNL     1       1.453   4.879  20.509  0.00  0.00    +0.000 A 
ATOM     25  C   UNL     1       0.884   3.606  20.557  0.00  0.00    +0.000 A 
ATOM     26  C   UNL     1       1.260   2.611  19.636  0.00  0.00    +0.000 A 
ATOM     27  C   UNL     1       2.205   2.878  18.641  0.00  0.00    +0.000 A 
ATOM     28  C   UNL     1       2.761   4.142  18.579  0.00  0.00    +0.000 A 
ATOM     29  C   UNL     1       3.750   4.697  17.679  0.00  0.00    +0.000 A 
ATOM     30  C   UNL     1       4.253   4.238  16.479  0.00  0.00    +0.000 A 
ATOM     31  C   UNL     1       5.221   5.012  15.826  0.00  0.00    +0.000 A 
ATOM     32  C   UNL     1       5.735   6.177  16.414  0.00  0.00    +0.000 A 
ATOM     33  C   UNL     1       5.201   6.660  17.607  0.00  0.00    +0.000 A 
ATOM     34  C   UNL     1       4.131   5.966  18.158  0.00  0.00    +0.000 A 
ENDBRANCH  20  22
ENDBRANCH  19  20
ENDBRANCH  18  19
ENDBRANCH   1  18
TORSDOF 10
ENDMDL
MODEL 6
REMARK VINA RESULT:      -8.2      1.274      3.491
REMARK  Name = 
REMARK  15 active torsions:
REMARK  status: ('A' for Active; 'I' for Inactive)
REMARK    1  A    between atoms: C_1  and  O_2
REMARK    2  A    between atoms: O_2  and  C_3
REMARK    3  A    between atoms: C_6  and  C_7
REMARK    4  A    between atoms: C_7  and  C_8
REMARK    5  A    between atoms: C_7  and  C_10
REMARK    6  A    between atoms: C_7  and  C_28
REMARK    7  A    between atoms: C_10  and  C_11
REMARK    8  A    between atoms: C_11  and  C_12
REMARK    9  A    between atoms: C_12  and  N_13
REMARK   10  A    between atoms: N_13  and  C_14
REMARK   11  A    between atoms: N_13  and  C_15
REMARK   12  A    between atoms: C_28  and  C_29
REMARK   13  A    between atoms: C_28  and  C_30
REMARK   14  A    between atoms: C_32  and  O_33
REMARK   15  A    between atoms: O_33  and  C_34
REMARK                            x       y       z     vdW  Elec       q    Type
REMARK                         _______ _______ _______ _____ _____    ______ ____
ROOT
ATOM      1  C   UNL     1       1.178   9.636  18.174  0.00  0.00    +0.000 C 
ENDROOT
BRANCH   1   2
ATOM      2  C   UNL     1       0.250  10.364  19.191  0.00  0.00    +0.000 C 
BRANCH   2   6
ATOM      3  C   UNL     1      -3.626  11.124  17.286  0.00  0.00    +0.000 A 
ATOM      4  C   UNL     1      -3.323  11.683  18.534  0.00  0.00    +0.000 A 
ATOM      5  C   UNL     1      -2.099  11.439  19.156  0.00  0.00    +0.000 A 
ATOM      6  C   UNL     1      -1.145  10.595  18.568  0.00  0.00    +0.000 A 
ATOM      7  C   UNL     1      -1.508   9.956  17.369  0.00  0.00    +0.000 A 
ATOM      8  C   UNL     1      -2.728  10.211  16.718  0.00  0.00    +0.000 A 
BRANCH   3  10
ATOM      9  C   UNL     1      -5.670  12.312  17.352  0.00  0.00    +0.000 C 
ATOM     10  O   UNL     1      -4.793  11.437  16.641  0.00  0.00    +0.000 OA
ENDBRANCH   3  10
BRANCH   8  11
ATOM     11  O   UNL     1      -2.834   9.506  15.550  0.00  0.00    +0.000 OA
ATOM     12  C   UNL     1      -3.029  10.208  14.333  0.00  0.00    +0.000 C 
ENDBRANCH   8  11
ENDBRANCH   2   6
BRANCH   2  13
ATOM     13  C   UNL     1       0.900  11.755  19.617  0.00  0.00    +0.000 C 
ATOM     14  C   UNL     1       0.779  12.841  18.530  0.00  0.00    +0.000 C 
ATOM     15  C   UNL     1       0.334  12.336  20.929  0.00  0.00    +0.000 C 
ENDBRANCH   2  13
BRANCH   2  16
ATOM     16  C   UNL     1       0.158   9.530  20.458  0.00  0.00    +0.000 C 
ATOM     17  N   UNL     1       0.082   8.838  21.509  0.00  0.00    +0.000 NA
ENDBRANCH   2  16
ENDBRANCH   1   2
BRANCH   1  18
ATOM     18  C   UNL     1       1.336   8.133  18.425  0.00  0.00    +0.000 C 
BRANCH  18  19
ATOM     19  C   UNL     1       2.648   7.777  19.141  0.00  0.00    +0.000 C 
BRANCH  19  20
ATOM     20  N   UNL     1       2.997   6.345  19.170  0.00  0.00    +0.000 NA
ATOM     21  C   UNL     1       2.296   5.652  20.266  0.00  0.00    +0.000 C 
BRANCH  20  22
ATOM     22  C   UNL     1       2.767   5.694  17.838  0.00  0.00    +0.000 C 
ATOM     23  C   UNL     1       4.076   5.552  17.054  0.00  0.00    +0.000 A 
ATOM     24  C   UNL     1       4.879   6.551  16.521  0.00  0.00    +0.000 A 
ATOM     25  C   UNL     1       6.071   6.171  15.904  0.00  0.00    +0.000 A 
ATOM     26  C   UNL     1       6.444   4.817  15.823  0.00  0.00    +0.000 A 
ATOM     27  C   UNL     1       5.634   3.817  16.372  0.00  0.00    +0.000 A 
ATOM     28  C   UNL     1       4.460   4.189  16.999  0.00  0.00    +0.000 A 
ATOM     29  C   UNL     1       3.437   3.390  17.641  0.00  0.00    +0.000 A 
ATOM     30  C   UNL     1       3.428   2.070  18.044  0.00  0.00    +0.000 A 
ATOM     31  C   UNL     1       2.269   1.570  18.651  0.00  0.00    +0.000 A 
ATOM     32  C   UNL     1       1.114   2.360  18.769  0.00  0.00    +0.000 A 
ATOM     33  C   UNL     1       1.136   3.702  18.396  0.00  0.00    +0.000 A 
ATOM     34  C   UNL     1       2.342   4.223  17.945  0.00  0.00    +0.000 A 
ENDBRANCH  20  22
ENDBRANCH  19  20
ENDBRANCH  18  19
ENDBRANCH   1  18
TORSDOF 10
ENDMDL
MODEL 7
REMARK VINA RESULT:      -8.1      1.414      3.381
REMARK  Name = 
REMARK  15 active torsions:
REMARK  status: ('A' for Active; 'I' for Inactive)
REMARK    1  A    between atoms: C_1  and  O_2
REMARK    2  A    between atoms: O_2  and  C_3
REMARK    3  A    between atoms: C_6  and  C_7
REMARK    4  A    between atoms: C_7  and  C_8
REMARK    5  A    between atoms: C_7  and  C_10
REMARK    6  A    between atoms: C_7  and  C_28
REMARK    7  A    between atoms: C_10  and  C_11
REMARK    8  A    between atoms: C_11  and  C_12
REMARK    9  A    between atoms: C_12  and  N_13
REMARK   10  A    between atoms: N_13  and  C_14
REMARK   11  A    between atoms: N_13  and  C_15
REMARK   12  A    between atoms: C_28  and  C_29
REMARK   13  A    between atoms: C_28  and  C_30
REMARK   14  A    between atoms: C_32  and  O_33
REMARK   15  A    between atoms: O_33  and  C_34
REMARK                            x       y       z     vdW  Elec       q    Type
REMARK                         _______ _______ _______ _____ _____    ______ ____
ROOT
ATOM      1  C   UNL     1       0.663   8.981  18.262  0.00  0.00    +0.000 C 
ENDROOT
BRANCH   1   2
ATOM      2  C   UNL     1       0.143  10.060  19.256  0.00  0.00    +0.000 C 
BRANCH   2   6
ATOM      3  C   UNL     1      -3.749  11.619  17.968  0.00  0.00    +0.000 A 
ATOM      4  C   UNL     1      -3.023  10.747  17.147  0.00  0.00    +0.000 A 
ATOM      5  C   UNL     1      -1.779  10.254  17.540  0.00  0.00    +0.000 A 
ATOM      6  C   UNL     1      -1.197  10.645  18.754  0.00  0.00    +0.000 A 
ATOM      7  C   UNL     1      -1.888  11.604  19.516  0.00  0.00    +0.000 A 
ATOM      8  C   UNL     1      -3.154  12.091  19.145  0.00  0.00    +0.000 A 
BRANCH   3  10
ATOM      9  C   UNL     1      -6.064  11.135  17.965  0.00  0.00    +0.000 C 
ATOM     10  O   UNL     1      -5.006  12.030  17.617  0.00  0.00    +0.000 OA
ENDBRANCH   3  10
BRANCH   8  11
ATOM     11  O   UNL     1      -3.642  12.980  20.064  0.00  0.00    +0.000 OA
ATOM     12  C   UNL     1      -4.527  12.517  21.072  0.00  0.00    +0.000 C 
ENDBRANCH   8  11
ENDBRANCH   2   6
BRANCH   2  13
ATOM     13  C   UNL     1       1.225  11.220  19.412  0.00  0.00    +0.000 C 
ATOM     14  C   UNL     1       1.149  12.276  18.293  0.00  0.00    +0.000 C 
ATOM     15  C   UNL     1       1.162  11.958  20.765  0.00  0.00    +0.000 C 
ENDBRANCH   2  13
BRANCH   2  16
ATOM     16  C   UNL     1      -0.010   9.431  20.631  0.00  0.00    +0.000 C 
ATOM     17  N   UNL     1      -0.138   8.908  21.771  0.00  0.00    +0.000 NA
ENDBRANCH   2  16
ENDBRANCH   1   2
BRANCH   1  18
ATOM     18  C   UNL     1       2.116   8.554  18.495  0.00  0.00    +0.000 C 
BRANCH  18  19
ATOM     19  C   UNL     1       2.258   7.459  19.563  0.00  0.00    +0.000 C 
BRANCH  19  20
ATOM     20  N   UNL     1       3.139   6.330  19.214  0.00  0.00    +0.000 NA
ATOM     21  C   UNL     1       3.112   5.294  20.264  0.00  0.00    +0.000 C 
BRANCH  20  22
ATOM     22  C   UNL     1       2.819   5.779  17.856  0.00  0.00    +0.000 C 
ATOM     23  C   UNL     1       4.088   5.591  17.018  0.00  0.00    +0.000 A 
ATOM     24  C   UNL     1       4.946   6.559  16.516  0.00  0.00    +0.000 A 
ATOM     25  C   UNL     1       6.086   6.132  15.835  0.00  0.00    +0.000 A 
ATOM     26  C   UNL     1       6.354   4.762  15.662  0.00  0.00    +0.000 A 
ATOM     27  C   UNL     1       5.490   3.792  16.180  0.00  0.00    +0.000 A 
ATOM     28  C   UNL     1       4.367   4.210  16.869  0.00  0.00    +0.000 A 
ATOM     29  C   UNL     1       3.309   3.449  17.500  0.00  0.00    +0.000 A 
ATOM     30  C   UNL     1       3.213   2.111  17.825  0.00  0.00    +0.000 A 
ATOM     31  C   UNL     1       2.040   1.661  18.444  0.00  0.00    +0.000 A 
ATOM     32  C   UNL     1       0.952   2.523  18.649  0.00  0.00    +0.000 A 
ATOM     33  C   UNL     1       1.062   3.880  18.355  0.00  0.00    +0.000 A 
ATOM     34  C   UNL     1       2.289   4.339  17.892  0.00  0.00    +0.000 A 
ENDBRANCH  20  22
ENDBRANCH  19  20
ENDBRANCH  18  19
ENDBRANCH   1  18
TORSDOF 10
ENDMDL
MODEL 8
REMARK VINA RESULT:      -8.1      1.265      1.792
REMARK  Name = 
REMARK  15 active torsions:
REMARK  status: ('A' for Active; 'I' for Inactive)
REMARK    1  A    between atoms: C_1  and  O_2
REMARK    2  A    between atoms: O_2  and  C_3
REMARK    3  A    between atoms: C_6  and  C_7
REMARK    4  A    between atoms: C_7  and  C_8
REMARK    5  A    between atoms: C_7  and  C_10
REMARK    6  A    between atoms: C_7  and  C_28
REMARK    7  A    between atoms: C_10  and  C_11
REMARK    8  A    between atoms: C_11  and  C_12
REMARK    9  A    between atoms: C_12  and  N_13
REMARK   10  A    between atoms: N_13  and  C_14
REMARK   11  A    between atoms: N_13  and  C_15
REMARK   12  A    between atoms: C_28  and  C_29
REMARK   13  A    between atoms: C_28  and  C_30
REMARK   14  A    between atoms: C_32  and  O_33
REMARK   15  A    between atoms: O_33  and  C_34
REMARK                            x       y       z     vdW  Elec       q    Type
REMARK                         _______ _______ _______ _____ _____    ______ ____
ROOT
ATOM      1  C   UNL     1       0.537  10.387  19.333  0.00  0.00    +0.000 C 
ENDROOT
BRANCH   1   2
ATOM      2  C   UNL     1      -0.239  11.513  20.077  0.00  0.00    +0.000 C 
BRANCH   2   6
ATOM      3  C   UNL     1      -4.381  11.726  18.651  0.00  0.00    +0.000 A 
ATOM      4  C   UNL     1      -3.417  11.007  17.934  0.00  0.00    +0.000 A 
ATOM      5  C   UNL     1      -2.093  10.941  18.370  0.00  0.00    +0.000 A 
ATOM      6  C   UNL     1      -1.677  11.625  19.522  0.00  0.00    +0.000 A 
ATOM      7  C   UNL     1      -2.632  12.430  20.168  0.00  0.00    +0.000 A 
ATOM      8  C   UNL     1      -3.975  12.486  19.755  0.00  0.00    +0.000 A 
BRANCH   3  10
ATOM      9  C   UNL     1      -6.020  12.572  17.170  0.00  0.00    +0.000 C 
ATOM     10  O   UNL     1      -5.695  11.714  18.265  0.00  0.00    +0.000 OA
ENDBRANCH   3  10
BRANCH   8  11
ATOM     11  O   UNL     1      -4.719  13.301  20.564  0.00  0.00    +0.000 OA
ATOM     12  C   UNL     1      -5.396  12.739  21.677  0.00  0.00    +0.000 C 
ENDBRANCH   8  11
ENDBRANCH   2   6
BRANCH   2  13
ATOM     13  C   UNL     1       0.525  12.901  19.906  0.00  0.00    +0.000 C 
ATOM     14  C   UNL     1       1.952  12.884  20.489  0.00  0.00    +0.000 C 
ATOM     15  C   UNL     1       0.616  13.392  18.447  0.00  0.00    +0.000 C 
ENDBRANCH   2  13
BRANCH   2  16
ATOM     16  C   UNL     1      -0.244  11.208  21.565  0.00  0.00    +0.000 C 
ATOM     17  N   UNL     1      -0.248  10.956  22.800  0.00  0.00    +0.000 NA
ENDBRANCH   2  16
ENDBRANCH   1   2
BRANCH   1  18
ATOM     18  C   UNL     1       0.550   9.040  20.063  0.00  0.00    +0.000 C 
BRANCH  18  19
ATOM     19  C   UNL     1       1.928   8.361  20.049  0.00  0.00    +0.000 C 
BRANCH  19  20
ATOM     20  N   UNL     1       2.177   7.435  18.929  0.00  0.00    +0.000 NA
ATOM     21  C   UNL     1       2.695   8.156  17.752  0.00  0.00    +0.000 C 
BRANCH  20  22
ATOM     22  C   UNL     1       3.063   6.297  19.341  0.00  0.00    +0.000 C 
ATOM     23  C   UNL     1       2.273   4.988  19.451  0.00  0.00    +0.000 A 
ATOM     24  C   UNL     1       1.277   4.651  20.357  0.00  0.00    +0.000 A 
ATOM     25  C   UNL     1       0.652   3.412  20.209  0.00  0.00    +0.000 A 
ATOM     26  C   UNL     1       1.024   2.533  19.176  0.00  0.00    +0.000 A 
ATOM     27  C   UNL     1       2.021   2.885  18.261  0.00  0.00    +0.000 A 
ATOM     28  C   UNL     1       2.633   4.118  18.392  0.00  0.00    +0.000 A 
ATOM     29  C   UNL     1       3.683   4.739  17.613  0.00  0.00    +0.000 A 
ATOM     30  C   UNL     1       4.216   4.422  16.380  0.00  0.00    +0.000 A 
ATOM     31  C   UNL     1       5.243   5.229  15.874  0.00  0.00    +0.000 A 
ATOM     32  C   UNL     1       5.781   6.279  16.634  0.00  0.00    +0.000 A 
ATOM     33  C   UNL     1       5.218   6.622  17.861  0.00  0.00    +0.000 A 
ATOM     34  C   UNL     1       4.097   5.913  18.273  0.00  0.00    +0.000 A 
ENDBRANCH  20  22
ENDBRANCH  19  20
ENDBRANCH  18  19
ENDBRANCH   1  18
TORSDOF 10
ENDMDL
MODEL 9
REMARK VINA RESULT:      -8.1      3.676      8.461
REMARK  Name = 
REMARK  15 active torsions:
REMARK  status: ('A' for Active; 'I' for Inactive)
REMARK    1  A    between atoms: C_1  and  O_2
REMARK    2  A    between atoms: O_2  and  C_3
REMARK    3  A    between atoms: C_6  and  C_7
REMARK    4  A    between atoms: C_7  and  C_8
REMARK    5  A    between atoms: C_7  and  C_10
REMARK    6  A    between atoms: C_7  and  C_28
REMARK    7  A    between atoms: C_10  and  C_11
REMARK    8  A    between atoms: C_11  and  C_12
REMARK    9  A    between atoms: C_12  and  N_13
REMARK   10  A    between atoms: N_13  and  C_14
REMARK   11  A    between atoms: N_13  and  C_15
REMARK   12  A    between atoms: C_28  and  C_29
REMARK   13  A    between atoms: C_28  and  C_30
REMARK   14  A    between atoms: C_32  and  O_33
REMARK   15  A    between atoms: O_33  and  C_34
REMARK                            x       y       z     vdW  Elec       q    Type
REMARK                         _______ _______ _______ _____ _____    ______ ____
ROOT
ATOM      1  C   UNL     1       1.029  11.699  19.531  0.00  0.00    +0.000 C 
ENDROOT
BRANCH   1   2
ATOM      2  C   UNL     1       0.297  10.358  19.231  0.00  0.00    +0.000 C 
BRANCH   2   6
ATOM      3  C   UNL     1      -3.580  11.238  17.380  0.00  0.00    +0.000 A 
ATOM      4  C   UNL     1      -3.213  11.843  18.588  0.00  0.00    +0.000 A 
ATOM      5  C   UNL     1      -1.988  11.563  19.193  0.00  0.00    +0.000 A 
ATOM      6  C   UNL     1      -1.099  10.636  18.630  0.00  0.00    +0.000 A 
ATOM      7  C   UNL     1      -1.529   9.957  17.476  0.00  0.00    +0.000 A 
ATOM      8  C   UNL     1      -2.749  10.247  16.841  0.00  0.00    +0.000 A 
BRANCH   3  10
ATOM      9  C   UNL     1      -5.705  12.259  17.559  0.00  0.00    +0.000 C 
ATOM     10  O   UNL     1      -4.744  11.583  16.747  0.00  0.00    +0.000 OA
ENDBRANCH   3  10
BRANCH   8  11
ATOM     11  O   UNL     1      -2.926   9.488  15.716  0.00  0.00    +0.000 OA
ATOM     12  C   UNL     1      -2.945  10.126  14.448  0.00  0.00    +0.000 C 
ENDBRANCH   8  11
ENDBRANCH   2   6
BRANCH   2  13
ATOM     13  C   UNL     1       0.160   9.505  20.570  0.00  0.00    +0.000 C 
ATOM     14  C   UNL     1       1.290   8.473  20.752  0.00  0.00    +0.000 C 
ATOM     15  C   UNL     1       0.086  10.358  21.852  0.00  0.00    +0.000 C 
ENDBRANCH   2  13
BRANCH   2  16
ATOM     16  C   UNL     1       1.151   9.531  18.284  0.00  0.00    +0.000 C 
ATOM     17  N   UNL     1       1.859   8.845  17.498  0.00  0.00    +0.000 NA
ENDBRANCH   2  16
ENDBRANCH   1   2
BRANCH   1  18
ATOM     18  C   UNL     1       1.826  12.262  18.350  0.00  0.00    +0.000 C 
BRANCH  18  19
ATOM     19  C   UNL     1       1.886  13.797  18.342  0.00  0.00    +0.000 C 
BRANCH  19  20
ATOM     20  N   UNL     1       2.737  14.413  19.376  0.00  0.00    +0.000 NA
ATOM     21  C   UNL     1       4.070  14.743  18.837  0.00  0.00    +0.000 C 
BRANCH  20  22
ATOM     22  C   UNL     1       2.067  15.595  20.012  0.00  0.00    +0.000 C 
ATOM     23  C   UNL     1       1.442  16.514  18.957  0.00  0.00    +0.000 A 
ATOM     24  C   UNL     1       2.077  17.286  17.995  0.00  0.00    +0.000 A 
ATOM     25  C   UNL     1       1.281  17.992  17.093  0.00  0.00    +0.000 A 
ATOM     26  C   UNL     1      -0.123  17.924  17.160  0.00  0.00    +0.000 A 
ATOM     27  C   UNL     1      -0.755  17.136  18.127  0.00  0.00    +0.000 A 
ATOM     28  C   UNL     1       0.029  16.421  19.013  0.00  0.00    +0.000 A 
ATOM     29  C   UNL     1      -0.338  15.543  20.104  0.00  0.00    +0.000 A 
ATOM     30  C   UNL     1      -1.541  14.955  20.438  0.00  0.00    +0.000 A 
ATOM     31  C   UNL     1      -1.586  14.136  21.574  0.00  0.00    +0.000 A 
ATOM     32  C   UNL     1      -0.464  13.984  22.403  0.00  0.00    +0.000 A 
ATOM     33  C   UNL     1       0.759  14.546  22.044  0.00  0.00    +0.000 A 
ATOM     34  C   UNL     1       0.824  15.221  20.832  0.00  0.00    +0.000 A 
ENDBRANCH  20  22
ENDBRANCH  19  20
ENDBRANCH  18  19
ENDBRANCH   1  18
TORSDOF 10
ENDMDL
