MODEL 1
REMARK VINA RESULT:      -7.9      0.000      0.000
REMARK  Name = 
REMARK  11 active torsions:
REMARK  status: ('A' for Active; 'I' for Inactive)
REMARK    1  A    between atoms: N_2  and  C_4
REMARK    2  A    between atoms: C_7  and  N_8
REMARK    3  A    between atoms: N_8  and  C_9
REMARK    4  A    between atoms: C_9  and  C_10
REMARK    5  A    between atoms: C_10  and  N_11
REMARK    6  A    between atoms: N_11  and  C_12
REMARK    7  A    between atoms: N_11  and  C_15
REMARK    8  A    between atoms: C_12  and  C_13
REMARK    9  A    between atoms: C_13  and  O_14
REMARK   10  A    between atoms: C_18  and  N_19
REMARK   11  A    between atoms: C_23  and  N_24
REMARK                            x       y       z     vdW  Elec       q    Type
REMARK                         _______ _______ _______ _____ _____    ______ ____
ROOT
ATOM      1  N   UNL     1       4.653   4.395  18.231  0.00  0.00    +0.000 N 
ENDROOT
BRANCH   1   2
ATOM      2  C   UNL     1       5.421   4.585  17.062  0.00  0.00    +0.000 A 
ATOM      3  C   UNL     1       4.825   4.262  15.816  0.00  0.00    +0.000 A 
ATOM      4  C   UNL     1       5.488   4.396  14.586  0.00  0.00    +0.000 A 
ATOM      5  C   UNL     1       6.803   4.856  14.561  0.00  0.00    +0.000 A 
ATOM      6  C   UNL     1       7.444   5.198  15.749  0.00  0.00    +0.000 A 
ATOM      7  C   UNL     1       6.749   5.062  16.970  0.00  0.00    +0.000 A 
BRANCH   5   8
ATOM      8  N   UNL     1       7.512   4.980  13.281  0.00  0.00    +0.000 N 
ATOM      9  O   UNL     1       7.130   4.271  12.341  0.00  0.00    +0.000 OA
ATOM     10  O   UNL     1       8.449   5.786  13.224  0.00  0.00    +0.000 OA
ENDBRANCH   5   8
BRANCH   7  11
ATOM     11  N   UNL     1       7.481   5.539  18.126  0.00  0.00    +0.000 N 
ATOM     12  O   UNL     1       7.911   4.697  18.923  0.00  0.00    +0.000 OA
ATOM     13  O   UNL     1       7.594   6.771  18.249  0.00  0.00    +0.000 OA
ENDBRANCH   7  11
ENDBRANCH   1   2
BRANCH   1  14
ATOM     14  C   UNL     1       4.453   5.496  19.198  0.00  0.00    +0.000 C 
BRANCH  14  15
ATOM     15  C   UNL     1       2.994   5.745  19.632  0.00  0.00    +0.000 C 
BRANCH  15  16
ATOM     16  N   UNL     1       2.461   6.997  19.076  0.00  0.00    +0.000 N 
ATOM     17  H   UNL     1       3.057   7.357  18.331  0.00  0.00    +0.000 HD
BRANCH  16  21
ATOM     18  C   UNL     1       0.550   9.922  21.461  0.00  0.00    +0.000 A 
ATOM     19  C   UNL     1       0.944   8.695  21.983  0.00  0.00    +0.000 A 
ATOM     20  C   UNL     1       1.554   7.759  21.137  0.00  0.00    +0.000 A 
ATOM     21  C   UNL     1       1.780   8.002  19.758  0.00  0.00    +0.000 A 
ATOM     22  C   UNL     1       1.399   9.277  19.279  0.00  0.00    +0.000 A 
ATOM     23 CL   UNL     1       1.722   9.869  17.686  0.00  0.00    +0.000 Cl
ATOM     24  C   UNL     1       0.771  10.214  20.116  0.00  0.00    +0.000 A 
BRANCH  18  26
ATOM     25  O   UNL     1      -0.009  12.113  21.982  0.00  0.00    +0.000 OA
ATOM     26  N   UNL     1      -0.074  10.926  22.329  0.00  0.00    +0.000 N 
ATOM     27  O   UNL     1      -0.636  10.527  23.361  0.00  0.00    +0.000 OA
ENDBRANCH  18  26
ENDBRANCH  16  21
ENDBRANCH  15  16
ENDBRANCH  14  15
ENDBRANCH   1  14
BRANCH   1  28
ATOM     28  C   UNL     1       3.825   3.159  18.220  0.00  0.00    +0.000 C 
BRANCH  28  29
ATOM     29  C   UNL     1       3.893   2.199  19.405  0.00  0.00    +0.000 C 
BRANCH  29  30
ATOM     30  O   UNL     1       5.248   2.147  19.863  0.00  0.00    +0.000 OA
ATOM     31  H   UNL     1       5.230   2.002  20.824  0.00  0.00    +0.000 HD
ENDBRANCH  29  30
ENDBRANCH  28  29
ENDBRANCH   1  28
TORSDOF 11
ENDMDL
MODEL 2
REMARK VINA RESULT:      -7.7      2.690      3.716
REMARK  Name = 
REMARK  11 active torsions:
REMARK  status: ('A' for Active; 'I' for Inactive)
REMARK    1  A    between atoms: N_2  and  C_4
REMARK    2  A    between atoms: C_7  and  N_8
REMARK    3  A    between atoms: N_8  and  C_9
REMARK    4  A    between atoms: C_9  and  C_10
REMARK    5  A    between atoms: C_10  and  N_11
REMARK    6  A    between atoms: N_11  and  C_12
REMARK    7  A    between atoms: N_11  and  C_15
REMARK    8  A    between atoms: C_12  and  C_13
REMARK    9  A    between atoms: C_13  and  O_14
REMARK   10  A    between atoms: C_18  and  N_19
REMARK   11  A    between atoms: C_23  and  N_24
REMARK                            x       y       z     vdW  Elec       q    Type
REMARK                         _______ _______ _______ _____ _____    ______ ____
ROOT
ATOM      1  N   UNL     1       3.022   4.370  20.224  0.00  0.00    +0.000 N 
ENDROOT
BRANCH   1   2
ATOM      2  C   UNL     1       3.835   4.525  19.082  0.00  0.00    +0.000 A 
ATOM      3  C   UNL     1       5.131   5.075  19.258  0.00  0.00    +0.000 A 
ATOM      4  C   UNL     1       6.028   5.290  18.200  0.00  0.00    +0.000 A 
ATOM      5  C   UNL     1       5.647   4.967  16.899  0.00  0.00    +0.000 A 
ATOM      6  C   UNL     1       4.391   4.416  16.658  0.00  0.00    +0.000 A 
ATOM      7  C   UNL     1       3.513   4.202  17.743  0.00  0.00    +0.000 A 
BRANCH   5   8
ATOM      8  N   UNL     1       6.571   5.208  15.784  0.00  0.00    +0.000 N 
ATOM      9  O   UNL     1       7.480   6.030  15.957  0.00  0.00    +0.000 OA
ATOM     10  O   UNL     1       6.381   4.572  14.739  0.00  0.00    +0.000 OA
ENDBRANCH   5   8
BRANCH   7  11
ATOM     11  N   UNL     1       2.277   3.536  17.384  0.00  0.00    +0.000 N 
ATOM     12  O   UNL     1       2.315   2.315  17.194  0.00  0.00    +0.000 OA
ATOM     13  O   UNL     1       1.269   4.254  17.263  0.00  0.00    +0.000 OA
ENDBRANCH   7  11
ENDBRANCH   1   2
BRANCH   1  14
ATOM     14  C   UNL     1       2.128   5.459  20.675  0.00  0.00    +0.000 C 
BRANCH  14  15
ATOM     15  C   UNL     1       2.184   6.755  19.842  0.00  0.00    +0.000 C 
BRANCH  15  16
ATOM     16  N   UNL     1       1.933   7.949  20.663  0.00  0.00    +0.000 N 
ATOM     17  H   UNL     1       1.950   7.725  21.658  0.00  0.00    +0.000 HD
BRANCH  16  21
ATOM     18  C   UNL     1      -0.623  11.075  19.402  0.00  0.00    +0.000 A 
ATOM     19  C   UNL     1       0.209  10.404  18.511  0.00  0.00    +0.000 A 
ATOM     20  C   UNL     1       1.049   9.391  18.994  0.00  0.00    +0.000 A 
ATOM     21  C   UNL     1       1.098   9.022  20.362  0.00  0.00    +0.000 A 
ATOM     22  C   UNL     1       0.209   9.702  21.225  0.00  0.00    +0.000 A 
ATOM     23 CL   UNL     1      -0.035   9.317  22.893  0.00  0.00    +0.000 Cl
ATOM     24  C   UNL     1      -0.624  10.730  20.753  0.00  0.00    +0.000 A 
BRANCH  18  26
ATOM     25  O   UNL     1      -1.807  13.048  19.696  0.00  0.00    +0.000 OA
ATOM     26  N   UNL     1      -1.524  12.126  18.919  0.00  0.00    +0.000 N 
ATOM     27  O   UNL     1      -1.949  12.033  17.757  0.00  0.00    +0.000 OA
ENDBRANCH  18  26
ENDBRANCH  16  21
ENDBRANCH  15  16
ENDBRANCH  14  15
ENDBRANCH   1  14
BRANCH   1  28
ATOM     28  C   UNL     1       2.897   2.966  20.697  0.00  0.00    +0.000 C 
BRANCH  28  29
ATOM     29  C   UNL     1       1.517   2.404  21.028  0.00  0.00    +0.000 C 
BRANCH  29  30
ATOM     30  O   UNL     1       1.342   2.449  22.447  0.00  0.00    +0.000 OA
ATOM     31  H   UNL     1       1.193   3.377  22.698  0.00  0.00    +0.000 HD
ENDBRANCH  29  30
ENDBRANCH  28  29
ENDBRANCH   1  28
TORSDOF 11
ENDMDL
MODEL 3
REMARK VINA RESULT:      -7.7      2.319      3.357
REMARK  Name = 
REMARK  11 active torsions:
REMARK  status: ('A' for Active; 'I' for Inactive)
REMARK    1  A    between atoms: N_2  and  C_4
REMARK    2  A    between atoms: C_7  and  N_8
REMARK    3  A    between atoms: N_8  and  C_9
REMARK    4  A    between atoms: C_9  and  C_10
REMARK    5  A    between atoms: C_10  and  N_11
REMARK    6  A    between atoms: N_11  and  C_12
REMARK    7  A    between atoms: N_11  and  C_15
REMARK    8  A    between atoms: C_12  and  C_13
REMARK    9  A    between atoms: C_13  and  O_14
REMARK   10  A    between atoms: C_18  and  N_19
REMARK   11  A    between atoms: C_23  and  N_24
REMARK                            x       y       z     vdW  Elec       q    Type
REMARK                         _______ _______ _______ _____ _____    ______ ____
ROOT
ATOM      1  N   UNL     1       2.716   4.674  20.258  0.00  0.00    +0.000 N 
ENDROOT
BRANCH   1   2
ATOM      2  C   UNL     1       3.638   4.554  19.197  0.00  0.00    +0.000 A 
ATOM      3  C   UNL     1       4.957   5.033  19.405  0.00  0.00    +0.000 A 
ATOM      4  C   UNL     1       5.960   4.981  18.425  0.00  0.00    +0.000 A 
ATOM      5  C   UNL     1       5.669   4.449  17.170  0.00  0.00    +0.000 A 
ATOM      6  C   UNL     1       4.395   3.955  16.903  0.00  0.00    +0.000 A 
ATOM      7  C   UNL     1       3.408   4.011  17.911  0.00  0.00    +0.000 A 
BRANCH   5   8
ATOM      8  N   UNL     1       6.706   4.410  16.132  0.00  0.00    +0.000 N 
ATOM      9  O   UNL     1       6.337   4.361  14.952  0.00  0.00    +0.000 OA
ATOM     10  O   UNL     1       7.887   4.427  16.505  0.00  0.00    +0.000 OA
ENDBRANCH   5   8
BRANCH   7  11
ATOM     11  N   UNL     1       2.154   3.380  17.551  0.00  0.00    +0.000 N 
ATOM     12  O   UNL     1       2.115   2.144  17.532  0.00  0.00    +0.000 OA
ATOM     13  O   UNL     1       1.212   4.136  17.255  0.00  0.00    +0.000 OA
ENDBRANCH   7  11
ENDBRANCH   1   2
BRANCH   1  14
ATOM     14  C   UNL     1       1.720   5.767  20.280  0.00  0.00    +0.000 C 
BRANCH  14  15
ATOM     15  C   UNL     1       2.270   7.164  20.633  0.00  0.00    +0.000 C 
BRANCH  15  16
ATOM     16  N   UNL     1       1.493   8.238  19.999  0.00  0.00    +0.000 N 
ATOM     17  H   UNL     1       1.920   8.539  19.123  0.00  0.00    +0.000 HD
BRANCH  16  21
ATOM     18  C   UNL     1      -0.570  11.169  22.247  0.00  0.00    +0.000 A 
ATOM     19  C   UNL     1      -0.348   9.888  22.742  0.00  0.00    +0.000 A 
ATOM     20  C   UNL     1       0.323   8.954  21.940  0.00  0.00    +0.000 A 
ATOM     21  C   UNL     1       0.782   9.255  20.633  0.00  0.00    +0.000 A 
ATOM     22  C   UNL     1       0.571  10.579  20.185  0.00  0.00    +0.000 A 
ATOM     23 CL   UNL     1       1.184  11.231  18.706  0.00  0.00    +0.000 Cl
ATOM     24  C   UNL     1      -0.116  11.516  20.976  0.00  0.00    +0.000 A 
BRANCH  18  26
ATOM     25  O   UNL     1      -0.611  13.169  23.422  0.00  0.00    +0.000 OA
ATOM     26  N   UNL     1      -1.254  12.170  23.073  0.00  0.00    +0.000 N 
ATOM     27  O   UNL     1      -2.439  11.959  23.372  0.00  0.00    +0.000 OA
ENDBRANCH  18  26
ENDBRANCH  16  21
ENDBRANCH  15  16
ENDBRANCH  14  15
ENDBRANCH   1  14
BRANCH   1  28
ATOM     28  C   UNL     1       2.619   3.466  21.120  0.00  0.00    +0.000 C 
BRANCH  28  29
ATOM     29  C   UNL     1       1.264   2.793  21.320  0.00  0.00    +0.000 C 
BRANCH  29  30
ATOM     30  O   UNL     1       0.533   2.881  20.093  0.00  0.00    +0.000 OA
ATOM     31  H   UNL     1      -0.393   3.083  20.313  0.00  0.00    +0.000 HD
ENDBRANCH  29  30
ENDBRANCH  28  29
ENDBRANCH   1  28
TORSDOF 11
ENDMDL
MODEL 4
REMARK VINA RESULT:      -7.7      2.714      3.800
REMARK  Name = 
REMARK  11 active torsions:
REMARK  status: ('A' for Active; 'I' for Inactive)
REMARK    1  A    between atoms: N_2  and  C_4
REMARK    2  A    between atoms: C_7  and  N_8
REMARK    3  A    between atoms: N_8  and  C_9
REMARK    4  A    between atoms: C_9  and  C_10
REMARK    5  A    between atoms: C_10  and  N_11
REMARK    6  A    between atoms: N_11  and  C_12
REMARK    7  A    between atoms: N_11  and  C_15
REMARK    8  A    between atoms: C_12  and  C_13
REMARK    9  A    between atoms: C_13  and  O_14
REMARK   10  A    between atoms: C_18  and  N_19
REMARK   11  A    between atoms: C_23  and  N_24
REMARK                            x       y       z     vdW  Elec       q    Type
REMARK                         _______ _______ _______ _____ _____    ______ ____
ROOT
ATOM      1  N   UNL     1       2.802   4.611  20.316  0.00  0.00    +0.000 N 
ENDROOT
BRANCH   1   2
ATOM      2  C   UNL     1       3.694   4.679  19.224  0.00  0.00    +0.000 A 
ATOM      3  C   UNL     1       4.993   5.198  19.459  0.00  0.00    +0.000 A 
ATOM      4  C   UNL     1       5.965   5.328  18.455  0.00  0.00    +0.000 A 
ATOM      5  C   UNL     1       5.660   4.948  17.150  0.00  0.00    +0.000 A 
ATOM      6  C   UNL     1       4.405   4.424  16.853  0.00  0.00    +0.000 A 
ATOM      7  C   UNL     1       3.450   4.295  17.885  0.00  0.00    +0.000 A 
BRANCH   5   8
ATOM      8  N   UNL     1       6.664   5.100  16.089  0.00  0.00    +0.000 N 
ATOM      9  O   UNL     1       6.330   5.706  15.063  0.00  0.00    +0.000 OA
ATOM     10  O   UNL     1       7.783   4.610  16.289  0.00  0.00    +0.000 OA
ENDBRANCH   5   8
BRANCH   7  11
ATOM     11  N   UNL     1       2.218   3.650  17.478  0.00  0.00    +0.000 N 
ATOM     12  O   UNL     1       1.231   4.367  17.276  0.00  0.00    +0.000 OA
ATOM     13  O   UNL     1       2.237   2.410  17.392  0.00  0.00    +0.000 OA
ENDBRANCH   7  11
ENDBRANCH   1   2
BRANCH   1  14
ATOM     14  C   UNL     1       1.925   5.753  20.655  0.00  0.00    +0.000 C 
BRANCH  14  15
ATOM     15  C   UNL     1       1.935   6.922  19.649  0.00  0.00    +0.000 C 
BRANCH  15  16
ATOM     16  N   UNL     1       1.979   8.228  20.323  0.00  0.00    +0.000 N 
ATOM     17  H   UNL     1       2.422   8.159  21.238  0.00  0.00    +0.000 HD
BRANCH  16  21
ATOM     18  C   UNL     1      -0.974  11.206  19.768  0.00  0.00    +0.000 A 
ATOM     19  C   UNL     1      -0.287  10.648  18.695  0.00  0.00    +0.000 A 
ATOM     20  C   UNL     1       0.696   9.680  18.946  0.00  0.00    +0.000 A 
ATOM     21  C   UNL     1       1.032   9.247  20.253  0.00  0.00    +0.000 A 
ATOM     22  C   UNL     1       0.282   9.812  21.310  0.00  0.00    +0.000 A 
ATOM     23 CL   UNL     1       0.389   9.326  22.966  0.00  0.00    +0.000 Cl
ATOM     24  C   UNL     1      -0.692  10.795  21.070  0.00  0.00    +0.000 A 
BRANCH  18  26
ATOM     25  O   UNL     1      -3.028  11.854  18.907  0.00  0.00    +0.000 OA
ATOM     26  N   UNL     1      -2.019  12.208  19.532  0.00  0.00    +0.000 N 
ATOM     27  O   UNL     1      -1.834  13.351  19.976  0.00  0.00    +0.000 OA
ENDBRANCH  18  26
ENDBRANCH  16  21
ENDBRANCH  15  16
ENDBRANCH  14  15
ENDBRANCH   1  14
BRANCH   1  28
ATOM     28  C   UNL     1       2.589   3.237  20.842  0.00  0.00    +0.000 C 
BRANCH  28  29
ATOM     29  C   UNL     1       1.175   2.774  21.183  0.00  0.00    +0.000 C 
BRANCH  29  30
ATOM     30  O   UNL     1       0.392   2.798  19.986  0.00  0.00    +0.000 OA
ATOM     31  H   UNL     1      -0.054   1.938  19.905  0.00  0.00    +0.000 HD
ENDBRANCH  29  30
ENDBRANCH  28  29
ENDBRANCH   1  28
TORSDOF 11
ENDMDL
MODEL 5
REMARK VINA RESULT:      -7.6      1.917      4.499
REMARK  Name = 
REMARK  11 active torsions:
REMARK  status: ('A' for Active; 'I' for Inactive)
REMARK    1  A    between atoms: N_2  and  C_4
REMARK    2  A    between atoms: C_7  and  N_8
REMARK    3  A    between atoms: N_8  and  C_9
REMARK    4  A    between atoms: C_9  and  C_10
REMARK    5  A    between atoms: C_10  and  N_11
REMARK    6  A    between atoms: N_11  and  C_12
REMARK    7  A    between atoms: N_11  and  C_15
REMARK    8  A    between atoms: C_12  and  C_13
REMARK    9  A    between atoms: C_13  and  O_14
REMARK   10  A    between atoms: C_18  and  N_19
REMARK   11  A    between atoms: C_23  and  N_24
REMARK                            x       y       z     vdW  Elec       q    Type
REMARK                         _______ _______ _______ _____ _____    ______ ____
ROOT
ATOM      1  N   UNL     1       4.805   5.211  16.314  0.00  0.00    +0.000 N 
ENDROOT
BRANCH   1   2
ATOM      2  C   UNL     1       4.282   4.606  17.477  0.00  0.00    +0.000 A 
ATOM      3  C   UNL     1       2.938   4.155  17.445  0.00  0.00    +0.000 A 
ATOM      4  C   UNL     1       2.301   3.550  18.539  0.00  0.00    +0.000 A 
ATOM      5  C   UNL     1       2.998   3.382  19.734  0.00  0.00    +0.000 A 
ATOM      6  C   UNL     1       4.324   3.797  19.830  0.00  0.00    +0.000 A 
ATOM      7  C   UNL     1       4.942   4.394  18.710  0.00  0.00    +0.000 A 
BRANCH   5   8
ATOM      8  N   UNL     1       2.333   2.769  20.890  0.00  0.00    +0.000 N 
ATOM      9  O   UNL     1       3.024   2.521  21.887  0.00  0.00    +0.000 OA
ATOM     10  O   UNL     1       1.120   2.537  20.794  0.00  0.00    +0.000 OA
ENDBRANCH   5   8
BRANCH   7  11
ATOM     11  N   UNL     1       6.347   4.694  18.897  0.00  0.00    +0.000 N 
ATOM     12  O   UNL     1       7.153   4.199  18.100  0.00  0.00    +0.000 OA
ATOM     13  O   UNL     1       6.643   5.408  19.871  0.00  0.00    +0.000 OA
ENDBRANCH   7  11
ENDBRANCH   1   2
BRANCH   1  14
ATOM     14  C   UNL     1       5.004   6.675  16.242  0.00  0.00    +0.000 C 
BRANCH  14  15
ATOM     15  C   UNL     1       4.562   7.470  17.487  0.00  0.00    +0.000 C 
BRANCH  15  16
ATOM     16  N   UNL     1       3.107   7.680  17.518  0.00  0.00    +0.000 N 
ATOM     17  H   UNL     1       2.764   8.038  16.627  0.00  0.00    +0.000 HD
BRANCH  16  21
ATOM     18  C   UNL     1       0.946   8.681  21.014  0.00  0.00    +0.000 A 
ATOM     19  C   UNL     1       1.496   7.417  20.830  0.00  0.00    +0.000 A 
ATOM     20  C   UNL     1       2.183   7.139  19.641  0.00  0.00    +0.000 A 
ATOM     21  C   UNL     1       2.336   8.092  18.602  0.00  0.00    +0.000 A 
ATOM     22  C   UNL     1       1.794   9.376  18.847  0.00  0.00    +0.000 A 
ATOM     23 CL   UNL     1       1.996  10.746  17.812  0.00  0.00    +0.000 Cl
ATOM     24  C   UNL     1       1.089   9.657  20.029  0.00  0.00    +0.000 A 
BRANCH  18  26
ATOM     25  O   UNL     1      -0.818   8.399  22.495  0.00  0.00    +0.000 OA
ATOM     26  N   UNL     1       0.237   9.002  22.258  0.00  0.00    +0.000 N 
ATOM     27  O   UNL     1       0.739   9.857  23.004  0.00  0.00    +0.000 OA
ENDBRANCH  18  26
ENDBRANCH  16  21
ENDBRANCH  15  16
ENDBRANCH  14  15
ENDBRANCH   1  14
BRANCH   1  28
ATOM     28  C   UNL     1       5.426   4.256  15.359  0.00  0.00    +0.000 C 
BRANCH  28  29
ATOM     29  C   UNL     1       6.671   4.675  14.581  0.00  0.00    +0.000 C 
BRANCH  29  30
ATOM     30  O   UNL     1       7.716   4.950  15.519  0.00  0.00    +0.000 OA
ATOM     31  H   UNL     1       7.567   5.841  15.876  0.00  0.00    +0.000 HD
ENDBRANCH  29  30
ENDBRANCH  28  29
ENDBRANCH   1  28
TORSDOF 11
ENDMDL
MODEL 6
REMARK VINA RESULT:      -7.6      2.620      3.658
REMARK  Name = 
REMARK  11 active torsions:
REMARK  status: ('A' for Active; 'I' for Inactive)
REMARK    1  A    between atoms: N_2  and  C_4
REMARK    2  A    between atoms: C_7  and  N_8
REMARK    3  A    between atoms: N_8  and  C_9
REMARK    4  A    between atoms: C_9  and  C_10
REMARK    5  A    between atoms: C_10  and  N_11
REMARK    6  A    between atoms: N_11  and  C_12
REMARK    7  A    between atoms: N_11  and  C_15
REMARK    8  A    between atoms: C_12  and  C_13
REMARK    9  A    between atoms: C_13  and  O_14
REMARK   10  A    between atoms: C_18  and  N_19
REMARK   11  A    between atoms: C_23  and  N_24
REMARK                            x       y       z     vdW  Elec       q    Type
REMARK                         _______ _______ _______ _____ _____    ______ ____
ROOT
ATOM      1  N   UNL     1       3.135   3.982  20.388  0.00  0.00    +0.000 N 
ENDROOT
BRANCH   1   2
ATOM      2  C   UNL     1       3.795   4.457  19.234  0.00  0.00    +0.000 A 
ATOM      3  C   UNL     1       5.005   5.175  19.409  0.00  0.00    +0.000 A 
ATOM      4  C   UNL     1       5.747   5.708  18.343  0.00  0.00    +0.000 A 
ATOM      5  C   UNL     1       5.287   5.548  17.037  0.00  0.00    +0.000 A 
ATOM      6  C   UNL     1       4.109   4.846  16.796  0.00  0.00    +0.000 A 
ATOM      7  C   UNL     1       3.388   4.313  17.886  0.00  0.00    +0.000 A 
BRANCH   5   8
ATOM      8  N   UNL     1       6.045   6.119  15.918  0.00  0.00    +0.000 N 
ATOM      9  O   UNL     1       7.264   5.909  15.881  0.00  0.00    +0.000 OA
ATOM     10  O   UNL     1       5.415   6.779  15.080  0.00  0.00    +0.000 OA
ENDBRANCH   5   8
BRANCH   7  11
ATOM     11  N   UNL     1       2.235   3.522  17.508  0.00  0.00    +0.000 N 
ATOM     12  O   UNL     1       2.406   2.314  17.303  0.00  0.00    +0.000 OA
ATOM     13  O   UNL     1       1.156   4.128  17.385  0.00  0.00    +0.000 OA
ENDBRANCH   7  11
ENDBRANCH   1   2
BRANCH   1  14
ATOM     14  C   UNL     1       2.165   4.831  21.113  0.00  0.00    +0.000 C 
BRANCH  14  15
ATOM     15  C   UNL     1       1.510   5.954  20.282  0.00  0.00    +0.000 C 
BRANCH  15  16
ATOM     16  N   UNL     1       1.804   7.286  20.829  0.00  0.00    +0.000 N 
ATOM     17  H   UNL     1       1.954   7.249  21.837  0.00  0.00    +0.000 HD
BRANCH  16  21
ATOM     18  C   UNL     1       0.281  10.874  19.184  0.00  0.00    +0.000 A 
ATOM     19  C   UNL     1       1.173  10.067  18.484  0.00  0.00    +0.000 A 
ATOM     20  C   UNL     1       1.658   8.902  19.092  0.00  0.00    +0.000 A 
ATOM     21  C   UNL     1       1.288   8.507  20.402  0.00  0.00    +0.000 A 
ATOM     22  C   UNL     1       0.351   9.335  21.062  0.00  0.00    +0.000 A 
ATOM     23 CL   UNL     1      -0.378   8.979  22.589  0.00  0.00    +0.000 Cl
ATOM     24  C   UNL     1      -0.128  10.515  20.467  0.00  0.00    +0.000 A 
BRANCH  18  26
ATOM     25  O   UNL     1      -1.449  12.093  18.235  0.00  0.00    +0.000 OA
ATOM     26  N   UNL     1      -0.255  12.090  18.564  0.00  0.00    +0.000 N 
ATOM     27  O   UNL     1       0.518  13.048  18.408  0.00  0.00    +0.000 OA
ENDBRANCH  18  26
ENDBRANCH  16  21
ENDBRANCH  15  16
ENDBRANCH  14  15
ENDBRANCH   1  14
BRANCH   1  28
ATOM     28  C   UNL     1       3.240   2.513  20.587  0.00  0.00    +0.000 C 
BRANCH  28  29
ATOM     29  C   UNL     1       4.567   1.810  20.312  0.00  0.00    +0.000 C 
BRANCH  29  30
ATOM     30  O   UNL     1       4.466   1.133  19.056  0.00  0.00    +0.000 OA
ATOM     31  H   UNL     1       3.941   1.692  18.459  0.00  0.00    +0.000 HD
ENDBRANCH  29  30
ENDBRANCH  28  29
ENDBRANCH   1  28
TORSDOF 11
ENDMDL
MODEL 7
REMARK VINA RESULT:      -7.6      2.056      3.032
REMARK  Name = 
REMARK  11 active torsions:
REMARK  status: ('A' for Active; 'I' for Inactive)
REMARK    1  A    between atoms: N_2  and  C_4
REMARK    2  A    between atoms: C_7  and  N_8
REMARK    3  A    between atoms: N_8  and  C_9
REMARK    4  A    between atoms: C_9  and  C_10
REMARK    5  A    between atoms: C_10  and  N_11
REMARK    6  A    between atoms: N_11  and  C_12
REMARK    7  A    between atoms: N_11  and  C_15
REMARK    8  A    between atoms: C_12  and  C_13
REMARK    9  A    between atoms: C_13  and  O_14
REMARK   10  A    between atoms: C_18  and  N_19
REMARK   11  A    between atoms: C_23  and  N_24
REMARK                            x       y       z     vdW  Elec       q    Type
REMARK                         _______ _______ _______ _____ _____    ______ ____
ROOT
ATOM      1  N   UNL     1       3.410   4.063  20.142  0.00  0.00    +0.000 N 
ENDROOT
BRANCH   1   2
ATOM      2  C   UNL     1       4.161   4.180  18.953  0.00  0.00    +0.000 A 
ATOM      3  C   UNL     1       5.501   4.633  19.055  0.00  0.00    +0.000 A 
ATOM      4  C   UNL     1       6.345   4.801  17.946  0.00  0.00    +0.000 A 
ATOM      5  C   UNL     1       5.863   4.529  16.668  0.00  0.00    +0.000 A 
ATOM      6  C   UNL     1       4.558   4.074  16.498  0.00  0.00    +0.000 A 
ATOM      7  C   UNL     1       3.735   3.904  17.632  0.00  0.00    +0.000 A 
BRANCH   5   8
ATOM      8  N   UNL     1       6.732   4.722  15.500  0.00  0.00    +0.000 N 
ATOM      9  O   UNL     1       7.592   5.611  15.564  0.00  0.00    +0.000 OA
ATOM     10  O   UNL     1       6.548   3.984  14.524  0.00  0.00    +0.000 OA
ENDBRANCH   5   8
BRANCH   7  11
ATOM     11  N   UNL     1       2.435   3.334  17.343  0.00  0.00    +0.000 N 
ATOM     12  O   UNL     1       2.359   2.107  17.211  0.00  0.00    +0.000 OA
ATOM     13  O   UNL     1       1.489   4.132  17.216  0.00  0.00    +0.000 OA
ENDBRANCH   7  11
ENDBRANCH   1   2
BRANCH   1  14
ATOM     14  C   UNL     1       2.815   5.255  20.785  0.00  0.00    +0.000 C 
BRANCH  14  15
ATOM     15  C   UNL     1       1.968   6.157  19.865  0.00  0.00    +0.000 C 
BRANCH  15  16
ATOM     16  N   UNL     1       2.252   7.583  20.079  0.00  0.00    +0.000 N 
ATOM     17  H   UNL     1       3.189   7.723  20.455  0.00  0.00    +0.000 HD
BRANCH  16  21
ATOM     18  C   UNL     1      -0.315  10.574  21.616  0.00  0.00    +0.000 A 
ATOM     19  C   UNL     1       0.266   9.615  22.439  0.00  0.00    +0.000 A 
ATOM     20  C   UNL     1       1.091   8.637  21.866  0.00  0.00    +0.000 A 
ATOM     21  C   UNL     1       1.355   8.572  20.475  0.00  0.00    +0.000 A 
ATOM     22  C   UNL     1       0.775   9.590  19.682  0.00  0.00    +0.000 A 
ATOM     23 CL   UNL     1       1.083   9.823  17.996  0.00  0.00    +0.000 Cl
ATOM     24  C   UNL     1      -0.067  10.564  20.245  0.00  0.00    +0.000 A 
BRANCH  18  26
ATOM     25  O   UNL     1      -1.257  11.679  23.426  0.00  0.00    +0.000 OA
ATOM     26  N   UNL     1      -1.168  11.620  22.192  0.00  0.00    +0.000 N 
ATOM     27  O   UNL     1      -1.748  12.388  21.410  0.00  0.00    +0.000 OA
ENDBRANCH  18  26
ENDBRANCH  16  21
ENDBRANCH  15  16
ENDBRANCH  14  15
ENDBRANCH   1  14
BRANCH   1  28
ATOM     28  C   UNL     1       3.004   2.671  20.471  0.00  0.00    +0.000 C 
BRANCH  28  29
ATOM     29  C   UNL     1       1.560   2.386  20.877  0.00  0.00    +0.000 C 
BRANCH  29  30
ATOM     30  O   UNL     1       1.492   2.363  22.306  0.00  0.00    +0.000 OA
ATOM     31  H   UNL     1       0.661   1.923  22.556  0.00  0.00    +0.000 HD
ENDBRANCH  29  30
ENDBRANCH  28  29
ENDBRANCH   1  28
TORSDOF 11
ENDMDL
MODEL 8
REMARK VINA RESULT:      -7.5      0.829      1.028
REMARK  Name = 
REMARK  11 active torsions:
REMARK  status: ('A' for Active; 'I' for Inactive)
REMARK    1  A    between atoms: N_2  and  C_4
REMARK    2  A    between atoms: C_7  and  N_8
REMARK    3  A    between atoms: N_8  and  C_9
REMARK    4  A    between atoms: C_9  and  C_10
REMARK    5  A    between atoms: C_10  and  N_11
REMARK    6  A    between atoms: N_11  and  C_12
REMARK    7  A    between atoms: N_11  and  C_15
REMARK    8  A    between atoms: C_12  and  C_13
REMARK    9  A    between atoms: C_13  and  O_14
REMARK   10  A    between atoms: C_18  and  N_19
REMARK   11  A    between atoms: C_23  and  N_24
REMARK                            x       y       z     vdW  Elec       q    Type
REMARK                         _______ _______ _______ _____ _____    ______ ____
ROOT
ATOM      1  N   UNL     1       4.692   4.414  18.272  0.00  0.00    +0.000 N 
ENDROOT
BRANCH   1   2
ATOM      2  C   UNL     1       5.453   4.608  17.099  0.00  0.00    +0.000 A 
ATOM      3  C   UNL     1       4.856   4.276  15.856  0.00  0.00    +0.000 A 
ATOM      4  C   UNL     1       5.513   4.413  14.624  0.00  0.00    +0.000 A 
ATOM      5  C   UNL     1       6.823   4.885  14.592  0.00  0.00    +0.000 A 
ATOM      6  C   UNL     1       7.465   5.236  15.776  0.00  0.00    +0.000 A 
ATOM      7  C   UNL     1       6.777   5.098  17.001  0.00  0.00    +0.000 A 
BRANCH   5   8
ATOM      8  N   UNL     1       7.525   5.011  13.309  0.00  0.00    +0.000 N 
ATOM      9  O   UNL     1       7.132   4.312  12.366  0.00  0.00    +0.000 OA
ATOM     10  O   UNL     1       8.470   5.810  13.252  0.00  0.00    +0.000 OA
ENDBRANCH   5   8
BRANCH   7  11
ATOM     11  N   UNL     1       7.508   5.585  18.153  0.00  0.00    +0.000 N 
ATOM     12  O   UNL     1       7.908   4.752  18.975  0.00  0.00    +0.000 OA
ATOM     13  O   UNL     1       7.653   6.816  18.245  0.00  0.00    +0.000 OA
ENDBRANCH   7  11
ENDBRANCH   1   2
BRANCH   1  14
ATOM     14  C   UNL     1       4.170   5.565  19.040  0.00  0.00    +0.000 C 
BRANCH  14  15
ATOM     15  C   UNL     1       3.857   6.830  18.215  0.00  0.00    +0.000 C 
BRANCH  15  16
ATOM     16  N   UNL     1       2.439   7.207  18.303  0.00  0.00    +0.000 N 
ATOM     17  H   UNL     1       2.018   7.289  17.379  0.00  0.00    +0.000 HD
BRANCH  16  21
ATOM     18  C   UNL     1       0.785   9.530  21.429  0.00  0.00    +0.000 A 
ATOM     19  C   UNL     1       1.097   8.185  21.602  0.00  0.00    +0.000 A 
ATOM     20  C   UNL     1       1.622   7.463  20.521  0.00  0.00    +0.000 A 
ATOM     21  C   UNL     1       1.845   8.042  19.246  0.00  0.00    +0.000 A 
ATOM     22  C   UNL     1       1.551   9.420  19.126  0.00  0.00    +0.000 A 
ATOM     23 CL   UNL     1       1.892  10.385  17.732  0.00  0.00    +0.000 Cl
ATOM     24  C   UNL     1       1.007  10.147  20.199  0.00  0.00    +0.000 A 
BRANCH  18  26
ATOM     25  O   UNL     1       0.197   9.768  23.660  0.00  0.00    +0.000 OA
ATOM     26  N   UNL     1       0.251  10.311  22.549  0.00  0.00    +0.000 N 
ATOM     27  O   UNL     1      -0.113  11.475  22.319  0.00  0.00    +0.000 OA
ENDBRANCH  18  26
ENDBRANCH  16  21
ENDBRANCH  15  16
ENDBRANCH  14  15
ENDBRANCH   1  14
BRANCH   1  28
ATOM     28  C   UNL     1       4.199   3.023  18.453  0.00  0.00    +0.000 C 
BRANCH  28  29
ATOM     29  C   UNL     1       2.697   2.751  18.443  0.00  0.00    +0.000 C 
BRANCH  29  30
ATOM     30  O   UNL     1       2.497   1.335  18.499  0.00  0.00    +0.000 OA
ATOM     31  H   UNL     1       3.027   0.932  17.791  0.00  0.00    +0.000 HD
ENDBRANCH  29  30
ENDBRANCH  28  29
ENDBRANCH   1  28
TORSDOF 11
ENDMDL
MODEL 9
REMARK VINA RESULT:      -7.5      0.829      1.016
REMARK  Name = 
REMARK  11 active torsions:
REMARK  status: ('A' for Active; 'I' for Inactive)
REMARK    1  A    between atoms: N_2  and  C_4
REMARK    2  A    between atoms: C_7  and  N_8
REMARK    3  A    between atoms: N_8  and  C_9
REMARK    4  A    between atoms: C_9  and  C_10
REMARK    5  A    between atoms: C_10  and  N_11
REMARK    6  A    between atoms: N_11  and  C_12
REMARK    7  A    between atoms: N_11  and  C_15
REMARK    8  A    between atoms: C_12  and  C_13
REMARK    9  A    between atoms: C_13  and  O_14
REMARK   10  A    between atoms: C_18  and  N_19
REMARK   11  A    between atoms: C_23  and  N_24
REMARK                            x       y       z     vdW  Elec       q    Type
REMARK                         _______ _______ _______ _____ _____    ______ ____
ROOT
ATOM      1  N   UNL     1       4.735   4.544  18.795  0.00  0.00    +0.000 N 
ENDROOT
BRANCH   1   2
ATOM      2  C   UNL     1       5.422   4.673  17.568  0.00  0.00    +0.000 A 
ATOM      3  C   UNL     1       4.774   4.215  16.393  0.00  0.00    +0.000 A 
ATOM      4  C   UNL     1       5.356   4.276  15.117  0.00  0.00    +0.000 A 
ATOM      5  C   UNL     1       6.639   4.798  14.972  0.00  0.00    +0.000 A 
ATOM      6  C   UNL     1       7.328   5.272  16.085  0.00  0.00    +0.000 A 
ATOM      7  C   UNL     1       6.715   5.207  17.355  0.00  0.00    +0.000 A 
BRANCH   5   8
ATOM      8  N   UNL     1       7.264   4.847  13.644  0.00  0.00    +0.000 N 
ATOM      9  O   UNL     1       6.805   4.107  12.764  0.00  0.00    +0.000 OA
ATOM     10  O   UNL     1       8.215   5.625  13.490  0.00  0.00    +0.000 OA
ENDBRANCH   5   8
BRANCH   7  11
ATOM     11  N   UNL     1       7.484   5.817  18.420  0.00  0.00    +0.000 N 
ATOM     12  O   UNL     1       7.757   7.019  18.318  0.00  0.00    +0.000 OA
ATOM     13  O   UNL     1       7.844   5.072  19.349  0.00  0.00    +0.000 OA
ENDBRANCH   7  11
ENDBRANCH   1   2
BRANCH   1  14
ATOM     14  C   UNL     1       3.943   5.666  19.344  0.00  0.00    +0.000 C 
BRANCH  14  15
ATOM     15  C   UNL     1       2.730   6.103  18.498  0.00  0.00    +0.000 C 
BRANCH  15  16
ATOM     16  N   UNL     1       2.555   7.563  18.500  0.00  0.00    +0.000 N 
ATOM     17  H   UNL     1       3.401   8.039  18.190  0.00  0.00    +0.000 HD
BRANCH  16  21
ATOM     18  C   UNL     1       0.395   9.653  21.477  0.00  0.00    +0.000 A 
ATOM     19  C   UNL     1       0.768   8.322  21.641  0.00  0.00    +0.000 A 
ATOM     20  C   UNL     1       1.464   7.678  20.609  0.00  0.00    +0.000 A 
ATOM     21  C   UNL     1       1.800   8.322  19.391  0.00  0.00    +0.000 A 
ATOM     22  C   UNL     1       1.436   9.684  19.283  0.00  0.00    +0.000 A 
ATOM     23 CL   UNL     1       1.881  10.724  17.974  0.00  0.00    +0.000 Cl
ATOM     24  C   UNL     1       0.723  10.332  20.305  0.00  0.00    +0.000 A 
BRANCH  18  26
ATOM     25  O   UNL     1      -1.160  11.204  22.225  0.00  0.00    +0.000 OA
ATOM     26  N   UNL     1      -0.319  10.355  22.549  0.00  0.00    +0.000 N 
ATOM     27  O   UNL     1      -0.041  10.054  23.720  0.00  0.00    +0.000 OA
ENDBRANCH  18  26
ENDBRANCH  16  21
ENDBRANCH  15  16
ENDBRANCH  14  15
ENDBRANCH   1  14
BRANCH   1  28
ATOM     28  C   UNL     1       4.606   3.143  19.276  0.00  0.00    +0.000 C 
BRANCH  28  29
ATOM     29  C   UNL     1       3.227   2.491  19.326  0.00  0.00    +0.000 C 
BRANCH  29  30
ATOM     30  O   UNL     1       2.702   2.650  20.647  0.00  0.00    +0.000 OA
ATOM     31  H   UNL     1       1.981   3.301  20.603  0.00  0.00    +0.000 HD
ENDBRANCH  29  30
ENDBRANCH  28  29
ENDBRANCH   1  28
TORSDOF 11
ENDMDL
