MODEL 1
REMARK VINA RESULT:      -7.4      0.000      0.000
REMARK  Name = 
REMARK  4 active torsions:
REMARK  status: ('A' for Active; 'I' for Inactive)
REMARK    1  A    between atoms: C_1  and  N_2
REMARK    2  A    between atoms: N_2  and  C_3
REMARK    3  A    between atoms: C_3  and  C_4
REMARK    4  A    between atoms: C_16  and  C_17
REMARK                            x       y       z     vdW  Elec       q    Type
REMARK                         _______ _______ _______ _____ _____    ______ ____
ROOT
ATOM      1  C   UNL     1       0.933   4.181  19.461  0.00  0.00    +0.000 C 
ATOM      2  N   UNL     1       1.910   5.260  19.650  0.00  0.00    +0.000 N 
ATOM      3  C   UNL     1       3.228   4.742  19.597  0.00  0.00    +0.000 A 
ATOM      4  C   UNL     1       4.209   5.534  19.038  0.00  0.00    +0.000 A 
ATOM      5  C   UNL     1       5.447   4.966  18.796  0.00  0.00    +0.000 A 
ATOM      6  N   UNL     1       5.722   3.697  19.141  0.00  0.00    +0.000 NA
ATOM      7  C   UNL     1       4.721   3.014  19.717  0.00  0.00    +0.000 A 
ATOM      8  N   UNL     1       3.479   3.476  19.954  0.00  0.00    +0.000 NA
ENDROOT
BRANCH   5   9
ATOM      9  C   UNL     1       6.465   5.758  17.993  0.00  0.00    +0.000 C 
ATOM     10  C   UNL     1       5.764   6.801  17.103  0.00  0.00    +0.000 C 
ATOM     11  C   UNL     1       5.303   6.236  15.761  0.00  0.00    +0.000 C 
ATOM     12  N   UNL     1       6.396   5.571  15.054  0.00  0.00    +0.000 NA
ATOM     13  C   UNL     1       6.888   4.439  15.841  0.00  0.00    +0.000 C 
ATOM     14  C   UNL     1       7.444   4.891  17.188  0.00  0.00    +0.000 C 
ATOM     15  H   UNL     1       7.156   6.233  14.904  0.00  0.00    +0.000 HD
ENDBRANCH   5   9
BRANCH   2  16
ATOM     16  C   UNL     1       1.661   6.066  20.864  0.00  0.00    +0.000 C 
BRANCH  16  17
ATOM     17  C   UNL     1       1.833   7.586  20.672  0.00  0.00    +0.000 C 
ATOM     18  C   UNL     1       1.428   8.014  19.262  0.00  0.00    +0.000 C 
ATOM     19  O   UNL     1       1.519   9.438  19.113  0.00  0.00    +0.000 OA
ATOM     20  C   UNL     1       0.778  10.047  20.092  0.00  0.00    +0.000 A 
ATOM     21  C   UNL     1       0.251  11.304  19.803  0.00  0.00    +0.000 A 
ATOM     22  C   UNL     1      -0.565  11.943  20.737  0.00  0.00    +0.000 A 
ATOM     23  C   UNL     1      -0.824  11.340  21.968  0.00  0.00    +0.000 A 
ATOM     24  C   UNL     1      -0.267  10.095  22.267  0.00  0.00    +0.000 A 
ATOM     25  C   UNL     1       0.532   9.445  21.327  0.00  0.00    +0.000 A 
ATOM     26  O   UNL     1       1.003   8.211  21.677  0.00  0.00    +0.000 OA
ENDBRANCH  16  17
ENDBRANCH   2  16
TORSDOF 3
ENDMDL
MODEL 2
REMARK VINA RESULT:      -7.2      1.260      1.756
REMARK  Name = 
REMARK  4 active torsions:
REMARK  status: ('A' for Active; 'I' for Inactive)
REMARK    1  A    between atoms: C_1  and  N_2
REMARK    2  A    between atoms: N_2  and  C_3
REMARK    3  A    between atoms: C_3  and  C_4
REMARK    4  A    between atoms: C_16  and  C_17
REMARK                            x       y       z     vdW  Elec       q    Type
REMARK                         _______ _______ _______ _____ _____    ______ ____
ROOT
ATOM      1  C   UNL     1       0.523   3.668  19.698  0.00  0.00    +0.000 C 
ATOM      2  N   UNL     1       1.636   4.592  19.442  0.00  0.00    +0.000 N 
ATOM      3  C   UNL     1       2.684   3.919  18.768  0.00  0.00    +0.000 A 
ATOM      4  C   UNL     1       3.414   4.632  17.839  0.00  0.00    +0.000 A 
ATOM      5  C   UNL     1       4.300   3.939  17.034  0.00  0.00    +0.000 A 
ATOM      6  N   UNL     1       4.498   2.619  17.175  0.00  0.00    +0.000 NA
ATOM      7  C   UNL     1       3.776   2.014  18.130  0.00  0.00    +0.000 A 
ATOM      8  N   UNL     1       2.869   2.603  18.931  0.00  0.00    +0.000 NA
ENDROOT
BRANCH   5   9
ATOM      9  C   UNL     1       4.950   4.672  15.872  0.00  0.00    +0.000 C 
ATOM     10  C   UNL     1       6.330   4.067  15.551  0.00  0.00    +0.000 C 
ATOM     11  C   UNL     1       7.455   4.646  16.406  0.00  0.00    +0.000 C 
ATOM     12  N   UNL     1       7.478   6.107  16.346  0.00  0.00    +0.000 NA
ATOM     13  C   UNL     1       6.226   6.651  16.873  0.00  0.00    +0.000 C 
ATOM     14  C   UNL     1       5.025   6.195  16.050  0.00  0.00    +0.000 C 
ATOM     15  H   UNL     1       7.595   6.405  15.378  0.00  0.00    +0.000 HD
ENDBRANCH   5   9
BRANCH   2  16
ATOM     16  C   UNL     1       2.096   5.300  20.655  0.00  0.00    +0.000 C 
BRANCH  16  17
ATOM     17  C   UNL     1       2.205   6.830  20.503  0.00  0.00    +0.000 C 
ATOM     18  C   UNL     1       1.851   7.270  19.083  0.00  0.00    +0.000 C 
ATOM     19  O   UNL     1       1.880   8.700  18.968  0.00  0.00    +0.000 OA
ATOM     20  C   UNL     1       1.064   9.251  19.920  0.00  0.00    +0.000 A 
ATOM     21  C   UNL     1       0.493  10.489  19.630  0.00  0.00    +0.000 A 
ATOM     22  C   UNL     1      -0.398  11.068  20.534  0.00  0.00    +0.000 A 
ATOM     23  C   UNL     1      -0.690  10.426  21.738  0.00  0.00    +0.000 A 
ATOM     24  C   UNL     1      -0.089   9.202  22.040  0.00  0.00    +0.000 A 
ATOM     25  C   UNL     1       0.785   8.611  21.129  0.00  0.00    +0.000 A 
ATOM     26  O   UNL     1       1.298   7.393  21.477  0.00  0.00    +0.000 OA
ENDBRANCH  16  17
ENDBRANCH   2  16
TORSDOF 3
ENDMDL
MODEL 3
REMARK VINA RESULT:      -7.2      0.997      1.789
REMARK  Name = 
REMARK  4 active torsions:
REMARK  status: ('A' for Active; 'I' for Inactive)
REMARK    1  A    between atoms: C_1  and  N_2
REMARK    2  A    between atoms: N_2  and  C_3
REMARK    3  A    between atoms: C_3  and  C_4
REMARK    4  A    between atoms: C_16  and  C_17
REMARK                            x       y       z     vdW  Elec       q    Type
REMARK                         _______ _______ _______ _____ _____    ______ ____
ROOT
ATOM      1  C   UNL     1       0.947   4.312  19.602  0.00  0.00    +0.000 C 
ATOM      2  N   UNL     1       1.949   5.377  19.739  0.00  0.00    +0.000 N 
ATOM      3  C   UNL     1       3.254   4.831  19.667  0.00  0.00    +0.000 A 
ATOM      4  C   UNL     1       4.237   5.588  19.064  0.00  0.00    +0.000 A 
ATOM      5  C   UNL     1       5.457   4.989  18.807  0.00  0.00    +0.000 A 
ATOM      6  N   UNL     1       5.716   3.725  19.179  0.00  0.00    +0.000 NA
ATOM      7  C   UNL     1       4.716   3.077  19.796  0.00  0.00    +0.000 A 
ATOM      8  N   UNL     1       3.490   3.569  20.052  0.00  0.00    +0.000 NA
ENDROOT
BRANCH   5   9
ATOM      9  C   UNL     1       6.470   5.739  17.958  0.00  0.00    +0.000 C 
ATOM     10  C   UNL     1       5.773   6.805  17.093  0.00  0.00    +0.000 C 
ATOM     11  C   UNL     1       5.235   6.252  15.774  0.00  0.00    +0.000 C 
ATOM     12  N   UNL     1       6.273   5.544  15.026  0.00  0.00    +0.000 NA
ATOM     13  C   UNL     1       6.755   4.397  15.798  0.00  0.00    +0.000 C 
ATOM     14  C   UNL     1       7.382   4.833  17.119  0.00  0.00    +0.000 C 
ATOM     15  H   UNL     1       7.051   6.177  14.841  0.00  0.00    +0.000 HD
ENDBRANCH   5   9
BRANCH   2  16
ATOM     16  C   UNL     1       1.746   6.218  20.937  0.00  0.00    +0.000 C 
BRANCH  16  17
ATOM     17  C   UNL     1       1.004   7.543  20.671  0.00  0.00    +0.000 C 
ATOM     18  C   UNL     1       1.213   8.532  21.818  0.00  0.00    +0.000 C 
ATOM     19  O   UNL     1       0.583   9.789  21.531  0.00  0.00    +0.000 OA
ATOM     20  C   UNL     1       1.034  10.261  20.327  0.00  0.00    +0.000 A 
ATOM     21  C   UNL     1       1.039  11.643  20.146  0.00  0.00    +0.000 A 
ATOM     22  C   UNL     1       1.548  12.184  18.965  0.00  0.00    +0.000 A 
ATOM     23  C   UNL     1       2.020  11.342  17.957  0.00  0.00    +0.000 A 
ATOM     24  C   UNL     1       1.983   9.957  18.129  0.00  0.00    +0.000 A 
ATOM     25  C   UNL     1       1.493   9.415  19.316  0.00  0.00    +0.000 A 
ATOM     26  O   UNL     1       1.531   8.053  19.426  0.00  0.00    +0.000 OA
ENDBRANCH  16  17
ENDBRANCH   2  16
TORSDOF 3
ENDMDL
MODEL 4
REMARK VINA RESULT:      -7.1      1.229      2.240
REMARK  Name = 
REMARK  4 active torsions:
REMARK  status: ('A' for Active; 'I' for Inactive)
REMARK    1  A    between atoms: C_1  and  N_2
REMARK    2  A    between atoms: N_2  and  C_3
REMARK    3  A    between atoms: C_3  and  C_4
REMARK    4  A    between atoms: C_16  and  C_17
REMARK                            x       y       z     vdW  Elec       q    Type
REMARK                         _______ _______ _______ _____ _____    ______ ____
ROOT
ATOM      1  C   UNL     1       0.838   3.892  20.603  0.00  0.00    +0.000 C 
ATOM      2  N   UNL     1       1.628   4.985  20.021  0.00  0.00    +0.000 N 
ATOM      3  C   UNL     1       2.848   4.485  19.503  0.00  0.00    +0.000 A 
ATOM      4  C   UNL     1       3.355   5.075  18.364  0.00  0.00    +0.000 A 
ATOM      5  C   UNL     1       4.430   4.469  17.738  0.00  0.00    +0.000 A 
ATOM      6  N   UNL     1       5.012   3.369  18.242  0.00  0.00    +0.000 NA
ATOM      7  C   UNL     1       4.479   2.887  19.375  0.00  0.00    +0.000 A 
ATOM      8  N   UNL     1       3.415   3.390  20.028  0.00  0.00    +0.000 NA
ENDROOT
BRANCH   5   9
ATOM      9  C   UNL     1       4.861   4.985  16.375  0.00  0.00    +0.000 C 
ATOM     10  C   UNL     1       6.101   4.224  15.873  0.00  0.00    +0.000 C 
ATOM     11  C   UNL     1       7.416   4.806  16.390  0.00  0.00    +0.000 C 
ATOM     12  N   UNL     1       7.513   6.239  16.116  0.00  0.00    +0.000 NA
ATOM     13  C   UNL     1       6.437   6.956  16.801  0.00  0.00    +0.000 C 
ATOM     14  C   UNL     1       5.062   6.505  16.312  0.00  0.00    +0.000 C 
ATOM     15  H   UNL     1       7.440   6.398  15.112  0.00  0.00    +0.000 HD
ENDBRANCH   5   9
BRANCH   2  16
ATOM     16  C   UNL     1       1.822   6.122  20.946  0.00  0.00    +0.000 C 
BRANCH  16  17
ATOM     17  C   UNL     1       1.000   7.379  20.599  0.00  0.00    +0.000 C 
ATOM     18  C   UNL     1       1.009   8.380  21.754  0.00  0.00    +0.000 C 
ATOM     19  O   UNL     1       0.306   9.579  21.397  0.00  0.00    +0.000 OA
ATOM     20  C   UNL     1       0.833  10.090  20.241  0.00  0.00    +0.000 A 
ATOM     21  C   UNL     1       0.738  11.467  20.051  0.00  0.00    +0.000 A 
ATOM     22  C   UNL     1       1.315  12.052  18.923  0.00  0.00    +0.000 A 
ATOM     23  C   UNL     1       1.955  11.254  17.972  0.00  0.00    +0.000 A 
ATOM     24  C   UNL     1       2.019   9.871  18.150  0.00  0.00    +0.000 A 
ATOM     25  C   UNL     1       1.461   9.288  19.286  0.00  0.00    +0.000 A 
ATOM     26  O   UNL     1       1.604   7.934  19.409  0.00  0.00    +0.000 OA
ENDBRANCH  16  17
ENDBRANCH   2  16
TORSDOF 3
ENDMDL
MODEL 5
REMARK VINA RESULT:      -7.1      3.393      5.436
REMARK  Name = 
REMARK  4 active torsions:
REMARK  status: ('A' for Active; 'I' for Inactive)
REMARK    1  A    between atoms: C_1  and  N_2
REMARK    2  A    between atoms: N_2  and  C_3
REMARK    3  A    between atoms: C_3  and  C_4
REMARK    4  A    between atoms: C_16  and  C_17
REMARK                            x       y       z     vdW  Elec       q    Type
REMARK                         _______ _______ _______ _____ _____    ______ ____
ROOT
ATOM      1  C   UNL     1       1.297  11.479  19.726  0.00  0.00    +0.000 C 
ATOM      2  N   UNL     1       0.805  10.153  20.122  0.00  0.00    +0.000 N 
ATOM      3  C   UNL     1       1.419   9.149  19.333  0.00  0.00    +0.000 A 
ATOM      4  C   UNL     1       1.695   7.938  19.932  0.00  0.00    +0.000 A 
ATOM      5  C   UNL     1       2.470   7.027  19.237  0.00  0.00    +0.000 A 
ATOM      6  N   UNL     1       2.904   7.276  17.991  0.00  0.00    +0.000 NA
ATOM      7  C   UNL     1       2.554   8.461  17.471  0.00  0.00    +0.000 A 
ATOM      8  N   UNL     1       1.836   9.417  18.089  0.00  0.00    +0.000 NA
ENDROOT
BRANCH   5   9
ATOM      9  C   UNL     1       2.957   5.784  19.963  0.00  0.00    +0.000 C 
ATOM     10  C   UNL     1       3.511   4.752  18.964  0.00  0.00    +0.000 C 
ATOM     11  C   UNL     1       2.432   3.851  18.367  0.00  0.00    +0.000 C 
ATOM     12  N   UNL     1       1.626   3.216  19.409  0.00  0.00    +0.000 NA
ATOM     13  C   UNL     1       0.934   4.234  20.201  0.00  0.00    +0.000 C 
ATOM     14  C   UNL     1       1.920   5.161  20.908  0.00  0.00    +0.000 C 
ATOM     15  H   UNL     1       2.231   2.667  20.020  0.00  0.00    +0.000 HD
ENDBRANCH   5   9
BRANCH   2  16
ATOM     16  C   UNL     1      -0.669  10.056  20.129  0.00  0.00    +0.000 C 
BRANCH  16  17
ATOM     17  C   UNL     1      -1.373  10.889  19.039  0.00  0.00    +0.000 C 
ATOM     18  C   UNL     1      -1.810  10.009  17.868  0.00  0.00    +0.000 C 
ATOM     19  O   UNL     1      -2.530  10.777  16.892  0.00  0.00    +0.000 OA
ATOM     20  C   UNL     1      -3.575  11.421  17.500  0.00  0.00    +0.000 A 
ATOM     21  C   UNL     1      -4.692  11.704  16.715  0.00  0.00    +0.000 A 
ATOM     22  C   UNL     1      -5.813  12.300  17.296  0.00  0.00    +0.000 A 
ATOM     23  C   UNL     1      -5.801  12.641  18.649  0.00  0.00    +0.000 A 
ATOM     24  C   UNL     1      -4.668  12.387  19.424  0.00  0.00    +0.000 A 
ATOM     25  C   UNL     1      -3.555  11.773  18.851  0.00  0.00    +0.000 A 
ATOM     26  O   UNL     1      -2.503  11.517  19.685  0.00  0.00    +0.000 OA
ENDBRANCH  16  17
ENDBRANCH   2  16
TORSDOF 3
ENDMDL
MODEL 6
REMARK VINA RESULT:      -7.1      1.058      1.583
REMARK  Name = 
REMARK  4 active torsions:
REMARK  status: ('A' for Active; 'I' for Inactive)
REMARK    1  A    between atoms: C_1  and  N_2
REMARK    2  A    between atoms: N_2  and  C_3
REMARK    3  A    between atoms: C_3  and  C_4
REMARK    4  A    between atoms: C_16  and  C_17
REMARK                            x       y       z     vdW  Elec       q    Type
REMARK                         _______ _______ _______ _____ _____    ______ ____
ROOT
ATOM      1  C   UNL     1       0.808   4.231  20.101  0.00  0.00    +0.000 C 
ATOM      2  N   UNL     1       1.920   5.150  19.828  0.00  0.00    +0.000 N 
ATOM      3  C   UNL     1       3.125   4.424  19.665  0.00  0.00    +0.000 A 
ATOM      4  C   UNL     1       4.045   4.898  18.753  0.00  0.00    +0.000 A 
ATOM      5  C   UNL     1       5.127   4.095  18.439  0.00  0.00    +0.000 A 
ATOM      6  N   UNL     1       5.323   2.908  19.037  0.00  0.00    +0.000 NA
ATOM      7  C   UNL     1       4.400   2.546  19.941  0.00  0.00    +0.000 A 
ATOM      8  N   UNL     1       3.302   3.246  20.279  0.00  0.00    +0.000 NA
ENDROOT
BRANCH   5   9
ATOM      9  C   UNL     1       6.028   4.508  17.287  0.00  0.00    +0.000 C 
ATOM     10  C   UNL     1       7.447   4.827  17.793  0.00  0.00    +0.000 C 
ATOM     11  C   UNL     1       7.601   6.263  18.289  0.00  0.00    +0.000 C 
ATOM     12  N   UNL     1       7.156   7.229  17.285  0.00  0.00    +0.000 NA
ATOM     13  C   UNL     1       5.735   7.034  16.996  0.00  0.00    +0.000 C 
ATOM     14  C   UNL     1       5.464   5.645  16.423  0.00  0.00    +0.000 C 
ATOM     15  H   UNL     1       7.696   7.102  16.429  0.00  0.00    +0.000 HD
ENDBRANCH   5   9
BRANCH   2  16
ATOM     16  C   UNL     1       2.036   6.237  20.823  0.00  0.00    +0.000 C 
BRANCH  16  17
ATOM     17  C   UNL     1       2.084   7.655  20.221  0.00  0.00    +0.000 C 
ATOM     18  C   UNL     1       1.732   7.636  18.733  0.00  0.00    +0.000 C 
ATOM     19  O   UNL     1       1.705   8.967  18.197  0.00  0.00    +0.000 OA
ATOM     20  C   UNL     1       0.853   9.741  18.940  0.00  0.00    +0.000 A 
ATOM     21  C   UNL     1       0.235  10.810  18.293  0.00  0.00    +0.000 A 
ATOM     22  C   UNL     1      -0.692  11.592  18.982  0.00  0.00    +0.000 A 
ATOM     23  C   UNL     1      -0.974  11.326  20.322  0.00  0.00    +0.000 A 
ATOM     24  C   UNL     1      -0.328  10.275  20.976  0.00  0.00    +0.000 A 
ATOM     25  C   UNL     1       0.583   9.479  20.284  0.00  0.00    +0.000 A 
ATOM     26  O   UNL     1       1.140   8.443  20.981  0.00  0.00    +0.000 OA
ENDBRANCH  16  17
ENDBRANCH   2  16
TORSDOF 3
ENDMDL
MODEL 7
REMARK VINA RESULT:      -7.1      1.937      4.084
REMARK  Name = 
REMARK  4 active torsions:
REMARK  status: ('A' for Active; 'I' for Inactive)
REMARK    1  A    between atoms: C_1  and  N_2
REMARK    2  A    between atoms: N_2  and  C_3
REMARK    3  A    between atoms: C_3  and  C_4
REMARK    4  A    between atoms: C_16  and  C_17
REMARK                            x       y       z     vdW  Elec       q    Type
REMARK                         _______ _______ _______ _____ _____    ______ ____
ROOT
ATOM      1  C   UNL     1       4.923   7.686  17.642  0.00  0.00    +0.000 C 
ATOM      2  N   UNL     1       3.715   6.967  18.065  0.00  0.00    +0.000 N 
ATOM      3  C   UNL     1       3.787   5.611  17.662  0.00  0.00    +0.000 A 
ATOM      4  C   UNL     1       3.230   4.661  18.493  0.00  0.00    +0.000 A 
ATOM      5  C   UNL     1       3.471   3.328  18.214  0.00  0.00    +0.000 A 
ATOM      6  N   UNL     1       4.177   2.948  17.138  0.00  0.00    +0.000 NA
ATOM      7  C   UNL     1       4.646   3.937  16.362  0.00  0.00    +0.000 A 
ATOM      8  N   UNL     1       4.491   5.256  16.579  0.00  0.00    +0.000 NA
ENDROOT
BRANCH   5   9
ATOM      9  C   UNL     1       3.045   2.284  19.234  0.00  0.00    +0.000 C 
ATOM     10  C   UNL     1       1.569   1.896  19.032  0.00  0.00    +0.000 C 
ATOM     11  C   UNL     1       0.596   2.835  19.744  0.00  0.00    +0.000 C 
ATOM     12  N   UNL     1       0.928   2.977  21.161  0.00  0.00    +0.000 NA
ATOM     13  C   UNL     1       2.262   3.562  21.309  0.00  0.00    +0.000 C 
ATOM     14  C   UNL     1       3.337   2.671  20.690  0.00  0.00    +0.000 C 
ATOM     15  H   UNL     1       0.910   2.061  21.608  0.00  0.00    +0.000 HD
ENDBRANCH   5   9
BRANCH   2  16
ATOM     16  C   UNL     1       2.463   7.626  17.636  0.00  0.00    +0.000 C 
BRANCH  16  17
ATOM     17  C   UNL     1       2.076   8.869  18.461  0.00  0.00    +0.000 C 
ATOM     18  C   UNL     1       0.760   9.470  17.970  0.00  0.00    +0.000 C 
ATOM     19  O   UNL     1       0.367  10.581  18.789  0.00  0.00    +0.000 OA
ATOM     20  C   UNL     1       0.320  10.187  20.100  0.00  0.00    +0.000 A 
ATOM     21  C   UNL     1      -0.563  10.864  20.938  0.00  0.00    +0.000 A 
ATOM     22  C   UNL     1      -0.701  10.463  22.267  0.00  0.00    +0.000 A 
ATOM     23  C   UNL     1       0.068   9.410  22.763  0.00  0.00    +0.000 A 
ATOM     24  C   UNL     1       0.977   8.755  21.929  0.00  0.00    +0.000 A 
ATOM     25  C   UNL     1       1.101   9.141  20.595  0.00  0.00    +0.000 A 
ATOM     26  O   UNL     1       1.979   8.423  19.832  0.00  0.00    +0.000 OA
ENDBRANCH  16  17
ENDBRANCH   2  16
TORSDOF 3
ENDMDL
MODEL 8
REMARK VINA RESULT:      -7.1      4.167      8.134
REMARK  Name = 
REMARK  4 active torsions:
REMARK  status: ('A' for Active; 'I' for Inactive)
REMARK    1  A    between atoms: C_1  and  N_2
REMARK    2  A    between atoms: N_2  and  C_3
REMARK    3  A    between atoms: C_3  and  C_4
REMARK    4  A    between atoms: C_16  and  C_17
REMARK                            x       y       z     vdW  Elec       q    Type
REMARK                         _______ _______ _______ _____ _____    ______ ____
ROOT
ATOM      1  C   UNL     1       7.965   6.438  19.060  0.00  0.00    +0.000 C 
ATOM      2  N   UNL     1       6.694   6.542  18.331  0.00  0.00    +0.000 N 
ATOM      3  C   UNL     1       5.849   5.455  18.664  0.00  0.00    +0.000 A 
ATOM      4  C   UNL     1       4.491   5.689  18.721  0.00  0.00    +0.000 A 
ATOM      5  C   UNL     1       3.679   4.696  19.239  0.00  0.00    +0.000 A 
ATOM      6  N   UNL     1       4.174   3.510  19.627  0.00  0.00    +0.000 NA
ATOM      7  C   UNL     1       5.500   3.355  19.497  0.00  0.00    +0.000 A 
ATOM      8  N   UNL     1       6.366   4.278  19.040  0.00  0.00    +0.000 NA
ENDROOT
BRANCH   5   9
ATOM      9  C   UNL     1       2.217   5.018  19.503  0.00  0.00    +0.000 C 
ATOM     10  C   UNL     1       1.867   4.781  20.984  0.00  0.00    +0.000 C 
ATOM     11  C   UNL     1       1.493   3.332  21.290  0.00  0.00    +0.000 C 
ATOM     12  N   UNL     1       0.436   2.851  20.401  0.00  0.00    +0.000 NA
ATOM     13  C   UNL     1       0.895   2.883  19.012  0.00  0.00    +0.000 C 
ATOM     14  C   UNL     1       1.235   4.302  18.565  0.00  0.00    +0.000 C 
ATOM     15  H   UNL     1      -0.387   3.445  20.499  0.00  0.00    +0.000 HD
ENDBRANCH   5   9
BRANCH   2  16
ATOM     16  C   UNL     1       6.871   6.705  16.873  0.00  0.00    +0.000 C 
BRANCH  16  17
ATOM     17  C   UNL     1       6.808   5.393  16.068  0.00  0.00    +0.000 C 
ATOM     18  C   UNL     1       5.362   5.003  15.758  0.00  0.00    +0.000 C 
ATOM     19  O   UNL     1       5.313   3.822  14.945  0.00  0.00    +0.000 OA
ATOM     20  C   UNL     1       6.070   4.011  13.820  0.00  0.00    +0.000 A 
ATOM     21  C   UNL     1       5.705   3.300  12.678  0.00  0.00    +0.000 A 
ATOM     22  C   UNL     1       6.400   3.501  11.485  0.00  0.00    +0.000 A 
ATOM     23  C   UNL     1       7.478   4.387  11.445  0.00  0.00    +0.000 A 
ATOM     24  C   UNL     1       7.862   5.072  12.599  0.00  0.00    +0.000 A 
ATOM     25  C   UNL     1       7.156   4.888  13.786  0.00  0.00    +0.000 A 
ATOM     26  O   UNL     1       7.566   5.628  14.860  0.00  0.00    +0.000 OA
ENDBRANCH  16  17
ENDBRANCH   2  16
TORSDOF 3
ENDMDL
MODEL 9
REMARK VINA RESULT:      -6.9      4.127      8.474
REMARK  Name = 
REMARK  4 active torsions:
REMARK  status: ('A' for Active; 'I' for Inactive)
REMARK    1  A    between atoms: C_1  and  N_2
REMARK    2  A    between atoms: N_2  and  C_3
REMARK    3  A    between atoms: C_3  and  C_4
REMARK    4  A    between atoms: C_16  and  C_17
REMARK                            x       y       z     vdW  Elec       q    Type
REMARK                         _______ _______ _______ _____ _____    ______ ____
ROOT
ATOM      1  C   UNL     1       2.696  10.659  17.856  0.00  0.00    +0.000 C 
ATOM      2  N   UNL     1       1.676   9.629  18.089  0.00  0.00    +0.000 N 
ATOM      3  C   UNL     1       0.450  10.233  18.463  0.00  0.00    +0.000 A 
ATOM      4  C   UNL     1      -0.718   9.635  18.036  0.00  0.00    +0.000 A 
ATOM      5  C   UNL     1      -1.906  10.320  18.221  0.00  0.00    +0.000 A 
ATOM      6  N   UNL     1      -1.947  11.508  18.845  0.00  0.00    +0.000 NA
ATOM      7  C   UNL     1      -0.769  11.994  19.263  0.00  0.00    +0.000 A 
ATOM      8  N   UNL     1       0.433  11.414  19.094  0.00  0.00    +0.000 NA
ENDROOT
BRANCH   5   9
ATOM      9  C   UNL     1      -3.167   9.774  17.570  0.00  0.00    +0.000 C 
ATOM     10  C   UNL     1      -2.974   9.623  16.050  0.00  0.00    +0.000 C 
ATOM     11  C   UNL     1      -3.259  10.909  15.276  0.00  0.00    +0.000 C 
ATOM     12  N   UNL     1      -4.577  11.451  15.602  0.00  0.00    +0.000 NA
ATOM     13  C   UNL     1      -4.643  11.792  17.023  0.00  0.00    +0.000 C 
ATOM     14  C   UNL     1      -4.440  10.564  17.906  0.00  0.00    +0.000 C 
ATOM     15  H   UNL     1      -5.293  10.756  15.388  0.00  0.00    +0.000 HD
ENDBRANCH   5   9
BRANCH   2  16
ATOM     16  C   UNL     1       2.110   8.581  19.036  0.00  0.00    +0.000 C 
BRANCH  16  17
ATOM     17  C   UNL     1       2.269   7.180  18.413  0.00  0.00    +0.000 C 
ATOM     18  C   UNL     1       3.653   7.006  17.789  0.00  0.00    +0.000 C 
ATOM     19  O   UNL     1       3.821   5.675  17.278  0.00  0.00    +0.000 OA
ATOM     20  C   UNL     1       3.563   4.769  18.272  0.00  0.00    +0.000 A 
ATOM     21  C   UNL     1       4.211   3.538  18.196  0.00  0.00    +0.000 A 
ATOM     22  C   UNL     1       4.038   2.600  19.215  0.00  0.00    +0.000 A 
ATOM     23  C   UNL     1       3.192   2.883  20.288  0.00  0.00    +0.000 A 
ATOM     24  C   UNL     1       2.518   4.104  20.344  0.00  0.00    +0.000 A 
ATOM     25  C   UNL     1       2.706   5.051  19.338  0.00  0.00    +0.000 A 
ATOM     26  O   UNL     1       2.047   6.239  19.487  0.00  0.00    +0.000 OA
ENDBRANCH  16  17
ENDBRANCH   2  16
TORSDOF 3
ENDMDL
