MODEL 1
REMARK VINA RESULT:      -7.8      0.000      0.000
REMARK  Name = 
REMARK  8 active torsions:
REMARK  status: ('A' for Active; 'I' for Inactive)
REMARK    1  A    between atoms: C_1  and  O_2
REMARK    2  A    between atoms: O_2  and  C_3
REMARK    3  A    between atoms: C_8  and  C_9
REMARK    4  A    between atoms: C_9  and  C_11
REMARK    5  A    between atoms: N_15  and  C_16
REMARK    6  A    between atoms: C_16  and  C_17
REMARK    7  A    between atoms: C_20  and  O_21
REMARK    8  A    between atoms: O_21  and  C_22
REMARK                            x       y       z     vdW  Elec       q    Type
REMARK                         _______ _______ _______ _____ _____    ______ ____
ROOT
ATOM      1  C   UNL     1       3.373   4.266  19.704  0.00  0.00    +0.000 C 
ATOM      2  C   UNL     1       2.079   3.585  19.253  0.00  0.00    +0.000 C 
ATOM      3  C   UNL     1       1.455   4.133  17.977  0.00  0.00    +0.000 C 
ATOM      4  C   UNL     1       1.556   5.643  17.780  0.00  0.00    +0.000 C 
ATOM      5  N   UNL     1       2.836   6.229  18.150  0.00  0.00    +0.000 NA
ATOM      6  C   UNL     1       3.397   5.782  19.424  0.00  0.00    +0.000 C 
ENDROOT
BRANCH   1   7
ATOM      7  C   UNL     1       4.683   3.555  19.306  0.00  0.00    +0.000 C 
ATOM      8  O   UNL     1       5.019   2.491  19.837  0.00  0.00    +0.000 OA
BRANCH   7  14
ATOM      9  C   UNL     1       6.667   4.668  18.108  0.00  0.00    +0.000 A 
ATOM     10  C   UNL     1       7.294   4.940  16.868  0.00  0.00    +0.000 A 
ATOM     11  C   UNL     1       6.746   4.563  15.655  0.00  0.00    +0.000 A 
ATOM     12  C   UNL     1       5.531   3.887  15.639  0.00  0.00    +0.000 A 
ATOM     13  C   UNL     1       4.889   3.600  16.849  0.00  0.00    +0.000 A 
ATOM     14  C   UNL     1       5.437   3.993  18.091  0.00  0.00    +0.000 A 
BRANCH   9  16
ATOM     15  C   UNL     1       8.141   6.381  19.026  0.00  0.00    +0.000 C 
ATOM     16  O   UNL     1       7.428   5.164  19.128  0.00  0.00    +0.000 OA
ENDBRANCH   9  16
ENDBRANCH   7  14
ENDBRANCH   1   7
BRANCH   5  17
ATOM     17  C   UNL     1       2.867   7.704  18.009  0.00  0.00    +0.000 C 
BRANCH  17  18
ATOM     18  C   UNL     1       1.840   8.530  18.779  0.00  0.00    +0.000 A 
ATOM     19  C   UNL     1       1.623   8.356  20.155  0.00  0.00    +0.000 A 
ATOM     20  C   UNL     1       0.706   9.159  20.847  0.00  0.00    +0.000 A 
ATOM     21  C   UNL     1       0.002  10.166  20.184  0.00  0.00    +0.000 A 
ATOM     22  C   UNL     1       0.187  10.333  18.812  0.00  0.00    +0.000 A 
ATOM     23  C   UNL     1       1.106   9.532  18.120  0.00  0.00    +0.000 A 
BRANCH  21  24
ATOM     24  O   UNL     1      -0.916  10.874  20.927  0.00  0.00    +0.000 OA
BRANCH  24  25
ATOM     25  C   UNL     1      -0.784  12.254  21.017  0.00  0.00    +0.000 A 
ATOM     26  N   UNL     1       0.299  12.684  21.691  0.00  0.00    +0.000 NA
ATOM     27  C   UNL     1       0.463  14.019  21.760  0.00  0.00    +0.000 A 
ATOM     28  C   UNL     1      -0.398  14.924  21.184  0.00  0.00    +0.000 A 
ATOM     29  C   UNL     1      -1.457  14.377  20.501  0.00  0.00    +0.000 A 
ATOM     30  N   UNL     1      -1.670  13.053  20.391  0.00  0.00    +0.000 NA
ENDBRANCH  24  25
ENDBRANCH  21  24
ENDBRANCH  17  18
ENDBRANCH   5  17
TORSDOF 7
ENDMDL
MODEL 2
REMARK VINA RESULT:      -7.8      0.645      1.208
REMARK  Name = 
REMARK  8 active torsions:
REMARK  status: ('A' for Active; 'I' for Inactive)
REMARK    1  A    between atoms: C_1  and  O_2
REMARK    2  A    between atoms: O_2  and  C_3
REMARK    3  A    between atoms: C_8  and  C_9
REMARK    4  A    between atoms: C_9  and  C_11
REMARK    5  A    between atoms: N_15  and  C_16
REMARK    6  A    between atoms: C_16  and  C_17
REMARK    7  A    between atoms: C_20  and  O_21
REMARK    8  A    between atoms: O_21  and  C_22
REMARK                            x       y       z     vdW  Elec       q    Type
REMARK                         _______ _______ _______ _____ _____    ______ ____
ROOT
ATOM      1  C   UNL     1       3.356   4.295  19.707  0.00  0.00    +0.000 C 
ATOM      2  C   UNL     1       2.042   3.662  19.246  0.00  0.00    +0.000 C 
ATOM      3  C   UNL     1       1.444   4.238  17.970  0.00  0.00    +0.000 C 
ATOM      4  C   UNL     1       1.598   5.745  17.783  0.00  0.00    +0.000 C 
ATOM      5  N   UNL     1       2.896   6.283  18.163  0.00  0.00    +0.000 NA
ATOM      6  C   UNL     1       3.434   5.810  19.436  0.00  0.00    +0.000 C 
ENDROOT
BRANCH   1   7
ATOM      7  C   UNL     1       4.643   3.540  19.311  0.00  0.00    +0.000 C 
ATOM      8  O   UNL     1       4.939   2.462  19.836  0.00  0.00    +0.000 OA
BRANCH   7  14
ATOM      9  C   UNL     1       6.639   4.650  18.130  0.00  0.00    +0.000 A 
ATOM     10  C   UNL     1       7.290   4.900  16.897  0.00  0.00    +0.000 A 
ATOM     11  C   UNL     1       6.773   4.489  15.682  0.00  0.00    +0.000 A 
ATOM     12  C   UNL     1       5.566   3.798  15.656  0.00  0.00    +0.000 A 
ATOM     13  C   UNL     1       4.901   3.531  16.858  0.00  0.00    +0.000 A 
ATOM     14  C   UNL     1       5.418   3.960  18.102  0.00  0.00    +0.000 A 
BRANCH   9  16
ATOM     15  C   UNL     1       8.119   6.372  19.020  0.00  0.00    +0.000 C 
ATOM     16  O   UNL     1       7.372   5.179  19.153  0.00  0.00    +0.000 OA
ENDBRANCH   9  16
ENDBRANCH   7  14
ENDBRANCH   1   7
BRANCH   5  17
ATOM     17  C   UNL     1       2.979   7.758  18.031  0.00  0.00    +0.000 C 
BRANCH  17  18
ATOM     18  C   UNL     1       1.868   8.606  18.644  0.00  0.00    +0.000 A 
ATOM     19  C   UNL     1       1.047   9.437  17.866  0.00  0.00    +0.000 A 
ATOM     20  C   UNL     1       0.004  10.171  18.449  0.00  0.00    +0.000 A 
ATOM     21  C   UNL     1      -0.254  10.072  19.818  0.00  0.00    +0.000 A 
ATOM     22  C   UNL     1       0.569   9.271  20.607  0.00  0.00    +0.000 A 
ATOM     23  C   UNL     1       1.610   8.535  20.024  0.00  0.00    +0.000 A 
BRANCH  21  24
ATOM     24  O   UNL     1      -1.264  10.865  20.317  0.00  0.00    +0.000 OA
BRANCH  24  25
ATOM     25  C   UNL     1      -0.927  12.005  21.036  0.00  0.00    +0.000 A 
ATOM     26  N   UNL     1      -1.656  12.218  22.147  0.00  0.00    +0.000 NA
ATOM     27  C   UNL     1      -1.322  13.300  22.877  0.00  0.00    +0.000 A 
ATOM     28  C   UNL     1      -0.299  14.157  22.545  0.00  0.00    +0.000 A 
ATOM     29  C   UNL     1       0.395  13.833  21.404  0.00  0.00    +0.000 A 
ATOM     30  N   UNL     1       0.113  12.764  20.638  0.00  0.00    +0.000 NA
ENDBRANCH  24  25
ENDBRANCH  21  24
ENDBRANCH  17  18
ENDBRANCH   5  17
TORSDOF 7
ENDMDL
MODEL 3
REMARK VINA RESULT:      -7.7      2.291      2.982
REMARK  Name = 
REMARK  8 active torsions:
REMARK  status: ('A' for Active; 'I' for Inactive)
REMARK    1  A    between atoms: C_1  and  O_2
REMARK    2  A    between atoms: O_2  and  C_3
REMARK    3  A    between atoms: C_8  and  C_9
REMARK    4  A    between atoms: C_9  and  C_11
REMARK    5  A    between atoms: N_15  and  C_16
REMARK    6  A    between atoms: C_16  and  C_17
REMARK    7  A    between atoms: C_20  and  O_21
REMARK    8  A    between atoms: O_21  and  C_22
REMARK                            x       y       z     vdW  Elec       q    Type
REMARK                         _______ _______ _______ _____ _____    ______ ____
ROOT
ATOM      1  C   UNL     1       3.613   3.191  19.596  0.00  0.00    +0.000 C 
ATOM      2  C   UNL     1       2.370   2.298  19.622  0.00  0.00    +0.000 C 
ATOM      3  C   UNL     1       1.034   3.027  19.589  0.00  0.00    +0.000 C 
ATOM      4  C   UNL     1       0.970   4.338  20.368  0.00  0.00    +0.000 C 
ATOM      5  N   UNL     1       2.147   5.186  20.245  0.00  0.00    +0.000 NA
ATOM      6  C   UNL     1       3.435   4.509  20.374  0.00  0.00    +0.000 C 
ENDROOT
BRANCH   1   7
ATOM      7  C   UNL     1       4.276   3.384  18.216  0.00  0.00    +0.000 C 
ATOM      8  O   UNL     1       4.146   2.542  17.321  0.00  0.00    +0.000 OA
BRANCH   7  14
ATOM      9  C   UNL     1       6.113   5.182  18.275  0.00  0.00    +0.000 A 
ATOM     10  C   UNL     1       6.566   6.422  17.766  0.00  0.00    +0.000 A 
ATOM     11  C   UNL     1       5.832   7.172  16.864  0.00  0.00    +0.000 A 
ATOM     12  C   UNL     1       4.598   6.698  16.432  0.00  0.00    +0.000 A 
ATOM     13  C   UNL     1       4.126   5.473  16.914  0.00  0.00    +0.000 A 
ATOM     14  C   UNL     1       4.865   4.707  17.845  0.00  0.00    +0.000 A 
BRANCH   9  16
ATOM     15  C   UNL     1       8.047   5.475  19.733  0.00  0.00    +0.000 C 
ATOM     16  O   UNL     1       7.035   4.678  19.148  0.00  0.00    +0.000 OA
ENDBRANCH   9  16
ENDBRANCH   7  14
ENDBRANCH   1   7
BRANCH   5  17
ATOM     17  C   UNL     1       2.071   6.414  21.072  0.00  0.00    +0.000 C 
BRANCH  17  18
ATOM     18  C   UNL     1       1.483   7.676  20.446  0.00  0.00    +0.000 A 
ATOM     19  C   UNL     1       1.868   8.126  19.174  0.00  0.00    +0.000 A 
ATOM     20  C   UNL     1       1.278   9.263  18.602  0.00  0.00    +0.000 A 
ATOM     21  C   UNL     1       0.277   9.961  19.282  0.00  0.00    +0.000 A 
ATOM     22  C   UNL     1      -0.097   9.540  20.557  0.00  0.00    +0.000 A 
ATOM     23  C   UNL     1       0.490   8.402  21.127  0.00  0.00    +0.000 A 
BRANCH  21  24
ATOM     24  O   UNL     1      -0.212  11.094  18.672  0.00  0.00    +0.000 OA
BRANCH  24  25
ATOM     25  C   UNL     1      -1.501  11.073  18.152  0.00  0.00    +0.000 A 
ATOM     26  N   UNL     1      -1.684  10.243  17.109  0.00  0.00    +0.000 NA
ATOM     27  C   UNL     1      -2.935  10.182  16.612  0.00  0.00    +0.000 A 
ATOM     28  C   UNL     1      -3.991  10.904  17.117  0.00  0.00    +0.000 A 
ATOM     29  C   UNL     1      -3.697  11.702  18.197  0.00  0.00    +0.000 A 
ATOM     30  N   UNL     1      -2.471  11.799  18.740  0.00  0.00    +0.000 NA
ENDBRANCH  24  25
ENDBRANCH  21  24
ENDBRANCH  17  18
ENDBRANCH   5  17
TORSDOF 7
ENDMDL
MODEL 4
REMARK VINA RESULT:      -7.7      2.613      3.756
REMARK  Name = 
REMARK  8 active torsions:
REMARK  status: ('A' for Active; 'I' for Inactive)
REMARK    1  A    between atoms: C_1  and  O_2
REMARK    2  A    between atoms: O_2  and  C_3
REMARK    3  A    between atoms: C_8  and  C_9
REMARK    4  A    between atoms: C_9  and  C_11
REMARK    5  A    between atoms: N_15  and  C_16
REMARK    6  A    between atoms: C_16  and  C_17
REMARK    7  A    between atoms: C_20  and  O_21
REMARK    8  A    between atoms: O_21  and  C_22
REMARK                            x       y       z     vdW  Elec       q    Type
REMARK                         _______ _______ _______ _____ _____    ______ ____
ROOT
ATOM      1  C   UNL     1       5.327   4.729  16.772  0.00  0.00    +0.000 C 
ATOM      2  C   UNL     1       4.648   3.358  16.715  0.00  0.00    +0.000 C 
ATOM      3  C   UNL     1       3.191   3.325  17.158  0.00  0.00    +0.000 C 
ATOM      4  C   UNL     1       2.828   4.238  18.325  0.00  0.00    +0.000 C 
ATOM      5  N   UNL     1       3.439   5.558  18.288  0.00  0.00    +0.000 NA
ATOM      6  C   UNL     1       4.863   5.593  17.960  0.00  0.00    +0.000 C 
ENDROOT
BRANCH   1   7
ATOM      7  C   UNL     1       5.385   5.507  15.441  0.00  0.00    +0.000 C 
ATOM      8  O   UNL     1       5.278   6.738  15.414  0.00  0.00    +0.000 OA
BRANCH   7  14
ATOM      9  C   UNL     1       7.116   4.930  13.629  0.00  0.00    +0.000 A 
ATOM     10  C   UNL     1       7.409   4.149  12.485  0.00  0.00    +0.000 A 
ATOM     11  C   UNL     1       6.490   3.290  11.909  0.00  0.00    +0.000 A 
ATOM     12  C   UNL     1       5.222   3.178  12.470  0.00  0.00    +0.000 A 
ATOM     13  C   UNL     1       4.903   3.933  13.604  0.00  0.00    +0.000 A 
ATOM     14  C   UNL     1       5.834   4.822  14.189  0.00  0.00    +0.000 A 
BRANCH   9  16
ATOM     15  C   UNL     1       9.218   6.014  13.034  0.00  0.00    +0.000 C 
ATOM     16  O   UNL     1       8.203   5.686  13.962  0.00  0.00    +0.000 OA
ENDBRANCH   9  16
ENDBRANCH   7  14
ENDBRANCH   1   7
BRANCH   5  17
ATOM     17  C   UNL     1       3.115   6.386  19.475  0.00  0.00    +0.000 C 
BRANCH  17  18
ATOM     18  C   UNL     1       2.243   7.624  19.281  0.00  0.00    +0.000 A 
ATOM     19  C   UNL     1       1.510   8.193  20.334  0.00  0.00    +0.000 A 
ATOM     20  C   UNL     1       0.753   9.357  20.139  0.00  0.00    +0.000 A 
ATOM     21  C   UNL     1       0.730   9.989  18.894  0.00  0.00    +0.000 A 
ATOM     22  C   UNL     1       1.433   9.420  17.832  0.00  0.00    +0.000 A 
ATOM     23  C   UNL     1       2.192   8.259  18.028  0.00  0.00    +0.000 A 
BRANCH  21  24
ATOM     24  O   UNL     1      -0.078  11.097  18.776  0.00  0.00    +0.000 OA
BRANCH  24  25
ATOM     25  C   UNL     1      -1.410  10.920  18.419  0.00  0.00    +0.000 A 
ATOM     26  N   UNL     1      -2.270  11.806  18.953  0.00  0.00    +0.000 NA
ATOM     27  C   UNL     1      -3.560  11.673  18.592  0.00  0.00    +0.000 A 
ATOM     28  C   UNL     1      -4.013  10.704  17.726  0.00  0.00    +0.000 A 
ATOM     29  C   UNL     1      -3.048   9.866  17.223  0.00  0.00    +0.000 A 
ATOM     30  N   UNL     1      -1.744   9.955  17.540  0.00  0.00    +0.000 NA
ENDBRANCH  24  25
ENDBRANCH  21  24
ENDBRANCH  17  18
ENDBRANCH   5  17
TORSDOF 7
ENDMDL
MODEL 5
REMARK VINA RESULT:      -7.6      1.782      2.640
REMARK  Name = 
REMARK  8 active torsions:
REMARK  status: ('A' for Active; 'I' for Inactive)
REMARK    1  A    between atoms: C_1  and  O_2
REMARK    2  A    between atoms: O_2  and  C_3
REMARK    3  A    between atoms: C_8  and  C_9
REMARK    4  A    between atoms: C_9  and  C_11
REMARK    5  A    between atoms: N_15  and  C_16
REMARK    6  A    between atoms: C_16  and  C_17
REMARK    7  A    between atoms: C_20  and  O_21
REMARK    8  A    between atoms: O_21  and  C_22
REMARK                            x       y       z     vdW  Elec       q    Type
REMARK                         _______ _______ _______ _____ _____    ______ ____
ROOT
ATOM      1  C   UNL     1       4.549   3.488  18.378  0.00  0.00    +0.000 C 
ATOM      2  C   UNL     1       3.404   2.629  17.834  0.00  0.00    +0.000 C 
ATOM      3  C   UNL     1       2.088   3.357  17.600  0.00  0.00    +0.000 C 
ATOM      4  C   UNL     1       1.731   4.434  18.620  0.00  0.00    +0.000 C 
ATOM      5  N   UNL     1       2.841   5.274  19.045  0.00  0.00    +0.000 NA
ATOM      6  C   UNL     1       4.082   4.573  19.367  0.00  0.00    +0.000 C 
ENDROOT
BRANCH   1   7
ATOM      7  C   UNL     1       5.555   4.010  17.332  0.00  0.00    +0.000 C 
ATOM      8  O   UNL     1       5.481   3.669  16.147  0.00  0.00    +0.000 OA
BRANCH   7  14
ATOM      9  C   UNL     1       6.547   6.356  16.977  0.00  0.00    +0.000 A 
ATOM     10  C   UNL     1       7.411   7.359  17.478  0.00  0.00    +0.000 A 
ATOM     11  C   UNL     1       8.173   7.187  18.620  0.00  0.00    +0.000 A 
ATOM     12  C   UNL     1       8.094   5.985  19.315  0.00  0.00    +0.000 A 
ATOM     13  C   UNL     1       7.245   4.976  18.847  0.00  0.00    +0.000 A 
ATOM     14  C   UNL     1       6.474   5.140  17.673  0.00  0.00    +0.000 A 
BRANCH   9  16
ATOM     15  C   UNL     1       4.563   7.128  15.787  0.00  0.00    +0.000 C 
ATOM     16  O   UNL     1       5.938   6.800  15.838  0.00  0.00    +0.000 OA
ENDBRANCH   9  16
ENDBRANCH   7  14
ENDBRANCH   1   7
BRANCH   5  17
ATOM     17  C   UNL     1       2.464   6.260  20.086  0.00  0.00    +0.000 C 
BRANCH  17  18
ATOM     18  C   UNL     1       1.985   7.639  19.641  0.00  0.00    +0.000 A 
ATOM     19  C   UNL     1       1.293   8.503  20.505  0.00  0.00    +0.000 A 
ATOM     20  C   UNL     1       0.904   9.783  20.085  0.00  0.00    +0.000 A 
ATOM     21  C   UNL     1       1.218  10.234  18.801  0.00  0.00    +0.000 A 
ATOM     22  C   UNL     1       1.882   9.377  17.924  0.00  0.00    +0.000 A 
ATOM     23  C   UNL     1       2.273   8.099  18.345  0.00  0.00    +0.000 A 
BRANCH  21  24
ATOM     24  O   UNL     1       0.754  11.483  18.453  0.00  0.00    +0.000 OA
BRANCH  24  25
ATOM     25  C   UNL     1      -0.422  11.946  19.030  0.00  0.00    +0.000 A 
ATOM     26  N   UNL     1      -0.262  12.873  19.992  0.00  0.00    +0.000 NA
ATOM     27  C   UNL     1      -1.392  13.360  20.541  0.00  0.00    +0.000 A 
ATOM     28  C   UNL     1      -2.654  12.964  20.163  0.00  0.00    +0.000 A 
ATOM     29  C   UNL     1      -2.703  12.030  19.157  0.00  0.00    +0.000 A 
ATOM     30  N   UNL     1      -1.611  11.512  18.566  0.00  0.00    +0.000 NA
ENDBRANCH  24  25
ENDBRANCH  21  24
ENDBRANCH  17  18
ENDBRANCH   5  17
TORSDOF 7
ENDMDL
MODEL 6
REMARK VINA RESULT:      -7.6      2.042      2.919
REMARK  Name = 
REMARK  8 active torsions:
REMARK  status: ('A' for Active; 'I' for Inactive)
REMARK    1  A    between atoms: C_1  and  O_2
REMARK    2  A    between atoms: O_2  and  C_3
REMARK    3  A    between atoms: C_8  and  C_9
REMARK    4  A    between atoms: C_9  and  C_11
REMARK    5  A    between atoms: N_15  and  C_16
REMARK    6  A    between atoms: C_16  and  C_17
REMARK    7  A    between atoms: C_20  and  O_21
REMARK    8  A    between atoms: O_21  and  C_22
REMARK                            x       y       z     vdW  Elec       q    Type
REMARK                         _______ _______ _______ _____ _____    ______ ____
ROOT
ATOM      1  C   UNL     1       3.595   3.097  19.024  0.00  0.00    +0.000 C 
ATOM      2  C   UNL     1       2.459   2.073  18.958  0.00  0.00    +0.000 C 
ATOM      3  C   UNL     1       1.052   2.639  19.092  0.00  0.00    +0.000 C 
ATOM      4  C   UNL     1       0.891   3.800  20.069  0.00  0.00    +0.000 C 
ATOM      5  N   UNL     1       1.960   4.787  20.035  0.00  0.00    +0.000 NA
ATOM      6  C   UNL     1       3.319   4.253  20.006  0.00  0.00    +0.000 C 
ENDROOT
BRANCH   1   7
ATOM      7  C   UNL     1       4.153   3.573  17.667  0.00  0.00    +0.000 C 
ATOM      8  O   UNL     1       3.505   3.434  16.625  0.00  0.00    +0.000 OA
BRANCH   7  14
ATOM      9  C   UNL     1       5.905   5.012  16.453  0.00  0.00    +0.000 A 
ATOM     10  C   UNL     1       7.012   5.885  16.587  0.00  0.00    +0.000 A 
ATOM     11  C   UNL     1       7.571   6.200  17.813  0.00  0.00    +0.000 A 
ATOM     12  C   UNL     1       7.033   5.644  18.968  0.00  0.00    +0.000 A 
ATOM     13  C   UNL     1       5.936   4.781  18.869  0.00  0.00    +0.000 A 
ATOM     14  C   UNL     1       5.368   4.445  17.619  0.00  0.00    +0.000 A 
BRANCH   9  16
ATOM     15  C   UNL     1       6.360   4.128  14.226  0.00  0.00    +0.000 C 
ATOM     16  O   UNL     1       5.579   4.880  15.134  0.00  0.00    +0.000 OA
ENDBRANCH   9  16
ENDBRANCH   7  14
ENDBRANCH   1   7
BRANCH   5  17
ATOM     17  C   UNL     1       1.798   5.860  21.047  0.00  0.00    +0.000 C 
BRANCH  17  18
ATOM     18  C   UNL     1       1.433   7.262  20.567  0.00  0.00    +0.000 A 
ATOM     19  C   UNL     1       0.664   8.140  21.346  0.00  0.00    +0.000 A 
ATOM     20  C   UNL     1       0.381   9.439  20.901  0.00  0.00    +0.000 A 
ATOM     21  C   UNL     1       0.880   9.895  19.679  0.00  0.00    +0.000 A 
ATOM     22  C   UNL     1       1.624   9.025  18.883  0.00  0.00    +0.000 A 
ATOM     23  C   UNL     1       1.908   7.727  19.329  0.00  0.00    +0.000 A 
BRANCH  21  24
ATOM     24  O   UNL     1       0.513  11.165  19.294  0.00  0.00    +0.000 OA
BRANCH  24  25
ATOM     25  C   UNL     1      -0.836  11.445  19.106  0.00  0.00    +0.000 A 
ATOM     26  N   UNL     1      -1.404  10.841  18.046  0.00  0.00    +0.000 NA
ATOM     27  C   UNL     1      -2.718  11.072  17.866  0.00  0.00    +0.000 A 
ATOM     28  C   UNL     1      -3.473  11.867  18.697  0.00  0.00    +0.000 A 
ATOM     29  C   UNL     1      -2.798  12.416  19.761  0.00  0.00    +0.000 A 
ATOM     30  N   UNL     1      -1.489  12.216  19.997  0.00  0.00    +0.000 NA
ENDBRANCH  24  25
ENDBRANCH  21  24
ENDBRANCH  17  18
ENDBRANCH   5  17
TORSDOF 7
ENDMDL
MODEL 7
REMARK VINA RESULT:      -7.5      2.086      2.523
REMARK  Name = 
REMARK  8 active torsions:
REMARK  status: ('A' for Active; 'I' for Inactive)
REMARK    1  A    between atoms: C_1  and  O_2
REMARK    2  A    between atoms: O_2  and  C_3
REMARK    3  A    between atoms: C_8  and  C_9
REMARK    4  A    between atoms: C_9  and  C_11
REMARK    5  A    between atoms: N_15  and  C_16
REMARK    6  A    between atoms: C_16  and  C_17
REMARK    7  A    between atoms: C_20  and  O_21
REMARK    8  A    between atoms: O_21  and  C_22
REMARK                            x       y       z     vdW  Elec       q    Type
REMARK                         _______ _______ _______ _____ _____    ______ ____
ROOT
ATOM      1  C   UNL     1       3.696   2.980  19.196  0.00  0.00    +0.000 C 
ATOM      2  C   UNL     1       2.493   2.041  19.087  0.00  0.00    +0.000 C 
ATOM      3  C   UNL     1       1.129   2.716  19.054  0.00  0.00    +0.000 C 
ATOM      4  C   UNL     1       0.975   3.950  19.939  0.00  0.00    +0.000 C 
ATOM      5  N   UNL     1       2.118   4.851  19.945  0.00  0.00    +0.000 NA
ATOM      6  C   UNL     1       3.428   4.218  20.075  0.00  0.00    +0.000 C 
ENDROOT
BRANCH   1   7
ATOM      7  C   UNL     1       4.409   3.320  17.870  0.00  0.00    +0.000 C 
ATOM      8  O   UNL     1       4.346   2.560  16.898  0.00  0.00    +0.000 OA
BRANCH   7  14
ATOM      9  C   UNL     1       6.116   5.201  18.265  0.00  0.00    +0.000 A 
ATOM     10  C   UNL     1       6.562   6.489  17.882  0.00  0.00    +0.000 A 
ATOM     11  C   UNL     1       5.913   7.250  16.926  0.00  0.00    +0.000 A 
ATOM     12  C   UNL     1       4.777   6.739  16.307  0.00  0.00    +0.000 A 
ATOM     13  C   UNL     1       4.315   5.467  16.661  0.00  0.00    +0.000 A 
ATOM     14  C   UNL     1       4.966   4.690  17.646  0.00  0.00    +0.000 A 
BRANCH   9  16
ATOM     15  C   UNL     1       8.016   5.435  19.777  0.00  0.00    +0.000 C 
ATOM     16  O   UNL     1       6.941   4.697  19.230  0.00  0.00    +0.000 OA
ENDBRANCH   9  16
ENDBRANCH   7  14
ENDBRANCH   1   7
BRANCH   5  17
ATOM     17  C   UNL     1       1.954   5.999  20.869  0.00  0.00    +0.000 C 
BRANCH  17  18
ATOM     18  C   UNL     1       1.644   7.371  20.276  0.00  0.00    +0.000 A 
ATOM     19  C   UNL     1       0.917   8.342  20.983  0.00  0.00    +0.000 A 
ATOM     20  C   UNL     1       0.685   9.611  20.433  0.00  0.00    +0.000 A 
ATOM     21  C   UNL     1       1.193   9.942  19.175  0.00  0.00    +0.000 A 
ATOM     22  C   UNL     1       1.895   8.979  18.451  0.00  0.00    +0.000 A 
ATOM     23  C   UNL     1       2.129   7.712  19.002  0.00  0.00    +0.000 A 
BRANCH  21  24
ATOM     24  O   UNL     1       0.876  11.191  18.688  0.00  0.00    +0.000 OA
BRANCH  24  25
ATOM     25  C   UNL     1       1.677  12.271  19.041  0.00  0.00    +0.000 A 
ATOM     26  N   UNL     1       2.550  12.670  18.099  0.00  0.00    +0.000 NA
ATOM     27  C   UNL     1       3.311  13.737  18.409  0.00  0.00    +0.000 A 
ATOM     28  C   UNL     1       3.227  14.411  19.605  0.00  0.00    +0.000 A 
ATOM     29  C   UNL     1       2.288  13.933  20.486  0.00  0.00    +0.000 A 
ATOM     30  N   UNL     1       1.494  12.878  20.231  0.00  0.00    +0.000 NA
ENDBRANCH  24  25
ENDBRANCH  21  24
ENDBRANCH  17  18
ENDBRANCH   5  17
TORSDOF 7
ENDMDL
MODEL 8
REMARK VINA RESULT:      -7.5      1.944      2.345
REMARK  Name = 
REMARK  8 active torsions:
REMARK  status: ('A' for Active; 'I' for Inactive)
REMARK    1  A    between atoms: C_1  and  O_2
REMARK    2  A    between atoms: O_2  and  C_3
REMARK    3  A    between atoms: C_8  and  C_9
REMARK    4  A    between atoms: C_9  and  C_11
REMARK    5  A    between atoms: N_15  and  C_16
REMARK    6  A    between atoms: C_16  and  C_17
REMARK    7  A    between atoms: C_20  and  O_21
REMARK    8  A    between atoms: O_21  and  C_22
REMARK                            x       y       z     vdW  Elec       q    Type
REMARK                         _______ _______ _______ _____ _____    ______ ____
ROOT
ATOM      1  C   UNL     1       3.581   3.208  19.603  0.00  0.00    +0.000 C 
ATOM      2  C   UNL     1       2.349   2.301  19.587  0.00  0.00    +0.000 C 
ATOM      3  C   UNL     1       1.007   3.014  19.486  0.00  0.00    +0.000 C 
ATOM      4  C   UNL     1       0.894   4.334  20.244  0.00  0.00    +0.000 C 
ATOM      5  N   UNL     1       2.065   5.194  20.161  0.00  0.00    +0.000 NA
ATOM      6  C   UNL     1       3.355   4.535  20.355  0.00  0.00    +0.000 C 
ENDROOT
BRANCH   1   7
ATOM      7  C   UNL     1       4.301   3.392  18.251  0.00  0.00    +0.000 C 
ATOM      8  O   UNL     1       4.231   2.532  17.367  0.00  0.00    +0.000 OA
BRANCH   7  14
ATOM      9  C   UNL     1       6.136   5.193  18.283  0.00  0.00    +0.000 A 
ATOM     10  C   UNL     1       6.572   6.441  17.777  0.00  0.00    +0.000 A 
ATOM     11  C   UNL     1       5.812   7.202  16.907  0.00  0.00    +0.000 A 
ATOM     12  C   UNL     1       4.567   6.731  16.503  0.00  0.00    +0.000 A 
ATOM     13  C   UNL     1       4.111   5.498  16.982  0.00  0.00    +0.000 A 
ATOM     14  C   UNL     1       4.877   4.722  17.881  0.00  0.00    +0.000 A 
BRANCH   9  16
ATOM     15  C   UNL     1       8.035   5.490  19.785  0.00  0.00    +0.000 C 
ATOM     16  O   UNL     1       7.083   4.680  19.123  0.00  0.00    +0.000 OA
ENDBRANCH   9  16
ENDBRANCH   7  14
ENDBRANCH   1   7
BRANCH   5  17
ATOM     17  C   UNL     1       1.939   6.432  20.967  0.00  0.00    +0.000 C 
BRANCH  17  18
ATOM     18  C   UNL     1       1.636   7.742  20.244  0.00  0.00    +0.000 A 
ATOM     19  C   UNL     1       2.042   7.974  18.921  0.00  0.00    +0.000 A 
ATOM     20  C   UNL     1       1.711   9.168  18.264  0.00  0.00    +0.000 A 
ATOM     21  C   UNL     1       0.950  10.145  18.909  0.00  0.00    +0.000 A 
ATOM     22  C   UNL     1       0.562   9.939  20.232  0.00  0.00    +0.000 A 
ATOM     23  C   UNL     1       0.890   8.744  20.887  0.00  0.00    +0.000 A 
BRANCH  21  24
ATOM     24  O   UNL     1       0.714  11.308  18.211  0.00  0.00    +0.000 OA
BRANCH  24  25
ATOM     25  C   UNL     1       1.176  12.510  18.734  0.00  0.00    +0.000 A 
ATOM     26  N   UNL     1       2.507  12.695  18.655  0.00  0.00    +0.000 NA
ATOM     27  C   UNL     1       2.971  13.868  19.126  0.00  0.00    +0.000 A 
ATOM     28  C   UNL     1       2.166  14.849  19.658  0.00  0.00    +0.000 A 
ATOM     29  C   UNL     1       0.821  14.564  19.670  0.00  0.00    +0.000 A 
ATOM     30  N   UNL     1       0.298  13.415  19.208  0.00  0.00    +0.000 NA
ENDBRANCH  24  25
ENDBRANCH  21  24
ENDBRANCH  17  18
ENDBRANCH   5  17
TORSDOF 7
ENDMDL
MODEL 9
REMARK VINA RESULT:      -7.5      1.643      2.687
REMARK  Name = 
REMARK  8 active torsions:
REMARK  status: ('A' for Active; 'I' for Inactive)
REMARK    1  A    between atoms: C_1  and  O_2
REMARK    2  A    between atoms: O_2  and  C_3
REMARK    3  A    between atoms: C_8  and  C_9
REMARK    4  A    between atoms: C_9  and  C_11
REMARK    5  A    between atoms: N_15  and  C_16
REMARK    6  A    between atoms: C_16  and  C_17
REMARK    7  A    between atoms: C_20  and  O_21
REMARK    8  A    between atoms: O_21  and  C_22
REMARK                            x       y       z     vdW  Elec       q    Type
REMARK                         _______ _______ _______ _____ _____    ______ ____
ROOT
ATOM      1  C   UNL     1       4.155   3.284  18.894  0.00  0.00    +0.000 C 
ATOM      2  C   UNL     1       3.166   2.141  18.653  0.00  0.00    +0.000 C 
ATOM      3  C   UNL     1       1.698   2.540  18.596  0.00  0.00    +0.000 C 
ATOM      4  C   UNL     1       1.269   3.644  19.558  0.00  0.00    +0.000 C 
ATOM      5  N   UNL     1       2.211   4.746  19.691  0.00  0.00    +0.000 NA
ATOM      6  C   UNL     1       3.614   4.370  19.845  0.00  0.00    +0.000 C 
ENDROOT
BRANCH   1   7
ATOM      7  C   UNL     1       4.837   3.862  17.637  0.00  0.00    +0.000 C 
ATOM      8  O   UNL     1       4.351   3.698  16.513  0.00  0.00    +0.000 OA
BRANCH   7  14
ATOM      9  C   UNL     1       6.410   5.693  16.750  0.00  0.00    +0.000 A 
ATOM     10  C   UNL     1       7.418   6.635  17.065  0.00  0.00    +0.000 A 
ATOM     11  C   UNL     1       7.957   6.758  18.333  0.00  0.00    +0.000 A 
ATOM     12  C   UNL     1       7.496   5.929  19.350  0.00  0.00    +0.000 A 
ATOM     13  C   UNL     1       6.496   4.990  19.071  0.00  0.00    +0.000 A 
ATOM     14  C   UNL     1       5.951   4.851  17.774  0.00  0.00    +0.000 A 
BRANCH   9  16
ATOM     15  C   UNL     1       6.705   5.011  14.427  0.00  0.00    +0.000 C 
ATOM     16  O   UNL     1       6.083   5.792  15.428  0.00  0.00    +0.000 OA
ENDBRANCH   9  16
ENDBRANCH   7  14
ENDBRANCH   1   7
BRANCH   5  17
ATOM     17  C   UNL     1       1.787   5.761  20.686  0.00  0.00    +0.000 C 
BRANCH  17  18
ATOM     18  C   UNL     1       1.618   7.205  20.223  0.00  0.00    +0.000 A 
ATOM     19  C   UNL     1       1.998   7.627  18.939  0.00  0.00    +0.000 A 
ATOM     20  C   UNL     1       1.790   8.949  18.523  0.00  0.00    +0.000 A 
ATOM     21  C   UNL     1       1.178   9.873  19.374  0.00  0.00    +0.000 A 
ATOM     22  C   UNL     1       0.819   9.475  20.661  0.00  0.00    +0.000 A 
ATOM     23  C   UNL     1       1.025   8.152  21.076  0.00  0.00    +0.000 A 
BRANCH  21  24
ATOM     24  O   UNL     1       1.058  11.162  18.906  0.00  0.00    +0.000 OA
BRANCH  24  25
ATOM     25  C   UNL     1       0.172  12.025  19.540  0.00  0.00    +0.000 A 
ATOM     26  N   UNL     1      -1.116  11.896  19.173  0.00  0.00    +0.000 NA
ATOM     27  C   UNL     1      -1.995  12.701  19.801  0.00  0.00    +0.000 A 
ATOM     28  C   UNL     1      -1.639  13.609  20.771  0.00  0.00    +0.000 A 
ATOM     29  C   UNL     1      -0.302  13.642  21.084  0.00  0.00    +0.000 A 
ATOM     30  N   UNL     1       0.622  12.860  20.498  0.00  0.00    +0.000 NA
ENDBRANCH  24  25
ENDBRANCH  21  24
ENDBRANCH  17  18
ENDBRANCH   5  17
TORSDOF 7
ENDMDL
