MODEL 1
REMARK VINA RESULT:      -8.7      0.000      0.000
REMARK  Name = 
REMARK  5 active torsions:
REMARK  status: ('A' for Active; 'I' for Inactive)
REMARK    1  A    between atoms: C_1  and  C_2
REMARK    2  A    between atoms: C_2  and  C_3
REMARK    3  A    between atoms: C_8  and  N_9
REMARK    4  A    between atoms: N_9  and  C_10
REMARK    5  A    between atoms: C_15  and  N_16
REMARK                            x       y       z     vdW  Elec       q    Type
REMARK                         _______ _______ _______ _____ _____    ______ ____
ROOT
ATOM      1  C   UNL     1       5.944   3.625  14.763  0.00  0.00    +0.000 C 
ATOM      2  C   UNL     1       6.762   4.907  14.970  0.00  0.00    +0.000 C 
ATOM      3  C   UNL     1       7.357   5.343  13.631  0.00  0.00    +0.000 C 
ATOM      4  O   UNL     1       5.928   5.979  15.409  0.00  0.00    +0.000 OA
ATOM      5  C   UNL     1       5.555   6.002  16.704  0.00  0.00    +0.000 C 
ATOM      6  O   UNL     1       4.676   6.748  17.113  0.00  0.00    +0.000 OA
ATOM      7  C   UNL     1       6.276   5.066  17.565  0.00  0.00    +0.000 C 
ATOM      8  C   UNL     1       5.715   4.574  18.684  0.00  0.00    +0.000 C 
ATOM      9  C   UNL     1       7.590   4.549  17.168  0.00  0.00    +0.000 C 
ATOM     10  O   UNL     1       8.386   4.050  17.950  0.00  0.00    +0.000 OA
ATOM     11  O   UNL     1       7.860   4.662  15.848  0.00  0.00    +0.000 OA
ENDROOT
BRANCH   8  12
ATOM     12  N   UNL     1       4.499   4.870  19.261  0.00  0.00    +0.000 N 
ATOM     13  H   UNL     1       4.513   5.593  20.000  0.00  0.00    +0.000 HD
BRANCH  12  14
ATOM     14  C   UNL     1       3.269   4.207  19.057  0.00  0.00    +0.000 A 
ATOM     15  C   UNL     1       2.368   4.696  18.089  0.00  0.00    +0.000 A 
ATOM     16  C   UNL     1       1.188   4.024  17.762  0.00  0.00    +0.000 A 
ATOM     17  C   UNL     1       0.867   2.831  18.396  0.00  0.00    +0.000 A 
ATOM     18  C   UNL     1       1.715   2.328  19.381  0.00  0.00    +0.000 A 
ATOM     19  C   UNL     1       2.900   3.014  19.723  0.00  0.00    +0.000 A 
BRANCH  19  20
ATOM     20  N   UNL     1       3.719   2.435  20.807  0.00  0.00    +0.000 N 
ATOM     21  O   UNL     1       4.864   2.053  20.530  0.00  0.00    +0.000 OA
ATOM     22  O   UNL     1       3.227   2.391  21.942  0.00  0.00    +0.000 OA
ENDBRANCH  19  20
ENDBRANCH  12  14
ENDBRANCH   8  12
TORSDOF 3
ENDMDL
MODEL 2
REMARK VINA RESULT:      -8.7      1.799      2.272
REMARK  Name = 
REMARK  5 active torsions:
REMARK  status: ('A' for Active; 'I' for Inactive)
REMARK    1  A    between atoms: C_1  and  C_2
REMARK    2  A    between atoms: C_2  and  C_3
REMARK    3  A    between atoms: C_8  and  N_9
REMARK    4  A    between atoms: N_9  and  C_10
REMARK    5  A    between atoms: C_15  and  N_16
REMARK                            x       y       z     vdW  Elec       q    Type
REMARK                         _______ _______ _______ _____ _____    ______ ____
ROOT
ATOM      1  C   UNL     1       5.937   3.583  15.121  0.00  0.00    +0.000 C 
ATOM      2  C   UNL     1       6.683   4.918  15.253  0.00  0.00    +0.000 C 
ATOM      3  C   UNL     1       7.398   5.224  13.938  0.00  0.00    +0.000 C 
ATOM      4  O   UNL     1       5.769   5.992  15.474  0.00  0.00    +0.000 OA
ATOM      5  C   UNL     1       5.262   6.147  16.713  0.00  0.00    +0.000 C 
ATOM      6  O   UNL     1       4.318   6.892  16.939  0.00  0.00    +0.000 OA
ATOM      7  C   UNL     1       5.921   5.354  17.748  0.00  0.00    +0.000 C 
ATOM      8  C   UNL     1       5.264   4.968  18.856  0.00  0.00    +0.000 C 
ATOM      9  C   UNL     1       7.288   4.859  17.549  0.00  0.00    +0.000 C 
ATOM     10  O   UNL     1       8.014   4.493  18.462  0.00  0.00    +0.000 OA
ATOM     11  O   UNL     1       7.690   4.830  16.260  0.00  0.00    +0.000 OA
ENDROOT
BRANCH   8  12
ATOM     12  N   UNL     1       3.985   5.270  19.270  0.00  0.00    +0.000 N 
ATOM     13  H   UNL     1       3.737   6.274  19.281  0.00  0.00    +0.000 HD
BRANCH  12  14
ATOM     14  C   UNL     1       3.025   4.383  19.806  0.00  0.00    +0.000 A 
ATOM     15  C   UNL     1       3.003   4.141  21.195  0.00  0.00    +0.000 A 
ATOM     16  C   UNL     1       2.012   3.363  21.800  0.00  0.00    +0.000 A 
ATOM     17  C   UNL     1       1.003   2.800  21.031  0.00  0.00    +0.000 A 
ATOM     18  C   UNL     1       1.005   2.990  19.651  0.00  0.00    +0.000 A 
ATOM     19  C   UNL     1       2.013   3.762  19.037  0.00  0.00    +0.000 A 
BRANCH  19  20
ATOM     20  N   UNL     1       1.965   3.878  17.565  0.00  0.00    +0.000 N 
ATOM     21  O   UNL     1       2.950   3.497  16.919  0.00  0.00    +0.000 OA
ATOM     22  O   UNL     1       0.928   4.322  17.055  0.00  0.00    +0.000 OA
ENDBRANCH  19  20
ENDBRANCH  12  14
ENDBRANCH   8  12
TORSDOF 3
ENDMDL
MODEL 3
REMARK VINA RESULT:      -8.6      1.993      2.429
REMARK  Name = 
REMARK  5 active torsions:
REMARK  status: ('A' for Active; 'I' for Inactive)
REMARK    1  A    between atoms: C_1  and  C_2
REMARK    2  A    between atoms: C_2  and  C_3
REMARK    3  A    between atoms: C_8  and  N_9
REMARK    4  A    between atoms: N_9  and  C_10
REMARK    5  A    between atoms: C_15  and  N_16
REMARK                            x       y       z     vdW  Elec       q    Type
REMARK                         _______ _______ _______ _____ _____    ______ ____
ROOT
ATOM      1  C   UNL     1       5.838   3.574  15.156  0.00  0.00    +0.000 C 
ATOM      2  C   UNL     1       6.754   4.805  15.184  0.00  0.00    +0.000 C 
ATOM      3  C   UNL     1       7.368   5.004  13.798  0.00  0.00    +0.000 C 
ATOM      4  O   UNL     1       6.008   5.989  15.468  0.00  0.00    +0.000 OA
ATOM      5  C   UNL     1       5.650   6.220  16.746  0.00  0.00    +0.000 C 
ATOM      6  O   UNL     1       4.833   7.081  17.046  0.00  0.00    +0.000 OA
ATOM      7  C   UNL     1       6.305   5.361  17.730  0.00  0.00    +0.000 C 
ATOM      8  C   UNL     1       5.718   5.074  18.906  0.00  0.00    +0.000 C 
ATOM      9  C   UNL     1       7.572   4.695  17.411  0.00  0.00    +0.000 C 
ATOM     10  O   UNL     1       8.335   4.250  18.257  0.00  0.00    +0.000 OA
ATOM     11  O   UNL     1       7.837   4.602  16.089  0.00  0.00    +0.000 OA
ENDROOT
BRANCH   8  12
ATOM     12  N   UNL     1       4.534   5.540  19.435  0.00  0.00    +0.000 N 
ATOM     13  H   UNL     1       4.531   6.528  19.739  0.00  0.00    +0.000 HD
BRANCH  12  14
ATOM     14  C   UNL     1       3.374   4.790  19.732  0.00  0.00    +0.000 A 
ATOM     15  C   UNL     1       3.431   3.381  19.706  0.00  0.00    +0.000 A 
ATOM     16  C   UNL     1       2.353   2.584  20.098  0.00  0.00    +0.000 A 
ATOM     17  C   UNL     1       1.174   3.173  20.533  0.00  0.00    +0.000 A 
ATOM     18  C   UNL     1       1.064   4.562  20.545  0.00  0.00    +0.000 A 
ATOM     19  C   UNL     1       2.148   5.368  20.136  0.00  0.00    +0.000 A 
BRANCH  19  20
ATOM     20  N   UNL     1       1.933   6.830  20.139  0.00  0.00    +0.000 N 
ATOM     21  O   UNL     1       2.363   7.483  19.179  0.00  0.00    +0.000 OA
ATOM     22  O   UNL     1       1.308   7.319  21.089  0.00  0.00    +0.000 OA
ENDBRANCH  19  20
ENDBRANCH  12  14
ENDBRANCH   8  12
TORSDOF 3
ENDMDL
MODEL 4
REMARK VINA RESULT:      -8.0      1.215      1.407
REMARK  Name = 
REMARK  5 active torsions:
REMARK  status: ('A' for Active; 'I' for Inactive)
REMARK    1  A    between atoms: C_1  and  C_2
REMARK    2  A    between atoms: C_2  and  C_3
REMARK    3  A    between atoms: C_8  and  N_9
REMARK    4  A    between atoms: N_9  and  C_10
REMARK    5  A    between atoms: C_15  and  N_16
REMARK                            x       y       z     vdW  Elec       q    Type
REMARK                         _______ _______ _______ _____ _____    ______ ____
ROOT
ATOM      1  C   UNL     1       6.118   3.525  14.849  0.00  0.00    +0.000 C 
ATOM      2  C   UNL     1       6.799   4.884  15.061  0.00  0.00    +0.000 C 
ATOM      3  C   UNL     1       7.449   5.328  13.751  0.00  0.00    +0.000 C 
ATOM      4  O   UNL     1       5.841   5.888  15.397  0.00  0.00    +0.000 OA
ATOM      5  C   UNL     1       5.373   5.919  16.661  0.00  0.00    +0.000 C 
ATOM      6  O   UNL     1       4.402   6.593  16.976  0.00  0.00    +0.000 OA
ATOM      7  C   UNL     1       6.110   5.085  17.607  0.00  0.00    +0.000 C 
ATOM      8  C   UNL     1       5.515   4.581  18.703  0.00  0.00    +0.000 C 
ATOM      9  C   UNL     1       7.492   4.680  17.324  0.00  0.00    +0.000 C 
ATOM     10  O   UNL     1       8.269   4.285  18.181  0.00  0.00    +0.000 OA
ATOM     11  O   UNL     1       7.846   4.773  16.024  0.00  0.00    +0.000 OA
ENDROOT
BRANCH   8  12
ATOM     12  N   UNL     1       4.239   4.781  19.181  0.00  0.00    +0.000 N 
ATOM     13  H   UNL     1       4.120   5.567  19.842  0.00  0.00    +0.000 HD
BRANCH  12  14
ATOM     14  C   UNL     1       3.108   3.957  18.980  0.00  0.00    +0.000 A 
ATOM     15  C   UNL     1       2.966   3.257  17.764  0.00  0.00    +0.000 A 
ATOM     16  C   UNL     1       1.932   2.343  17.547  0.00  0.00    +0.000 A 
ATOM     17  C   UNL     1       1.001   2.096  18.546  0.00  0.00    +0.000 A 
ATOM     18  C   UNL     1       1.086   2.789  19.751  0.00  0.00    +0.000 A 
ATOM     19  C   UNL     1       2.122   3.724  19.966  0.00  0.00    +0.000 A 
BRANCH  19  20
ATOM     20  N   UNL     1       2.115   4.446  21.255  0.00  0.00    +0.000 N 
ATOM     21  O   UNL     1       2.298   3.792  22.289  0.00  0.00    +0.000 OA
ATOM     22  O   UNL     1       1.955   5.674  21.227  0.00  0.00    +0.000 OA
ENDBRANCH  19  20
ENDBRANCH  12  14
ENDBRANCH   8  12
TORSDOF 3
ENDMDL
MODEL 5
REMARK VINA RESULT:      -7.9      1.670      2.451
REMARK  Name = 
REMARK  5 active torsions:
REMARK  status: ('A' for Active; 'I' for Inactive)
REMARK    1  A    between atoms: C_1  and  C_2
REMARK    2  A    between atoms: C_2  and  C_3
REMARK    3  A    between atoms: C_8  and  N_9
REMARK    4  A    between atoms: N_9  and  C_10
REMARK    5  A    between atoms: C_15  and  N_16
REMARK                            x       y       z     vdW  Elec       q    Type
REMARK                         _______ _______ _______ _____ _____    ______ ____
ROOT
ATOM      1  C   UNL     1       5.887   7.947  17.263  0.00  0.00    +0.000 C 
ATOM      2  C   UNL     1       7.317   7.447  17.504  0.00  0.00    +0.000 C 
ATOM      3  C   UNL     1       8.255   8.648  17.616  0.00  0.00    +0.000 C 
ATOM      4  O   UNL     1       7.410   6.746  18.745  0.00  0.00    +0.000 OA
ATOM      5  C   UNL     1       6.953   5.479  18.792  0.00  0.00    +0.000 C 
ATOM      6  O   UNL     1       6.792   4.886  19.850  0.00  0.00    +0.000 OA
ATOM      7  C   UNL     1       6.663   4.884  17.488  0.00  0.00    +0.000 C 
ATOM      8  C   UNL     1       5.746   3.910  17.354  0.00  0.00    +0.000 C 
ATOM      9  C   UNL     1       7.287   5.417  16.271  0.00  0.00    +0.000 C 
ATOM     10  O   UNL     1       7.367   4.792  15.224  0.00  0.00    +0.000 OA
ATOM     11  O   UNL     1       7.769   6.673  16.395  0.00  0.00    +0.000 OA
ENDROOT
BRANCH   8  12
ATOM     12  N   UNL     1       5.008   3.258  18.319  0.00  0.00    +0.000 N 
ATOM     13  H   UNL     1       5.516   2.552  18.877  0.00  0.00    +0.000 HD
BRANCH  12  14
ATOM     14  C   UNL     1       3.615   3.346  18.538  0.00  0.00    +0.000 A 
ATOM     15  C   UNL     1       2.788   3.904  17.541  0.00  0.00    +0.000 A 
ATOM     16  C   UNL     1       1.396   3.918  17.650  0.00  0.00    +0.000 A 
ATOM     17  C   UNL     1       0.779   3.368  18.766  0.00  0.00    +0.000 A 
ATOM     18  C   UNL     1       1.560   2.834  19.788  0.00  0.00    +0.000 A 
ATOM     19  C   UNL     1       2.968   2.833  19.687  0.00  0.00    +0.000 A 
BRANCH  19  20
ATOM     20  N   UNL     1       3.722   2.286  20.833  0.00  0.00    +0.000 N 
ATOM     21  O   UNL     1       4.872   1.876  20.630  0.00  0.00    +0.000 OA
ATOM     22  O   UNL     1       3.171   2.295  21.942  0.00  0.00    +0.000 OA
ENDBRANCH  19  20
ENDBRANCH  12  14
ENDBRANCH   8  12
TORSDOF 3
ENDMDL
MODEL 6
REMARK VINA RESULT:      -7.8      2.006      6.329
REMARK  Name = 
REMARK  5 active torsions:
REMARK  status: ('A' for Active; 'I' for Inactive)
REMARK    1  A    between atoms: C_1  and  C_2
REMARK    2  A    between atoms: C_2  and  C_3
REMARK    3  A    between atoms: C_8  and  N_9
REMARK    4  A    between atoms: N_9  and  C_10
REMARK    5  A    between atoms: C_15  and  N_16
REMARK                            x       y       z     vdW  Elec       q    Type
REMARK                         _______ _______ _______ _____ _____    ______ ____
ROOT
ATOM      1  C   UNL     1       1.911   1.561  19.522  0.00  0.00    +0.000 C 
ATOM      2  C   UNL     1       2.138   2.920  20.197  0.00  0.00    +0.000 C 
ATOM      3  C   UNL     1       1.496   2.904  21.584  0.00  0.00    +0.000 C 
ATOM      4  O   UNL     1       3.530   3.162  20.401  0.00  0.00    +0.000 OA
ATOM      5  C   UNL     1       4.265   3.559  19.342  0.00  0.00    +0.000 C 
ATOM      6  O   UNL     1       5.488   3.576  19.372  0.00  0.00    +0.000 OA
ATOM      7  C   UNL     1       3.486   3.954  18.171  0.00  0.00    +0.000 C 
ATOM      8  C   UNL     1       3.995   3.854  16.929  0.00  0.00    +0.000 C 
ATOM      9  C   UNL     1       2.084   4.363  18.311  0.00  0.00    +0.000 C 
ATOM     10  O   UNL     1       1.481   5.011  17.468  0.00  0.00    +0.000 OA
ATOM     11  O   UNL     1       1.497   3.959  19.458  0.00  0.00    +0.000 OA
ENDROOT
BRANCH   8  12
ATOM     12  N   UNL     1       5.257   3.480  16.524  0.00  0.00    +0.000 N 
ATOM     13  H   UNL     1       5.814   2.943  17.211  0.00  0.00    +0.000 HD
BRANCH  12  14
ATOM     14  C   UNL     1       5.925   3.860  15.338  0.00  0.00    +0.000 A 
ATOM     15  C   UNL     1       5.526   3.300  14.106  0.00  0.00    +0.000 A 
ATOM     16  C   UNL     1       6.070   3.715  12.889  0.00  0.00    +0.000 A 
ATOM     17  C   UNL     1       7.035   4.712  12.861  0.00  0.00    +0.000 A 
ATOM     18  C   UNL     1       7.480   5.270  14.057  0.00  0.00    +0.000 A 
ATOM     19  C   UNL     1       6.943   4.841  15.289  0.00  0.00    +0.000 A 
BRANCH  19  20
ATOM     20  N   UNL     1       7.499   5.454  16.513  0.00  0.00    +0.000 N 
ATOM     21  O   UNL     1       7.885   4.702  17.417  0.00  0.00    +0.000 OA
ATOM     22  O   UNL     1       7.577   6.689  16.554  0.00  0.00    +0.000 OA
ENDBRANCH  19  20
ENDBRANCH  12  14
ENDBRANCH   8  12
TORSDOF 3
ENDMDL
MODEL 7
REMARK VINA RESULT:      -7.7      1.233      1.442
REMARK  Name = 
REMARK  5 active torsions:
REMARK  status: ('A' for Active; 'I' for Inactive)
REMARK    1  A    between atoms: C_1  and  C_2
REMARK    2  A    between atoms: C_2  and  C_3
REMARK    3  A    between atoms: C_8  and  N_9
REMARK    4  A    between atoms: N_9  and  C_10
REMARK    5  A    between atoms: C_15  and  N_16
REMARK                            x       y       z     vdW  Elec       q    Type
REMARK                         _______ _______ _______ _____ _____    ______ ____
ROOT
ATOM      1  C   UNL     1       5.912   3.619  14.961  0.00  0.00    +0.000 C 
ATOM      2  C   UNL     1       6.791   4.872  15.067  0.00  0.00    +0.000 C 
ATOM      3  C   UNL     1       7.526   5.082  13.744  0.00  0.00    +0.000 C 
ATOM      4  O   UNL     1       5.994   6.038  15.275  0.00  0.00    +0.000 OA
ATOM      5  C   UNL     1       5.513   6.264  16.514  0.00  0.00    +0.000 C 
ATOM      6  O   UNL     1       4.652   7.105  16.733  0.00  0.00    +0.000 OA
ATOM      7  C   UNL     1       6.094   5.423  17.558  0.00  0.00    +0.000 C 
ATOM      8  C   UNL     1       5.408   5.125  18.676  0.00  0.00    +0.000 C 
ATOM      9  C   UNL     1       7.402   4.787  17.361  0.00  0.00    +0.000 C 
ATOM     10  O   UNL     1       8.093   4.363  18.276  0.00  0.00    +0.000 OA
ATOM     11  O   UNL     1       7.790   4.697  16.070  0.00  0.00    +0.000 OA
ENDROOT
BRANCH   8  12
ATOM     12  N   UNL     1       4.170   5.563  19.091  0.00  0.00    +0.000 N 
ATOM     13  H   UNL     1       4.032   6.587  19.105  0.00  0.00    +0.000 HD
BRANCH  12  14
ATOM     14  C   UNL     1       3.119   4.784  19.625  0.00  0.00    +0.000 A 
ATOM     15  C   UNL     1       2.028   5.423  20.250  0.00  0.00    +0.000 A 
ATOM     16  C   UNL     1       0.909   4.718  20.698  0.00  0.00    +0.000 A 
ATOM     17  C   UNL     1       0.840   3.342  20.532  0.00  0.00    +0.000 A 
ATOM     18  C   UNL     1       1.909   2.667  19.947  0.00  0.00    +0.000 A 
ATOM     19  C   UNL     1       3.048   3.376  19.508  0.00  0.00    +0.000 A 
BRANCH  19  20
ATOM     20  N   UNL     1       4.153   2.579  18.937  0.00  0.00    +0.000 N 
ATOM     21  O   UNL     1       4.083   2.258  17.744  0.00  0.00    +0.000 OA
ATOM     22  O   UNL     1       5.106   2.302  19.678  0.00  0.00    +0.000 OA
ENDBRANCH  19  20
ENDBRANCH  12  14
ENDBRANCH   8  12
TORSDOF 3
ENDMDL
MODEL 8
REMARK VINA RESULT:      -7.6      4.085      5.982
REMARK  Name = 
REMARK  5 active torsions:
REMARK  status: ('A' for Active; 'I' for Inactive)
REMARK    1  A    between atoms: C_1  and  C_2
REMARK    2  A    between atoms: C_2  and  C_3
REMARK    3  A    between atoms: C_8  and  N_9
REMARK    4  A    between atoms: N_9  and  C_10
REMARK    5  A    between atoms: C_15  and  N_16
REMARK                            x       y       z     vdW  Elec       q    Type
REMARK                         _______ _______ _______ _____ _____    ______ ____
ROOT
ATOM      1  C   UNL     1       1.980   3.457  17.396  0.00  0.00    +0.000 C 
ATOM      2  C   UNL     1       2.941   2.821  18.409  0.00  0.00    +0.000 C 
ATOM      3  C   UNL     1       3.556   1.564  17.794  0.00  0.00    +0.000 C 
ATOM      4  O   UNL     1       4.027   3.700  18.702  0.00  0.00    +0.000 OA
ATOM      5  C   UNL     1       3.803   4.723  19.550  0.00  0.00    +0.000 C 
ATOM      6  O   UNL     1       4.601   5.641  19.686  0.00  0.00    +0.000 OA
ATOM      7  C   UNL     1       2.538   4.648  20.278  0.00  0.00    +0.000 C 
ATOM      8  C   UNL     1       1.918   5.759  20.716  0.00  0.00    +0.000 C 
ATOM      9  C   UNL     1       1.851   3.363  20.449  0.00  0.00    +0.000 C 
ATOM     10  O   UNL     1       1.000   3.159  21.302  0.00  0.00    +0.000 OA
ATOM     11  O   UNL     1       2.233   2.405  19.576  0.00  0.00    +0.000 OA
ENDROOT
BRANCH   8  12
ATOM     12  N   UNL     1       2.328   7.073  20.663  0.00  0.00    +0.000 N 
ATOM     13  H   UNL     1       3.092   7.336  21.308  0.00  0.00    +0.000 HD
BRANCH  12  14
ATOM     14  C   UNL     1       1.737   8.127  19.931  0.00  0.00    +0.000 A 
ATOM     15  C   UNL     1       1.983   8.236  18.547  0.00  0.00    +0.000 A 
ATOM     16  C   UNL     1       1.342   9.186  17.748  0.00  0.00    +0.000 A 
ATOM     17  C   UNL     1       0.426  10.064  18.310  0.00  0.00    +0.000 A 
ATOM     18  C   UNL     1       0.176  10.011  19.680  0.00  0.00    +0.000 A 
ATOM     19  C   UNL     1       0.834   9.062  20.490  0.00  0.00    +0.000 A 
BRANCH  19  20
ATOM     20  N   UNL     1       0.544   9.102  21.938  0.00  0.00    +0.000 N 
ATOM     21  O   UNL     1       1.454   9.445  22.705  0.00  0.00    +0.000 OA
ATOM     22  O   UNL     1      -0.604   8.818  22.304  0.00  0.00    +0.000 OA
ENDBRANCH  19  20
ENDBRANCH  12  14
ENDBRANCH   8  12
TORSDOF 3
ENDMDL
MODEL 9
REMARK VINA RESULT:      -7.6      2.109      2.631
REMARK  Name = 
REMARK  5 active torsions:
REMARK  status: ('A' for Active; 'I' for Inactive)
REMARK    1  A    between atoms: C_1  and  C_2
REMARK    2  A    between atoms: C_2  and  C_3
REMARK    3  A    between atoms: C_8  and  N_9
REMARK    4  A    between atoms: N_9  and  C_10
REMARK    5  A    between atoms: C_15  and  N_16
REMARK                            x       y       z     vdW  Elec       q    Type
REMARK                         _______ _______ _______ _____ _____    ______ ____
ROOT
ATOM      1  C   UNL     1       6.203   3.670  14.022  0.00  0.00    +0.000 C 
ATOM      2  C   UNL     1       6.975   4.954  14.353  0.00  0.00    +0.000 C 
ATOM      3  C   UNL     1       7.782   5.384  13.128  0.00  0.00    +0.000 C 
ATOM      4  O   UNL     1       6.079   6.027  14.643  0.00  0.00    +0.000 OA
ATOM      5  C   UNL     1       5.499   6.057  15.860  0.00  0.00    +0.000 C 
ATOM      6  O   UNL     1       4.564   6.803  16.114  0.00  0.00    +0.000 OA
ATOM      7  C   UNL     1       6.069   5.126  16.832  0.00  0.00    +0.000 C 
ATOM      8  C   UNL     1       5.331   4.639  17.846  0.00  0.00    +0.000 C 
ATOM      9  C   UNL     1       7.431   4.610  16.659  0.00  0.00    +0.000 C 
ATOM     10  O   UNL     1       8.087   4.116  17.565  0.00  0.00    +0.000 OA
ATOM     11  O   UNL     1       7.913   4.716  15.402  0.00  0.00    +0.000 OA
ENDROOT
BRANCH   8  12
ATOM     12  N   UNL     1       4.038   4.937  18.214  0.00  0.00    +0.000 N 
ATOM     13  H   UNL     1       3.579   5.698  17.686  0.00  0.00    +0.000 HD
BRANCH  12  14
ATOM     14  C   UNL     1       3.318   4.418  19.314  0.00  0.00    +0.000 A 
ATOM     15  C   UNL     1       3.446   3.053  19.647  0.00  0.00    +0.000 A 
ATOM     16  C   UNL     1       2.850   2.505  20.785  0.00  0.00    +0.000 A 
ATOM     17  C   UNL     1       2.103   3.308  21.635  0.00  0.00    +0.000 A 
ATOM     18  C   UNL     1       1.926   4.655  21.327  0.00  0.00    +0.000 A 
ATOM     19  C   UNL     1       2.515   5.207  20.170  0.00  0.00    +0.000 A 
BRANCH  19  20
ATOM     20  N   UNL     1       2.242   6.633  19.895  0.00  0.00    +0.000 N 
ATOM     21  O   UNL     1       1.560   7.263  20.714  0.00  0.00    +0.000 OA
ATOM     22  O   UNL     1       2.737   7.128  18.874  0.00  0.00    +0.000 OA
ENDBRANCH  19  20
ENDBRANCH  12  14
ENDBRANCH   8  12
TORSDOF 3
ENDMDL
