MODEL 1
REMARK VINA RESULT:      -7.4      0.000      0.000
REMARK  Name = 
REMARK  5 active torsions:
REMARK  status: ('A' for Active; 'I' for Inactive)
REMARK    1  A    between atoms: C_1  and  N_2
REMARK    2  A    between atoms: C_6  and  S_7
REMARK    3  A    between atoms: S_7  and  C_10
REMARK    4  A    between atoms: N_13  and  S_14
REMARK    5  A    between atoms: S_14  and  C_17
REMARK                            x       y       z     vdW  Elec       q    Type
REMARK                         _______ _______ _______ _____ _____    ______ ____
ROOT
ATOM      1  C   UNL     1       6.893   6.191  17.171  0.00  0.00    +0.000 C 
ATOM      2  C   UNL     1       6.807   5.901  18.680  0.00  0.00    +0.000 C 
ATOM      3  C   UNL     1       5.414   5.489  19.161  0.00  0.00    +0.000 C 
ATOM      4  N   UNL     1       4.356   6.444  18.731  0.00  0.00    +0.000 NA
ATOM      5  C   UNL     1       4.413   6.840  17.292  0.00  0.00    +0.000 C 
ATOM      6  C   UNL     1       5.814   7.202  16.817  0.00  0.00    +0.000 C 
ENDROOT
BRANCH   1   7
ATOM      7  S   UNL     1       6.927   4.667  16.244  0.00  0.00    +0.000 S 
ATOM      8  O   UNL     1       5.598   4.086  16.200  0.00  0.00    +0.000 OA
ATOM      9  O   UNL     1       8.051   3.887  16.738  0.00  0.00    +0.000 OA
BRANCH   7  15
ATOM     10  C   UNL     1       5.608   3.428  13.455  0.00  0.00    +0.000 C 
ATOM     11  N   UNL     1       6.680   4.394  13.483  0.00  0.00    +0.000 N 
ATOM     12  C   UNL     1       7.253   4.925  12.363  0.00  0.00    +0.000 A 
ATOM     13  N   UNL     1       8.221   5.738  12.723  0.00  0.00    +0.000 NA
ATOM     14  N   UNL     1       8.274   5.750  14.101  0.00  0.00    +0.000 NA
ATOM     15  C   UNL     1       7.332   4.944  14.555  0.00  0.00    +0.000 A 
ENDBRANCH   7  15
ENDBRANCH   1   7
BRANCH   4  16
ATOM     16  S   UNL     1       2.742   5.930  19.165  0.00  0.00    +0.000 S 
ATOM     17  O   UNL     1       2.102   5.390  17.985  0.00  0.00    +0.000 OA
ATOM     18  O   UNL     1       2.827   5.167  20.392  0.00  0.00    +0.000 OA
BRANCH  16  19
ATOM     19  C   UNL     1       1.889   7.453  19.524  0.00  0.00    +0.000 A 
ATOM     20  C   UNL     1       1.726   8.432  18.535  0.00  0.00    +0.000 A 
ATOM     21  C   UNL     1       1.164   9.666  18.874  0.00  0.00    +0.000 A 
ATOM     22  C   UNL     1       0.771   9.911  20.190  0.00  0.00    +0.000 A 
ATOM     23  F   UNL     1       0.245  11.106  20.493  0.00  0.00    +0.000 F 
ATOM     24  C   UNL     1       0.933   8.933  21.171  0.00  0.00    +0.000 A 
ATOM     25 CL   UNL     1       0.458   9.239  22.798  0.00  0.00    +0.000 Cl
ATOM     26  C   UNL     1       1.498   7.700  20.845  0.00  0.00    +0.000 A 
ENDBRANCH  16  19
ENDBRANCH   4  16
TORSDOF 4
ENDMDL
MODEL 2
REMARK VINA RESULT:      -7.4      3.154      3.613
REMARK  Name = 
REMARK  5 active torsions:
REMARK  status: ('A' for Active; 'I' for Inactive)
REMARK    1  A    between atoms: C_1  and  N_2
REMARK    2  A    between atoms: C_6  and  S_7
REMARK    3  A    between atoms: S_7  and  C_10
REMARK    4  A    between atoms: N_13  and  S_14
REMARK    5  A    between atoms: S_14  and  C_17
REMARK                            x       y       z     vdW  Elec       q    Type
REMARK                         _______ _______ _______ _____ _____    ______ ____
ROOT
ATOM      1  C   UNL     1       6.699   5.637  16.955  0.00  0.00    +0.000 C 
ATOM      2  C   UNL     1       6.350   5.046  18.331  0.00  0.00    +0.000 C 
ATOM      3  C   UNL     1       4.879   5.201  18.725  0.00  0.00    +0.000 C 
ATOM      4  N   UNL     1       4.399   6.606  18.600  0.00  0.00    +0.000 NA
ATOM      5  C   UNL     1       4.765   7.284  17.321  0.00  0.00    +0.000 C 
ATOM      6  C   UNL     1       6.220   7.080  16.919  0.00  0.00    +0.000 C 
ENDROOT
BRANCH   1   7
ATOM      7  S   UNL     1       6.145   4.554  15.651  0.00  0.00    +0.000 S 
ATOM      8  O   UNL     1       4.757   4.834  15.333  0.00  0.00    +0.000 OA
ATOM      9  O   UNL     1       6.557   3.205  16.007  0.00  0.00    +0.000 OA
BRANCH   7  15
ATOM     10  C   UNL     1       5.712   3.296  12.603  0.00  0.00    +0.000 C 
ATOM     11  N   UNL     1       6.699   4.297  12.933  0.00  0.00    +0.000 N 
ATOM     12  C   UNL     1       7.547   4.857  12.021  0.00  0.00    +0.000 A 
ATOM     13  N   UNL     1       8.345   5.698  12.639  0.00  0.00    +0.000 NA
ATOM     14  N   UNL     1       8.005   5.700  13.976  0.00  0.00    +0.000 NA
ATOM     15  C   UNL     1       7.002   4.859  14.146  0.00  0.00    +0.000 A 
ENDBRANCH   7  15
ENDBRANCH   1   7
BRANCH   4  16
ATOM     16  S   UNL     1       2.692   6.786  18.927  0.00  0.00    +0.000 S 
ATOM     17  O   UNL     1       2.537   7.308  20.268  0.00  0.00    +0.000 OA
ATOM     18  O   UNL     1       2.081   7.441  17.790  0.00  0.00    +0.000 OA
BRANCH  16  19
ATOM     19  C   UNL     1       2.086   5.112  18.987  0.00  0.00    +0.000 A 
ATOM     20  C   UNL     1       1.653   4.466  17.821  0.00  0.00    +0.000 A 
ATOM     21  C   UNL     1       1.068   3.200  17.912  0.00  0.00    +0.000 A 
ATOM     22  C   UNL     1       0.920   2.593  19.159  0.00  0.00    +0.000 A 
ATOM     23  F   UNL     1       0.345   1.383  19.223  0.00  0.00    +0.000 F 
ATOM     24  C   UNL     1       1.353   3.239  20.318  0.00  0.00    +0.000 A 
ATOM     25 CL   UNL     1       1.160   2.494  21.858  0.00  0.00    +0.000 Cl
ATOM     26  C   UNL     1       1.933   4.504  20.239  0.00  0.00    +0.000 A 
ENDBRANCH  16  19
ENDBRANCH   4  16
TORSDOF 4
ENDMDL
MODEL 3
REMARK VINA RESULT:      -7.3      4.688      8.202
REMARK  Name = 
REMARK  5 active torsions:
REMARK  status: ('A' for Active; 'I' for Inactive)
REMARK    1  A    between atoms: C_1  and  N_2
REMARK    2  A    between atoms: C_6  and  S_7
REMARK    3  A    between atoms: S_7  and  C_10
REMARK    4  A    between atoms: N_13  and  S_14
REMARK    5  A    between atoms: S_14  and  C_17
REMARK                            x       y       z     vdW  Elec       q    Type
REMARK                         _______ _______ _______ _____ _____    ______ ____
ROOT
ATOM      1  C   UNL     1       2.646   5.661  18.055  0.00  0.00    +0.000 C 
ATOM      2  C   UNL     1       3.051   4.354  17.351  0.00  0.00    +0.000 C 
ATOM      3  C   UNL     1       4.556   4.210  17.113  0.00  0.00    +0.000 C 
ATOM      4  N   UNL     1       5.142   5.398  16.432  0.00  0.00    +0.000 NA
ATOM      5  C   UNL     1       4.737   6.715  17.006  0.00  0.00    +0.000 C 
ATOM      6  C   UNL     1       3.243   6.825  17.281  0.00  0.00    +0.000 C 
ENDROOT
BRANCH   1   7
ATOM      7  S   UNL     1       3.002   5.565  19.800  0.00  0.00    +0.000 S 
ATOM      8  O   UNL     1       2.299   6.620  20.507  0.00  0.00    +0.000 OA
ATOM      9  O   UNL     1       4.444   5.425  19.940  0.00  0.00    +0.000 OA
BRANCH   7  15
ATOM     10  C   UNL     1       4.402   2.573  20.183  0.00  0.00    +0.000 C 
ATOM     11  N   UNL     1       3.076   2.911  20.642  0.00  0.00    +0.000 N 
ATOM     12  C   UNL     1       2.259   2.042  21.308  0.00  0.00    +0.000 A 
ATOM     13  N   UNL     1       1.112   2.635  21.551  0.00  0.00    +0.000 NA
ATOM     14  N   UNL     1       1.183   3.917  21.047  0.00  0.00    +0.000 NA
ATOM     15  C   UNL     1       2.377   4.082  20.509  0.00  0.00    +0.000 A 
ENDBRANCH   7  15
ENDBRANCH   1   7
BRANCH   4  16
ATOM     16  S   UNL     1       6.880   5.308  16.259  0.00  0.00    +0.000 S 
ATOM     17  O   UNL     1       7.426   6.635  16.448  0.00  0.00    +0.000 OA
ATOM     18  O   UNL     1       7.353   4.182  17.034  0.00  0.00    +0.000 OA
BRANCH  16  19
ATOM     19  C   UNL     1       7.121   4.928  14.535  0.00  0.00    +0.000 A 
ATOM     20  C   UNL     1       8.009   5.680  13.754  0.00  0.00    +0.000 A 
ATOM     21  C   UNL     1       8.088   5.443  12.378  0.00  0.00    +0.000 A 
ATOM     22  C   UNL     1       7.283   4.462  11.798  0.00  0.00    +0.000 A 
ATOM     23  F   UNL     1       7.368   4.260  10.475  0.00  0.00    +0.000 F 
ATOM     24  C   UNL     1       6.401   3.715  12.579  0.00  0.00    +0.000 A 
ATOM     25 CL   UNL     1       5.400   2.512  11.860  0.00  0.00    +0.000 Cl
ATOM     26  C   UNL     1       6.311   3.948  13.951  0.00  0.00    +0.000 A 
ENDBRANCH  16  19
ENDBRANCH   4  16
TORSDOF 4
ENDMDL
MODEL 4
REMARK VINA RESULT:      -7.3      4.619      7.387
REMARK  Name = 
REMARK  5 active torsions:
REMARK  status: ('A' for Active; 'I' for Inactive)
REMARK    1  A    between atoms: C_1  and  N_2
REMARK    2  A    between atoms: C_6  and  S_7
REMARK    3  A    between atoms: S_7  and  C_10
REMARK    4  A    between atoms: N_13  and  S_14
REMARK    5  A    between atoms: S_14  and  C_17
REMARK                            x       y       z     vdW  Elec       q    Type
REMARK                         _______ _______ _______ _____ _____    ______ ____
ROOT
ATOM      1  C   UNL     1       2.210   5.693  18.935  0.00  0.00    +0.000 C 
ATOM      2  C   UNL     1       2.715   6.418  17.674  0.00  0.00    +0.000 C 
ATOM      3  C   UNL     1       4.100   5.968  17.205  0.00  0.00    +0.000 C 
ATOM      4  N   UNL     1       5.113   6.008  18.296  0.00  0.00    +0.000 NA
ATOM      5  C   UNL     1       4.675   5.394  19.584  0.00  0.00    +0.000 C 
ATOM      6  C   UNL     1       3.275   5.815  20.013  0.00  0.00    +0.000 C 
ENDROOT
BRANCH   1   7
ATOM      7  S   UNL     1       1.637   4.055  18.525  0.00  0.00    +0.000 S 
ATOM      8  O   UNL     1       1.399   3.957  17.097  0.00  0.00    +0.000 OA
ATOM      9  O   UNL     1       0.581   3.719  19.468  0.00  0.00    +0.000 OA
BRANCH   7  15
ATOM     10  C   UNL     1       2.748   2.767  21.383  0.00  0.00    +0.000 C 
ATOM     11  N   UNL     1       3.213   2.362  20.078  0.00  0.00    +0.000 N 
ATOM     12  C   UNL     1       4.144   1.383  19.873  0.00  0.00    +0.000 A 
ATOM     13  N   UNL     1       4.379   1.281  18.584  0.00  0.00    +0.000 NA
ATOM     14  N   UNL     1       3.580   2.197  17.933  0.00  0.00    +0.000 NA
ATOM     15  C   UNL     1       2.869   2.840  18.840  0.00  0.00    +0.000 A 
ENDBRANCH   7  15
ENDBRANCH   1   7
BRANCH   4  16
ATOM     16  S   UNL     1       6.674   5.385  17.815  0.00  0.00    +0.000 S 
ATOM     17  O   UNL     1       7.606   6.489  17.751  0.00  0.00    +0.000 OA
ATOM     18  O   UNL     1       6.954   4.208  18.610  0.00  0.00    +0.000 OA
BRANCH  16  19
ATOM     19  C   UNL     1       6.427   4.862  16.130  0.00  0.00    +0.000 A 
ATOM     20  C   UNL     1       5.531   3.829  15.826  0.00  0.00    +0.000 A 
ATOM     21  C   UNL     1       5.448   3.354  14.513  0.00  0.00    +0.000 A 
ATOM     22  C   UNL     1       6.255   3.912  13.521  0.00  0.00    +0.000 A 
ATOM     23  F   UNL     1       6.165   3.432  12.272  0.00  0.00    +0.000 F 
ATOM     24  C   UNL     1       7.145   4.942  13.829  0.00  0.00    +0.000 A 
ATOM     25 CL   UNL     1       8.149   5.622  12.606  0.00  0.00    +0.000 Cl
ATOM     26  C   UNL     1       7.240   5.419  15.135  0.00  0.00    +0.000 A 
ENDBRANCH  16  19
ENDBRANCH   4  16
TORSDOF 4
ENDMDL
MODEL 5
REMARK VINA RESULT:      -7.2      1.239      1.560
REMARK  Name = 
REMARK  5 active torsions:
REMARK  status: ('A' for Active; 'I' for Inactive)
REMARK    1  A    between atoms: C_1  and  N_2
REMARK    2  A    between atoms: C_6  and  S_7
REMARK    3  A    between atoms: S_7  and  C_10
REMARK    4  A    between atoms: N_13  and  S_14
REMARK    5  A    between atoms: S_14  and  C_17
REMARK                            x       y       z     vdW  Elec       q    Type
REMARK                         _______ _______ _______ _____ _____    ______ ____
ROOT
ATOM      1  C   UNL     1       6.498   5.593  16.904  0.00  0.00    +0.000 C 
ATOM      2  C   UNL     1       6.505   4.877  18.266  0.00  0.00    +0.000 C 
ATOM      3  C   UNL     1       5.112   4.600  18.836  0.00  0.00    +0.000 C 
ATOM      4  N   UNL     1       4.257   5.819  18.868  0.00  0.00    +0.000 NA
ATOM      5  C   UNL     1       4.254   6.620  17.607  0.00  0.00    +0.000 C 
ATOM      6  C   UNL     1       5.644   6.845  17.028  0.00  0.00    +0.000 C 
ENDROOT
BRANCH   1   7
ATOM      7  S   UNL     1       6.095   4.448  15.598  0.00  0.00    +0.000 S 
ATOM      8  O   UNL     1       4.699   4.594  15.226  0.00  0.00    +0.000 OA
ATOM      9  O   UNL     1       6.616   3.147  15.989  0.00  0.00    +0.000 OA
BRANCH   7  15
ATOM     10  C   UNL     1       5.752   3.266  12.509  0.00  0.00    +0.000 C 
ATOM     11  N   UNL     1       6.708   4.278  12.886  0.00  0.00    +0.000 N 
ATOM     12  C   UNL     1       7.562   4.882  12.007  0.00  0.00    +0.000 A 
ATOM     13  N   UNL     1       8.328   5.723  12.665  0.00  0.00    +0.000 NA
ATOM     14  N   UNL     1       7.962   5.680  13.994  0.00  0.00    +0.000 NA
ATOM     15  C   UNL     1       6.974   4.814  14.120  0.00  0.00    +0.000 A 
ENDBRANCH   7  15
ENDBRANCH   1   7
BRANCH   4  16
ATOM     16  S   UNL     1       2.622   5.504  19.402  0.00  0.00    +0.000 S 
ATOM     17  O   UNL     1       1.837   5.103  18.255  0.00  0.00    +0.000 OA
ATOM     18  O   UNL     1       2.687   4.684  20.593  0.00  0.00    +0.000 OA
BRANCH  16  19
ATOM     19  C   UNL     1       2.006   7.108  19.872  0.00  0.00    +0.000 A 
ATOM     20  C   UNL     1       1.405   7.305  21.123  0.00  0.00    +0.000 A 
ATOM     21  C   UNL     1       0.820   8.540  21.419  0.00  0.00    +0.000 A 
ATOM     22  C   UNL     1       0.839   9.561  20.470  0.00  0.00    +0.000 A 
ATOM     23  F   UNL     1       0.262  10.733  20.772  0.00  0.00    +0.000 F 
ATOM     24  C   UNL     1       1.440   9.361  19.226  0.00  0.00    +0.000 A 
ATOM     25 CL   UNL     1       1.454  10.619  18.050  0.00  0.00    +0.000 Cl
ATOM     26  C   UNL     1       2.022   8.132  18.919  0.00  0.00    +0.000 A 
ENDBRANCH  16  19
ENDBRANCH   4  16
TORSDOF 4
ENDMDL
MODEL 6
REMARK VINA RESULT:      -7.0      3.227      3.763
REMARK  Name = 
REMARK  5 active torsions:
REMARK  status: ('A' for Active; 'I' for Inactive)
REMARK    1  A    between atoms: C_1  and  N_2
REMARK    2  A    between atoms: C_6  and  S_7
REMARK    3  A    between atoms: S_7  and  C_10
REMARK    4  A    between atoms: N_13  and  S_14
REMARK    5  A    between atoms: S_14  and  C_17
REMARK                            x       y       z     vdW  Elec       q    Type
REMARK                         _______ _______ _______ _____ _____    ______ ____
ROOT
ATOM      1  C   UNL     1       6.614   5.549  17.043  0.00  0.00    +0.000 C 
ATOM      2  C   UNL     1       6.203   4.917  18.385  0.00  0.00    +0.000 C 
ATOM      3  C   UNL     1       4.724   5.097  18.735  0.00  0.00    +0.000 C 
ATOM      4  N   UNL     1       4.286   6.518  18.647  0.00  0.00    +0.000 NA
ATOM      5  C   UNL     1       4.712   7.232  17.407  0.00  0.00    +0.000 C 
ATOM      6  C   UNL     1       6.174   7.004  17.046  0.00  0.00    +0.000 C 
ENDROOT
BRANCH   1   7
ATOM      7  S   UNL     1       6.077   4.530  15.683  0.00  0.00    +0.000 S 
ATOM      8  O   UNL     1       4.708   4.859  15.329  0.00  0.00    +0.000 OA
ATOM      9  O   UNL     1       6.440   3.157  16.001  0.00  0.00    +0.000 OA
BRANCH   7  15
ATOM     10  C   UNL     1       5.746   3.358  12.587  0.00  0.00    +0.000 C 
ATOM     11  N   UNL     1       6.729   4.340  12.981  0.00  0.00    +0.000 N 
ATOM     12  C   UNL     1       7.616   4.915  12.116  0.00  0.00    +0.000 A 
ATOM     13  N   UNL     1       8.398   5.731  12.786  0.00  0.00    +0.000 NA
ATOM     14  N   UNL     1       8.009   5.700  14.109  0.00  0.00    +0.000 NA
ATOM     15  C   UNL     1       6.992   4.866  14.219  0.00  0.00    +0.000 A 
ENDBRANCH   7  15
ENDBRANCH   1   7
BRANCH   4  16
ATOM     16  S   UNL     1       2.573   6.732  18.925  0.00  0.00    +0.000 S 
ATOM     17  O   UNL     1       2.397   7.809  19.876  0.00  0.00    +0.000 OA
ATOM     18  O   UNL     1       1.906   6.745  17.641  0.00  0.00    +0.000 OA
BRANCH  16  19
ATOM     19  C   UNL     1       2.087   5.247  19.781  0.00  0.00    +0.000 A 
ATOM     20  C   UNL     1       2.423   5.056  21.128  0.00  0.00    +0.000 A 
ATOM     21  C   UNL     1       2.139   3.832  21.741  0.00  0.00    +0.000 A 
ATOM     22  C   UNL     1       1.526   2.815  21.008  0.00  0.00    +0.000 A 
ATOM     23  F   UNL     1       1.274   1.646  21.615  0.00  0.00    +0.000 F 
ATOM     24  C   UNL     1       1.192   3.011  19.668  0.00  0.00    +0.000 A 
ATOM     25 CL   UNL     1       0.446   1.751  18.761  0.00  0.00    +0.000 Cl
ATOM     26  C   UNL     1       1.476   4.226  19.045  0.00  0.00    +0.000 A 
ENDBRANCH  16  19
ENDBRANCH   4  16
TORSDOF 4
ENDMDL
MODEL 7
REMARK VINA RESULT:      -6.8      6.251     10.585
REMARK  Name = 
REMARK  5 active torsions:
REMARK  status: ('A' for Active; 'I' for Inactive)
REMARK    1  A    between atoms: C_1  and  N_2
REMARK    2  A    between atoms: C_6  and  S_7
REMARK    3  A    between atoms: S_7  and  C_10
REMARK    4  A    between atoms: N_13  and  S_14
REMARK    5  A    between atoms: S_14  and  C_17
REMARK                            x       y       z     vdW  Elec       q    Type
REMARK                         _______ _______ _______ _____ _____    ______ ____
ROOT
ATOM      1  C   UNL     1      -0.559  11.922  21.827  0.00  0.00    +0.000 C 
ATOM      2  C   UNL     1       0.761  12.462  21.250  0.00  0.00    +0.000 C 
ATOM      3  C   UNL     1       1.118  11.902  19.871  0.00  0.00    +0.000 C 
ATOM      4  N   UNL     1       1.076  10.414  19.831  0.00  0.00    +0.000 NA
ATOM      5  C   UNL     1      -0.140   9.802  20.443  0.00  0.00    +0.000 C 
ATOM      6  C   UNL     1      -0.508  10.402  21.794  0.00  0.00    +0.000 C 
ENDROOT
BRANCH   1   7
ATOM      7  S   UNL     1      -1.952  12.716  21.047  0.00  0.00    +0.000 S 
ATOM      8  O   UNL     1      -2.370  11.952  19.886  0.00  0.00    +0.000 OA
ATOM      9  O   UNL     1      -1.626  14.128  20.915  0.00  0.00    +0.000 OA
BRANCH   7  15
ATOM     10  C   UNL     1      -4.998  13.969  20.590  0.00  0.00    +0.000 C 
ATOM     11  N   UNL     1      -4.590  13.243  21.769  0.00  0.00    +0.000 N 
ATOM     12  C   UNL     1      -5.421  12.969  22.817  0.00  0.00    +0.000 A 
ATOM     13  N   UNL     1      -4.742  12.334  23.747  0.00  0.00    +0.000 NA
ATOM     14  N   UNL     1      -3.449  12.178  23.294  0.00  0.00    +0.000 NA
ATOM     15  C   UNL     1      -3.366  12.719  22.093  0.00  0.00    +0.000 A 
ENDBRANCH   7  15
ENDBRANCH   1   7
BRANCH   4  16
ATOM     16  S   UNL     1       1.362   9.756  18.236  0.00  0.00    +0.000 S 
ATOM     17  O   UNL     1       0.083   9.447  17.635  0.00  0.00    +0.000 OA
ATOM     18  O   UNL     1       2.325  10.603  17.565  0.00  0.00    +0.000 OA
BRANCH  16  19
ATOM     19  C   UNL     1       2.139   8.184  18.553  0.00  0.00    +0.000 A 
ATOM     20  C   UNL     1       1.901   7.497  19.751  0.00  0.00    +0.000 A 
ATOM     21  C   UNL     1       2.618   6.329  20.028  0.00  0.00    +0.000 A 
ATOM     22  C   UNL     1       3.560   5.860  19.113  0.00  0.00    +0.000 A 
ATOM     23  F   UNL     1       4.243   4.744  19.406  0.00  0.00    +0.000 F 
ATOM     24  C   UNL     1       3.793   6.547  17.921  0.00  0.00    +0.000 A 
ATOM     25 CL   UNL     1       4.964   5.973  16.796  0.00  0.00    +0.000 Cl
ATOM     26  C   UNL     1       3.088   7.716  17.636  0.00  0.00    +0.000 A 
ENDBRANCH  16  19
ENDBRANCH   4  16
TORSDOF 4
ENDMDL
MODEL 8
REMARK VINA RESULT:      -6.8      6.482     10.769
REMARK  Name = 
REMARK  5 active torsions:
REMARK  status: ('A' for Active; 'I' for Inactive)
REMARK    1  A    between atoms: C_1  and  N_2
REMARK    2  A    between atoms: C_6  and  S_7
REMARK    3  A    between atoms: S_7  and  C_10
REMARK    4  A    between atoms: N_13  and  S_14
REMARK    5  A    between atoms: S_14  and  C_17
REMARK                            x       y       z     vdW  Elec       q    Type
REMARK                         _______ _______ _______ _____ _____    ______ ____
ROOT
ATOM      1  C   UNL     1      -0.737  13.505  20.689  0.00  0.00    +0.000 C 
ATOM      2  C   UNL     1      -1.600  12.339  20.176  0.00  0.00    +0.000 C 
ATOM      3  C   UNL     1      -1.239  10.979  20.778  0.00  0.00    +0.000 C 
ATOM      4  N   UNL     1       0.213  10.671  20.663  0.00  0.00    +0.000 NA
ATOM      5  C   UNL     1       1.126  11.781  21.068  0.00  0.00    +0.000 C 
ATOM      6  C   UNL     1       0.726  13.136  20.498  0.00  0.00    +0.000 C 
ENDROOT
BRANCH   1   7
ATOM      7  S   UNL     1      -1.256  13.992  22.324  0.00  0.00    +0.000 S 
ATOM      8  O   UNL     1      -1.313  15.440  22.413  0.00  0.00    +0.000 OA
ATOM      9  O   UNL     1      -0.460  13.232  23.275  0.00  0.00    +0.000 OA
BRANCH   7  15
ATOM     10  C   UNL     1      -4.161  14.989  21.048  0.00  0.00    +0.000 C 
ATOM     11  N   UNL     1      -4.026  13.944  22.035  0.00  0.00    +0.000 N 
ATOM     12  C   UNL     1      -5.078  13.231  22.534  0.00  0.00    +0.000 A 
ATOM     13  N   UNL     1      -4.633  12.387  23.438  0.00  0.00    +0.000 NA
ATOM     14  N   UNL     1      -3.264  12.541  23.523  0.00  0.00    +0.000 NA
ATOM     15  C   UNL     1      -2.902  13.475  22.663  0.00  0.00    +0.000 A 
ENDBRANCH   7  15
ENDBRANCH   1   7
BRANCH   4  16
ATOM     16  S   UNL     1       0.669   9.178  21.451  0.00  0.00    +0.000 S 
ATOM     17  O   UNL     1       1.625   9.487  22.492  0.00  0.00    +0.000 OA
ATOM     18  O   UNL     1      -0.537   8.431  21.734  0.00  0.00    +0.000 OA
BRANCH  16  19
ATOM     19  C   UNL     1       1.583   8.295  20.202  0.00  0.00    +0.000 A 
ATOM     20  C   UNL     1       1.754   8.839  18.922  0.00  0.00    +0.000 A 
ATOM     21  C   UNL     1       2.366   8.073  17.925  0.00  0.00    +0.000 A 
ATOM     22  C   UNL     1       2.800   6.779  18.213  0.00  0.00    +0.000 A 
ATOM     23  F   UNL     1       3.374   6.061  17.237  0.00  0.00    +0.000 F 
ATOM     24  C   UNL     1       2.629   6.242  19.489  0.00  0.00    +0.000 A 
ATOM     25 CL   UNL     1       3.155   4.641  19.841  0.00  0.00    +0.000 Cl
ATOM     26  C   UNL     1       2.015   6.995  20.490  0.00  0.00    +0.000 A 
ENDBRANCH  16  19
ENDBRANCH   4  16
TORSDOF 4
ENDMDL
MODEL 9
REMARK VINA RESULT:      -6.8      4.369      5.704
REMARK  Name = 
REMARK  5 active torsions:
REMARK  status: ('A' for Active; 'I' for Inactive)
REMARK    1  A    between atoms: C_1  and  N_2
REMARK    2  A    between atoms: C_6  and  S_7
REMARK    3  A    between atoms: S_7  and  C_10
REMARK    4  A    between atoms: N_13  and  S_14
REMARK    5  A    between atoms: S_14  and  C_17
REMARK                            x       y       z     vdW  Elec       q    Type
REMARK                         _______ _______ _______ _____ _____    ______ ____
ROOT
ATOM      1  C   UNL     1       3.578   6.047  18.392  0.00  0.00    +0.000 C 
ATOM      2  C   UNL     1       3.328   6.566  19.818  0.00  0.00    +0.000 C 
ATOM      3  C   UNL     1       2.107   7.480  19.948  0.00  0.00    +0.000 C 
ATOM      4  N   UNL     1       2.120   8.594  18.960  0.00  0.00    +0.000 NA
ATOM      5  C   UNL     1       2.434   8.187  17.558  0.00  0.00    +0.000 C 
ATOM      6  C   UNL     1       3.622   7.240  17.450  0.00  0.00    +0.000 C 
ENDROOT
BRANCH   1   7
ATOM      7  S   UNL     1       2.441   4.731  17.998  0.00  0.00    +0.000 S 
ATOM      8  O   UNL     1       3.075   3.781  17.102  0.00  0.00    +0.000 OA
ATOM      9  O   UNL     1       1.175   5.348  17.633  0.00  0.00    +0.000 OA
BRANCH   7  15
ATOM     10  C   UNL     1       4.297   2.690  19.856  0.00  0.00    +0.000 C 
ATOM     11  N   UNL     1       2.912   2.994  20.125  0.00  0.00    +0.000 N 
ATOM     12  C   UNL     1       2.219   2.495  21.190  0.00  0.00    +0.000 A 
ATOM     13  N   UNL     1       0.978   2.925  21.133  0.00  0.00    +0.000 NA
ATOM     14  N   UNL     1       0.861   3.730  20.018  0.00  0.00    +0.000 NA
ATOM     15  C   UNL     1       2.036   3.777  19.420  0.00  0.00    +0.000 A 
ENDBRANCH   7  15
ENDBRANCH   1   7
BRANCH   4  16
ATOM     16  S   UNL     1       0.677   9.579  19.009  0.00  0.00    +0.000 S 
ATOM     17  O   UNL     1       0.008   9.472  17.730  0.00  0.00    +0.000 OA
ATOM     18  O   UNL     1      -0.017   9.301  20.248  0.00  0.00    +0.000 OA
BRANCH  16  19
ATOM     19  C   UNL     1       1.299  11.247  19.090  0.00  0.00    +0.000 A 
ATOM     20  C   UNL     1       2.191  11.726  18.120  0.00  0.00    +0.000 A 
ATOM     21  C   UNL     1       2.760  12.994  18.275  0.00  0.00    +0.000 A 
ATOM     22  C   UNL     1       2.435  13.768  19.389  0.00  0.00    +0.000 A 
ATOM     23  F   UNL     1       3.001  14.976  19.521  0.00  0.00    +0.000 F 
ATOM     24  C   UNL     1       1.545  13.288  20.350  0.00  0.00    +0.000 A 
ATOM     25 CL   UNL     1       1.153  14.240  21.731  0.00  0.00    +0.000 Cl
ATOM     26  C   UNL     1       0.976  12.023  20.209  0.00  0.00    +0.000 A 
ENDBRANCH  16  19
ENDBRANCH   4  16
TORSDOF 4
ENDMDL
