MODEL 1
REMARK VINA RESULT:      -7.2      0.000      0.000
REMARK  Name = 
REMARK  7 active torsions:
REMARK  status: ('A' for Active; 'I' for Inactive)
REMARK    1  A    between atoms: C_1  and  O_2
REMARK    2  A    between atoms: O_2  and  C_3
REMARK    3  A    between atoms: C_6  and  C_7
REMARK    4  A    between atoms: C_8  and  C_9
REMARK    5  A    between atoms: C_9  and  C_11
REMARK    6  A    between atoms: C_18  and  O_19
REMARK    7  A    between atoms: O_19  and  C_20
REMARK                            x       y       z     vdW  Elec       q    Type
REMARK                         _______ _______ _______ _____ _____    ______ ____
ROOT
ATOM      1  C   UNL     1       5.349   3.793  16.187  0.00  0.00    +0.000 C 
ATOM      2  C   UNL     1       5.587   4.870  15.418  0.00  0.00    +0.000 C 
ENDROOT
BRANCH   1   6
ATOM      3  C   UNL     1       2.352   3.894  19.249  0.00  0.00    +0.000 A 
ATOM      4  C   UNL     1       2.013   3.703  17.911  0.00  0.00    +0.000 A 
ATOM      5  C   UNL     1       3.007   3.660  16.931  0.00  0.00    +0.000 A 
ATOM      6  C   UNL     1       4.358   3.821  17.275  0.00  0.00    +0.000 A 
ATOM      7  C   UNL     1       4.704   4.018  18.628  0.00  0.00    +0.000 A 
ATOM      8  C   UNL     1       3.692   4.062  19.601  0.00  0.00    +0.000 A 
BRANCH   3  10
ATOM      9  C   UNL     1       1.327   2.972  21.176  0.00  0.00    +0.000 C 
ATOM     10  O   UNL     1       1.298   3.929  20.122  0.00  0.00    +0.000 OA
ENDBRANCH   3  10
BRANCH   7  11
ATOM     11  O   UNL     1       6.042   4.154  18.910  0.00  0.00    +0.000 OA
ATOM     12  C   UNL     1       6.491   5.447  19.305  0.00  0.00    +0.000 C 
ENDBRANCH   7  11
ENDBRANCH   1   6
BRANCH   2  13
ATOM     13  C   UNL     1       6.544   4.791  14.276  0.00  0.00    +0.000 C 
ATOM     14  O   UNL     1       7.599   5.409  14.267  0.00  0.00    +0.000 OA
BRANCH  13  15
ATOM     15  C   UNL     1       6.194   3.882  13.144  0.00  0.00    +0.000 A 
ATOM     16  C   UNL     1       7.206   3.093  12.571  0.00  0.00    +0.000 A 
ATOM     17  C   UNL     1       6.929   2.267  11.477  0.00  0.00    +0.000 A 
ATOM     18  C   UNL     1       5.640   2.230  10.944  0.00  0.00    +0.000 A 
ATOM     19  C   UNL     1       4.636   3.017  11.511  0.00  0.00    +0.000 A 
ATOM     20 CL   UNL     1       3.051   2.980  10.841  0.00  0.00    +0.000 Cl
ATOM     21  C   UNL     1       4.903   3.841  12.605  0.00  0.00    +0.000 A 
ENDBRANCH  13  15
ENDBRANCH   2  13
TORSDOF 5
ENDMDL
MODEL 2
REMARK VINA RESULT:      -7.1      1.768      2.293
REMARK  Name = 
REMARK  7 active torsions:
REMARK  status: ('A' for Active; 'I' for Inactive)
REMARK    1  A    between atoms: C_1  and  O_2
REMARK    2  A    between atoms: O_2  and  C_3
REMARK    3  A    between atoms: C_6  and  C_7
REMARK    4  A    between atoms: C_8  and  C_9
REMARK    5  A    between atoms: C_9  and  C_11
REMARK    6  A    between atoms: C_18  and  O_19
REMARK    7  A    between atoms: O_19  and  C_20
REMARK                            x       y       z     vdW  Elec       q    Type
REMARK                         _______ _______ _______ _____ _____    ______ ____
ROOT
ATOM      1  C   UNL     1       4.852   5.290  17.146  0.00  0.00    +0.000 C 
ATOM      2  C   UNL     1       5.745   4.550  16.464  0.00  0.00    +0.000 C 
ENDROOT
BRANCH   1   6
ATOM      3  C   UNL     1       1.939   3.354  19.624  0.00  0.00    +0.000 A 
ATOM      4  C   UNL     1       2.992   2.643  19.054  0.00  0.00    +0.000 A 
ATOM      5  C   UNL     1       3.938   3.296  18.260  0.00  0.00    +0.000 A 
ATOM      6  C   UNL     1       3.836   4.673  18.014  0.00  0.00    +0.000 A 
ATOM      7  C   UNL     1       2.770   5.397  18.587  0.00  0.00    +0.000 A 
ATOM      8  C   UNL     1       1.825   4.724  19.379  0.00  0.00    +0.000 A 
BRANCH   3  10
ATOM      9  C   UNL     1       1.349   2.536  21.767  0.00  0.00    +0.000 C 
ATOM     10  O   UNL     1       1.067   2.612  20.373  0.00  0.00    +0.000 OA
ENDBRANCH   3  10
BRANCH   7  11
ATOM     11  O   UNL     1       2.727   6.745  18.326  0.00  0.00    +0.000 OA
ATOM     12  C   UNL     1       2.211   7.586  19.355  0.00  0.00    +0.000 C 
ENDBRANCH   7  11
ENDBRANCH   1   6
BRANCH   2  13
ATOM     13  C   UNL     1       6.809   5.204  15.650  0.00  0.00    +0.000 C 
ATOM     14  O   UNL     1       7.589   6.016  16.127  0.00  0.00    +0.000 OA
BRANCH  13  15
ATOM     15  C   UNL     1       6.930   4.798  14.217  0.00  0.00    +0.000 A 
ATOM     16  C   UNL     1       7.777   5.535  13.373  0.00  0.00    +0.000 A 
ATOM     17  C   UNL     1       7.878   5.216  12.015  0.00  0.00    +0.000 A 
ATOM     18  C   UNL     1       7.126   4.165  11.490  0.00  0.00    +0.000 A 
ATOM     19  C   UNL     1       6.280   3.437  12.328  0.00  0.00    +0.000 A 
ATOM     20 CL   UNL     1       5.343   2.150  11.674  0.00  0.00    +0.000 Cl
ATOM     21  C   UNL     1       6.177   3.744  13.685  0.00  0.00    +0.000 A 
ENDBRANCH  13  15
ENDBRANCH   2  13
TORSDOF 5
ENDMDL
MODEL 3
REMARK VINA RESULT:      -6.9      5.655      7.326
REMARK  Name = 
REMARK  7 active torsions:
REMARK  status: ('A' for Active; 'I' for Inactive)
REMARK    1  A    between atoms: C_1  and  O_2
REMARK    2  A    between atoms: O_2  and  C_3
REMARK    3  A    between atoms: C_6  and  C_7
REMARK    4  A    between atoms: C_8  and  C_9
REMARK    5  A    between atoms: C_9  and  C_11
REMARK    6  A    between atoms: C_18  and  O_19
REMARK    7  A    between atoms: O_19  and  C_20
REMARK                            x       y       z     vdW  Elec       q    Type
REMARK                         _______ _______ _______ _____ _____    ______ ____
ROOT
ATOM      1  C   UNL     1       1.673   8.466  19.014  0.00  0.00    +0.000 C 
ATOM      2  C   UNL     1       2.430   7.378  19.246  0.00  0.00    +0.000 C 
ENDROOT
BRANCH   1   6
ATOM      3  C   UNL     1      -0.362  10.372  22.269  0.00  0.00    +0.000 A 
ATOM      4  C   UNL     1       0.542   9.334  22.488  0.00  0.00    +0.000 A 
ATOM      5  C   UNL     1       1.204   8.736  21.414  0.00  0.00    +0.000 A 
ATOM      6  C   UNL     1       0.961   9.159  20.098  0.00  0.00    +0.000 A 
ATOM      7  C   UNL     1       0.044  10.207  19.872  0.00  0.00    +0.000 A 
ATOM      8  C   UNL     1      -0.616  10.796  20.964  0.00  0.00    +0.000 A 
BRANCH   3  10
ATOM      9  C   UNL     1      -2.023  11.798  23.172  0.00  0.00    +0.000 C 
ATOM     10  O   UNL     1      -0.960  10.876  23.392  0.00  0.00    +0.000 OA
ENDBRANCH   3  10
BRANCH   7  11
ATOM     11  O   UNL     1      -0.144  10.593  18.567  0.00  0.00    +0.000 OA
ATOM     12  C   UNL     1      -1.490  10.682  18.107  0.00  0.00    +0.000 C 
ENDBRANCH   7  11
ENDBRANCH   1   6
BRANCH   2  13
ATOM     13  C   UNL     1       3.199   6.738  18.139  0.00  0.00    +0.000 C 
ATOM     14  O   UNL     1       3.917   7.381  17.388  0.00  0.00    +0.000 OA
BRANCH  13  15
ATOM     15  C   UNL     1       3.103   5.254  18.001  0.00  0.00    +0.000 A 
ATOM     16  C   UNL     1       4.139   4.566  17.347  0.00  0.00    +0.000 A 
ATOM     17  C   UNL     1       4.062   3.183  17.153  0.00  0.00    +0.000 A 
ATOM     18  C   UNL     1       2.945   2.480  17.605  0.00  0.00    +0.000 A 
ATOM     19  C   UNL     1       1.914   3.164  18.251  0.00  0.00    +0.000 A 
ATOM     20 CL   UNL     1       0.531   2.295  18.794  0.00  0.00    +0.000 Cl
ATOM     21  C   UNL     1       1.985   4.543  18.452  0.00  0.00    +0.000 A 
ENDBRANCH  13  15
ENDBRANCH   2  13
TORSDOF 5
ENDMDL
MODEL 4
REMARK VINA RESULT:      -6.9      2.864      3.401
REMARK  Name = 
REMARK  7 active torsions:
REMARK  status: ('A' for Active; 'I' for Inactive)
REMARK    1  A    between atoms: C_1  and  O_2
REMARK    2  A    between atoms: O_2  and  C_3
REMARK    3  A    between atoms: C_6  and  C_7
REMARK    4  A    between atoms: C_8  and  C_9
REMARK    5  A    between atoms: C_9  and  C_11
REMARK    6  A    between atoms: C_18  and  O_19
REMARK    7  A    between atoms: O_19  and  C_20
REMARK                            x       y       z     vdW  Elec       q    Type
REMARK                         _______ _______ _______ _____ _____    ______ ____
ROOT
ATOM      1  C   UNL     1       5.095   5.290  17.537  0.00  0.00    +0.000 C 
ATOM      2  C   UNL     1       6.069   5.756  16.734  0.00  0.00    +0.000 C 
ENDROOT
BRANCH   1   6
ATOM      3  C   UNL     1       2.088   7.967  19.006  0.00  0.00    +0.000 A 
ATOM      4  C   UNL     1       2.795   8.244  17.838  0.00  0.00    +0.000 A 
ATOM      5  C   UNL     1       3.762   7.351  17.370  0.00  0.00    +0.000 A 
ATOM      6  C   UNL     1       4.046   6.171  18.073  0.00  0.00    +0.000 A 
ATOM      7  C   UNL     1       3.335   5.889  19.258  0.00  0.00    +0.000 A 
ATOM      8  C   UNL     1       2.368   6.800  19.717  0.00  0.00    +0.000 A 
BRANCH   3  10
ATOM      9  C   UNL     1       0.780   9.834  18.362  0.00  0.00    +0.000 C 
ATOM     10  O   UNL     1       1.173   8.916  19.377  0.00  0.00    +0.000 OA
ENDBRANCH   3  10
BRANCH   7  11
ATOM     11  O   UNL     1       3.641   4.712  19.899  0.00  0.00    +0.000 OA
ATOM     12  C   UNL     1       2.625   3.714  19.937  0.00  0.00    +0.000 C 
ENDBRANCH   7  11
ENDBRANCH   1   6
BRANCH   2  13
ATOM     13  C   UNL     1       7.078   4.828  16.146  0.00  0.00    +0.000 C 
ATOM     14  O   UNL     1       7.860   4.192  16.838  0.00  0.00    +0.000 OA
BRANCH  13  15
ATOM     15  C   UNL     1       7.075   4.657  14.662  0.00  0.00    +0.000 A 
ATOM     16  C   UNL     1       7.927   5.461  13.886  0.00  0.00    +0.000 A 
ATOM     17  C   UNL     1       7.917   5.366  12.491  0.00  0.00    +0.000 A 
ATOM     18  C   UNL     1       7.049   4.472  11.862  0.00  0.00    +0.000 A 
ATOM     19  C   UNL     1       6.200   3.677  12.633  0.00  0.00    +0.000 A 
ATOM     20 CL   UNL     1       5.121   2.586  11.853  0.00  0.00    +0.000 Cl
ATOM     21  C   UNL     1       6.207   3.762  14.026  0.00  0.00    +0.000 A 
ENDBRANCH  13  15
ENDBRANCH   2  13
TORSDOF 5
ENDMDL
MODEL 5
REMARK VINA RESULT:      -6.8      4.182      7.844
REMARK  Name = 
REMARK  7 active torsions:
REMARK  status: ('A' for Active; 'I' for Inactive)
REMARK    1  A    between atoms: C_1  and  O_2
REMARK    2  A    between atoms: O_2  and  C_3
REMARK    3  A    between atoms: C_6  and  C_7
REMARK    4  A    between atoms: C_8  and  C_9
REMARK    5  A    between atoms: C_9  and  C_11
REMARK    6  A    between atoms: C_18  and  O_19
REMARK    7  A    between atoms: O_19  and  C_20
REMARK                            x       y       z     vdW  Elec       q    Type
REMARK                         _______ _______ _______ _____ _____    ______ ____
ROOT
ATOM      1  C   UNL     1       4.878   5.240  17.929  0.00  0.00    +0.000 C 
ATOM      2  C   UNL     1       3.623   5.718  18.014  0.00  0.00    +0.000 C 
ENDROOT
BRANCH   1   6
ATOM      3  C   UNL     1       6.699   4.542  14.114  0.00  0.00    +0.000 A 
ATOM      4  C   UNL     1       5.374   4.189  14.359  0.00  0.00    +0.000 A 
ATOM      5  C   UNL     1       4.796   4.438  15.606  0.00  0.00    +0.000 A 
ATOM      6  C   UNL     1       5.542   5.033  16.634  0.00  0.00    +0.000 A 
ATOM      7  C   UNL     1       6.885   5.389  16.390  0.00  0.00    +0.000 A 
ATOM      8  C   UNL     1       7.452   5.128  15.132  0.00  0.00    +0.000 A 
BRANCH   3  10
ATOM      9  C   UNL     1       6.366   3.345  12.096  0.00  0.00    +0.000 C 
ATOM     10  O   UNL     1       7.165   4.242  12.862  0.00  0.00    +0.000 OA
ENDBRANCH   3  10
BRANCH   7  11
ATOM     11  O   UNL     1       7.564   5.984  17.426  0.00  0.00    +0.000 OA
ATOM     12  C   UNL     1       7.554   7.408  17.473  0.00  0.00    +0.000 C 
ENDBRANCH   7  11
ENDBRANCH   1   6
BRANCH   2  13
ATOM     13  C   UNL     1       3.000   5.987  19.342  0.00  0.00    +0.000 C 
ATOM     14  O   UNL     1       3.137   5.229  20.292  0.00  0.00    +0.000 OA
BRANCH  13  15
ATOM     15  C   UNL     1       2.228   7.256  19.498  0.00  0.00    +0.000 A 
ATOM     16  C   UNL     1       2.161   8.146  18.412  0.00  0.00    +0.000 A 
ATOM     17  C   UNL     1       1.491   9.367  18.536  0.00  0.00    +0.000 A 
ATOM     18  C   UNL     1       0.890   9.711  19.747  0.00  0.00    +0.000 A 
ATOM     19  C   UNL     1       0.961   8.829  20.827  0.00  0.00    +0.000 A 
ATOM     20 CL   UNL     1       0.232   9.262  22.324  0.00  0.00    +0.000 Cl
ATOM     21  C   UNL     1       1.624   7.606  20.711  0.00  0.00    +0.000 A 
ENDBRANCH  13  15
ENDBRANCH   2  13
TORSDOF 5
ENDMDL
MODEL 6
REMARK VINA RESULT:      -6.7      2.548      7.126
REMARK  Name = 
REMARK  7 active torsions:
REMARK  status: ('A' for Active; 'I' for Inactive)
REMARK    1  A    between atoms: C_1  and  O_2
REMARK    2  A    between atoms: O_2  and  C_3
REMARK    3  A    between atoms: C_6  and  C_7
REMARK    4  A    between atoms: C_8  and  C_9
REMARK    5  A    between atoms: C_9  and  C_11
REMARK    6  A    between atoms: C_18  and  O_19
REMARK    7  A    between atoms: O_19  and  C_20
REMARK                            x       y       z     vdW  Elec       q    Type
REMARK                         _______ _______ _______ _____ _____    ______ ____
ROOT
ATOM      1  C   UNL     1       4.514   5.239  17.703  0.00  0.00    +0.000 C 
ATOM      2  C   UNL     1       3.588   6.209  17.810  0.00  0.00    +0.000 C 
ENDROOT
BRANCH   1   6
ATOM      3  C   UNL     1       6.894   4.765  14.170  0.00  0.00    +0.000 A 
ATOM      4  C   UNL     1       5.568   4.340  14.212  0.00  0.00    +0.000 A 
ATOM      5  C   UNL     1       4.807   4.516  15.370  0.00  0.00    +0.000 A 
ATOM      6  C   UNL     1       5.367   5.111  16.510  0.00  0.00    +0.000 A 
ATOM      7  C   UNL     1       6.710   5.539  16.473  0.00  0.00    +0.000 A 
ATOM      8  C   UNL     1       7.463   5.351  15.302  0.00  0.00    +0.000 A 
BRANCH   3  10
ATOM      9  C   UNL     1       6.853   3.734  12.037  0.00  0.00    +0.000 C 
ATOM     10  O   UNL     1       7.548   4.533  12.990  0.00  0.00    +0.000 OA
ENDBRANCH   3  10
BRANCH   7  11
ATOM     11  O   UNL     1       7.202   6.129  17.612  0.00  0.00    +0.000 OA
ATOM     12  C   UNL     1       7.498   7.522  17.543  0.00  0.00    +0.000 C 
ENDBRANCH   7  11
ENDBRANCH   1   6
BRANCH   2  13
ATOM     13  C   UNL     1       2.789   6.361  19.060  0.00  0.00    +0.000 C 
ATOM     14  O   UNL     1       2.540   7.455  19.546  0.00  0.00    +0.000 OA
BRANCH  13  15
ATOM     15  C   UNL     1       2.249   5.118  19.688  0.00  0.00    +0.000 A 
ATOM     16  C   UNL     1       2.471   4.901  21.059  0.00  0.00    +0.000 A 
ATOM     17  C   UNL     1       2.025   3.726  21.673  0.00  0.00    +0.000 A 
ATOM     18  C   UNL     1       1.362   2.757  20.919  0.00  0.00    +0.000 A 
ATOM     19  C   UNL     1       1.146   2.971  19.557  0.00  0.00    +0.000 A 
ATOM     20 CL   UNL     1       0.339   1.768  18.627  0.00  0.00    +0.000 Cl
ATOM     21  C   UNL     1       1.583   4.143  18.938  0.00  0.00    +0.000 A 
ENDBRANCH  13  15
ENDBRANCH   2  13
TORSDOF 5
ENDMDL
MODEL 7
REMARK VINA RESULT:      -6.6      5.870      8.429
REMARK  Name = 
REMARK  7 active torsions:
REMARK  status: ('A' for Active; 'I' for Inactive)
REMARK    1  A    between atoms: C_1  and  O_2
REMARK    2  A    between atoms: O_2  and  C_3
REMARK    3  A    between atoms: C_6  and  C_7
REMARK    4  A    between atoms: C_8  and  C_9
REMARK    5  A    between atoms: C_9  and  C_11
REMARK    6  A    between atoms: C_18  and  O_19
REMARK    7  A    between atoms: O_19  and  C_20
REMARK                            x       y       z     vdW  Elec       q    Type
REMARK                         _______ _______ _______ _____ _____    ______ ____
ROOT
ATOM      1  C   UNL     1       2.816   7.595  18.278  0.00  0.00    +0.000 C 
ATOM      2  C   UNL     1       1.704   8.294  17.989  0.00  0.00    +0.000 C 
ENDROOT
BRANCH   1   6
ATOM      3  C   UNL     1       2.959   3.355  17.666  0.00  0.00    +0.000 A 
ATOM      4  C   UNL     1       1.858   3.963  18.264  0.00  0.00    +0.000 A 
ATOM      5  C   UNL     1       1.826   5.348  18.442  0.00  0.00    +0.000 A 
ATOM      6  C   UNL     1       2.906   6.146  18.035  0.00  0.00    +0.000 A 
ATOM      7  C   UNL     1       4.024   5.534  17.432  0.00  0.00    +0.000 A 
ATOM      8  C   UNL     1       4.042   4.139  17.264  0.00  0.00    +0.000 A 
BRANCH   3  10
ATOM      9  C   UNL     1       3.662   1.246  18.486  0.00  0.00    +0.000 C 
ATOM     10  O   UNL     1       2.888   1.993  17.552  0.00  0.00    +0.000 OA
ENDBRANCH   3  10
BRANCH   7  11
ATOM     11  O   UNL     1       5.046   6.364  17.039  0.00  0.00    +0.000 OA
ATOM     12  C   UNL     1       5.247   6.522  15.637  0.00  0.00    +0.000 C 
ENDBRANCH   7  11
ENDBRANCH   1   6
BRANCH   2  13
ATOM     13  C   UNL     1       1.666   9.773  18.178  0.00  0.00    +0.000 C 
ATOM     14  O   UNL     1       2.357  10.533  17.515  0.00  0.00    +0.000 OA
BRANCH  13  15
ATOM     15  C   UNL     1       0.707  10.315  19.187  0.00  0.00    +0.000 A 
ATOM     16  C   UNL     1      -0.068  11.437  18.850  0.00  0.00    +0.000 A 
ATOM     17  C   UNL     1      -0.940  12.005  19.785  0.00  0.00    +0.000 A 
ATOM     18  C   UNL     1      -1.037  11.458  21.065  0.00  0.00    +0.000 A 
ATOM     19  C   UNL     1      -0.263  10.346  21.401  0.00  0.00    +0.000 A 
ATOM     20 CL   UNL     1      -0.375   9.684  22.986  0.00  0.00    +0.000 Cl
ATOM     21  C   UNL     1       0.606   9.771  20.473  0.00  0.00    +0.000 A 
ENDBRANCH  13  15
ENDBRANCH   2  13
TORSDOF 5
ENDMDL
MODEL 8
REMARK VINA RESULT:      -6.6      5.666      8.561
REMARK  Name = 
REMARK  7 active torsions:
REMARK  status: ('A' for Active; 'I' for Inactive)
REMARK    1  A    between atoms: C_1  and  O_2
REMARK    2  A    between atoms: O_2  and  C_3
REMARK    3  A    between atoms: C_6  and  C_7
REMARK    4  A    between atoms: C_8  and  C_9
REMARK    5  A    between atoms: C_9  and  C_11
REMARK    6  A    between atoms: C_18  and  O_19
REMARK    7  A    between atoms: O_19  and  C_20
REMARK                            x       y       z     vdW  Elec       q    Type
REMARK                         _______ _______ _______ _____ _____    ______ ____
ROOT
ATOM      1  C   UNL     1       2.048   7.532  20.251  0.00  0.00    +0.000 C 
ATOM      2  C   UNL     1       1.100   7.959  21.105  0.00  0.00    +0.000 C 
ENDROOT
BRANCH   1   6
ATOM      3  C   UNL     1       2.225   3.402  19.120  0.00  0.00    +0.000 A 
ATOM      4  C   UNL     1       1.630   3.800  20.315  0.00  0.00    +0.000 A 
ATOM      5  C   UNL     1       1.571   5.153  20.658  0.00  0.00    +0.000 A 
ATOM      6  C   UNL     1       2.121   6.129  19.814  0.00  0.00    +0.000 A 
ATOM      7  C   UNL     1       2.727   5.730  18.605  0.00  0.00    +0.000 A 
ATOM      8  C   UNL     1       2.781   4.365  18.277  0.00  0.00    +0.000 A 
BRANCH   3  10
ATOM      9  C   UNL     1       3.452   1.516  18.379  0.00  0.00    +0.000 C 
ATOM     10  O   UNL     1       2.236   2.052  18.891  0.00  0.00    +0.000 OA
ENDBRANCH   3  10
BRANCH   7  11
ATOM     11  O   UNL     1       3.235   6.728  17.808  0.00  0.00    +0.000 OA
ATOM     12  C   UNL     1       4.541   6.527  17.273  0.00  0.00    +0.000 C 
ENDBRANCH   7  11
ENDBRANCH   1   6
BRANCH   2  13
ATOM     13  C   UNL     1       1.004   9.401  21.475  0.00  0.00    +0.000 C 
ATOM     14  O   UNL     1       1.399   9.825  22.552  0.00  0.00    +0.000 OA
BRANCH  13  15
ATOM     15  C   UNL     1       0.447  10.339  20.456  0.00  0.00    +0.000 A 
ATOM     16  C   UNL     1       0.974  11.639  20.371  0.00  0.00    +0.000 A 
ATOM     17  C   UNL     1       0.445  12.563  19.464  0.00  0.00    +0.000 A 
ATOM     18  C   UNL     1      -0.621  12.195  18.641  0.00  0.00    +0.000 A 
ATOM     19  C   UNL     1      -1.148  10.906  18.729  0.00  0.00    +0.000 A 
ATOM     20 CL   UNL     1      -2.471  10.461  17.723  0.00  0.00    +0.000 Cl
ATOM     21  C   UNL     1      -0.622   9.977  19.628  0.00  0.00    +0.000 A 
ENDBRANCH  13  15
ENDBRANCH   2  13
TORSDOF 5
ENDMDL
MODEL 9
REMARK VINA RESULT:      -6.6      5.813      8.837
REMARK  Name = 
REMARK  7 active torsions:
REMARK  status: ('A' for Active; 'I' for Inactive)
REMARK    1  A    between atoms: C_1  and  O_2
REMARK    2  A    between atoms: O_2  and  C_3
REMARK    3  A    between atoms: C_6  and  C_7
REMARK    4  A    between atoms: C_8  and  C_9
REMARK    5  A    between atoms: C_9  and  C_11
REMARK    6  A    between atoms: C_18  and  O_19
REMARK    7  A    between atoms: O_19  and  C_20
REMARK                            x       y       z     vdW  Elec       q    Type
REMARK                         _______ _______ _______ _____ _____    ______ ____
ROOT
ATOM      1  C   UNL     1       2.485   7.541  18.116  0.00  0.00    +0.000 C 
ATOM      2  C   UNL     1       1.841   7.960  19.220  0.00  0.00    +0.000 C 
ENDROOT
BRANCH   1   6
ATOM      3  C   UNL     1       3.433   3.392  17.616  0.00  0.00    +0.000 A 
ATOM      4  C   UNL     1       2.126   3.813  17.849  0.00  0.00    +0.000 A 
ATOM      5  C   UNL     1       1.837   5.171  17.996  0.00  0.00    +0.000 A 
ATOM      6  C   UNL     1       2.858   6.131  17.925  0.00  0.00    +0.000 A 
ATOM      7  C   UNL     1       4.183   5.709  17.692  0.00  0.00    +0.000 A 
ATOM      8  C   UNL     1       4.457   4.338  17.550  0.00  0.00    +0.000 A 
BRANCH   3  10
ATOM      9  C   UNL     1       3.704   1.313  18.720  0.00  0.00    +0.000 C 
ATOM     10  O   UNL     1       3.602   2.038  17.498  0.00  0.00    +0.000 OA
ENDBRANCH   3  10
BRANCH   7  11
ATOM     11  O   UNL     1       5.141   6.691  17.615  0.00  0.00    +0.000 OA
ATOM     12  C   UNL     1       6.321   6.387  16.878  0.00  0.00    +0.000 C 
ENDBRANCH   7  11
ENDBRANCH   1   6
BRANCH   2  13
ATOM     13  C   UNL     1       1.411   9.382  19.355  0.00  0.00    +0.000 C 
ATOM     14  O   UNL     1       1.591  10.205  18.469  0.00  0.00    +0.000 OA
BRANCH  13  15
ATOM     15  C   UNL     1       0.697   9.771  20.608  0.00  0.00    +0.000 A 
ATOM     16  C   UNL     1       0.287   8.762  21.495  0.00  0.00    +0.000 A 
ATOM     17  C   UNL     1      -0.428   9.082  22.654  0.00  0.00    +0.000 A 
ATOM     18  C   UNL     1      -0.745  10.412  22.929  0.00  0.00    +0.000 A 
ATOM     19  C   UNL     1      -0.342  11.414  22.045  0.00  0.00    +0.000 A 
ATOM     20 CL   UNL     1      -0.747  13.053  22.380  0.00  0.00    +0.000 Cl
ATOM     21  C   UNL     1       0.376  11.104  20.889  0.00  0.00    +0.000 A 
ENDBRANCH  13  15
ENDBRANCH   2  13
TORSDOF 5
ENDMDL
