MODEL 1
REMARK VINA RESULT:      -8.8      0.000      0.000
REMARK  Name = 
REMARK  8 active torsions:
REMARK  status: ('A' for Active; 'I' for Inactive)
REMARK    1  A    between atoms: C_1  and  C_2
REMARK    2  A    between atoms: C_2  and  C_3
REMARK    3  A    between atoms: C_3  and  C_4
REMARK    4  A    between atoms: C_4  and  N_5
REMARK    5  A    between atoms: N_8  and  S_9
REMARK    6  A    between atoms: S_9  and  C_12
REMARK    7  A    between atoms: C_15  and  N_16
REMARK    8  A    between atoms: C_18  and  C_19
REMARK                            x       y       z     vdW  Elec       q    Type
REMARK                         _______ _______ _______ _____ _____    ______ ____
ROOT
ATOM      1  C   UNL     1       5.515   5.759  17.664  0.00  0.00    +0.000 A 
ATOM      2  C   UNL     1       5.200   5.241  18.917  0.00  0.00    +0.000 A 
ATOM      3  C   UNL     1       4.077   5.722  19.595  0.00  0.00    +0.000 A 
ATOM      4  C   UNL     1       3.253   6.721  19.049  0.00  0.00    +0.000 A 
ATOM      5  C   UNL     1       3.574   7.208  17.772  0.00  0.00    +0.000 A 
ATOM      6  C   UNL     1       4.716   6.754  17.095  0.00  0.00    +0.000 A 
ENDROOT
BRANCH   4   7
ATOM      7  N   UNL     1       2.159   7.280  19.790  0.00  0.00    +0.000 N 
ATOM      8  N   UNL     1       1.954   8.646  19.597  0.00  0.00    +0.000 NA
ATOM      9  C   UNL     1       0.979   9.213  20.243  0.00  0.00    +0.000 A 
ATOM     10  C   UNL     1       0.176   8.533  21.280  0.00  0.00    +0.000 A 
ATOM     11  C   UNL     1       0.334   7.221  21.400  0.00  0.00    +0.000 A 
ATOM     12  C   UNL     1       1.329   6.495  20.598  0.00  0.00    +0.000 A 
ATOM     13  O   UNL     1       1.374   5.282  20.779  0.00  0.00    +0.000 OA
BRANCH   9  14
ATOM     14  C   UNL     1       0.579  10.620  19.934  0.00  0.00    +0.000 A 
ATOM     15  C   UNL     1       0.025  10.953  18.684  0.00  0.00    +0.000 A 
ATOM     16  C   UNL     1      -0.247  12.280  18.354  0.00  0.00    +0.000 A 
ATOM     17  C   UNL     1       0.037  13.289  19.273  0.00  0.00    +0.000 A 
ATOM     18 CL   UNL     1      -0.254  14.925  18.843  0.00  0.00    +0.000 Cl
ATOM     19  C   UNL     1       0.583  12.974  20.517  0.00  0.00    +0.000 A 
ATOM     20  C   UNL     1       0.853  11.641  20.850  0.00  0.00    +0.000 A 
ENDBRANCH   9  14
ENDBRANCH   4   7
BRANCH   1  21
ATOM     21  S   UNL     1       6.991   5.211  16.838  0.00  0.00    +0.000 S 
ATOM     22  O   UNL     1       7.741   4.406  17.779  0.00  0.00    +0.000 OA
ATOM     23  O   UNL     1       7.609   6.344  16.186  0.00  0.00    +0.000 OA
BRANCH  21  27
ATOM     24  N   UNL     1       6.111   3.332  13.549  0.00  0.00    +0.000 N 
ATOM     25  C   UNL     1       6.675   4.293  14.348  0.00  0.00    +0.000 C 
ATOM     26  O   UNL     1       7.331   5.211  13.896  0.00  0.00    +0.000 OA
ATOM     27  N   UNL     1       6.405   4.147  15.697  0.00  0.00    +0.000 N 
ATOM     28  H   UNL     1       5.584   2.575  13.952  0.00  0.00    +0.000 HD
ATOM     29  H   UNL     1       5.856   3.386  16.073  0.00  0.00    +0.000 HD
BRANCH  24  30
ATOM     30  C   UNL     1       6.327   3.361  12.110  0.00  0.00    +0.000 C 
BRANCH  30  31
ATOM     31  C   UNL     1       5.214   2.669  11.318  0.00  0.00    +0.000 C 
BRANCH  31  33
ATOM     32  C   UNL     1       3.236   3.618  10.056  0.00  0.00    +0.000 C 
ATOM     33  C   UNL     1       3.891   3.430  11.414  0.00  0.00    +0.000 C 
ENDBRANCH  31  33
ENDBRANCH  30  31
ENDBRANCH  24  30
ENDBRANCH  21  27
ENDBRANCH   1  21
TORSDOF 7
ENDMDL
MODEL 2
REMARK VINA RESULT:      -8.7      3.329      4.804
REMARK  Name = 
REMARK  8 active torsions:
REMARK  status: ('A' for Active; 'I' for Inactive)
REMARK    1  A    between atoms: C_1  and  C_2
REMARK    2  A    between atoms: C_2  and  C_3
REMARK    3  A    between atoms: C_3  and  C_4
REMARK    4  A    between atoms: C_4  and  N_5
REMARK    5  A    between atoms: N_8  and  S_9
REMARK    6  A    between atoms: S_9  and  C_12
REMARK    7  A    between atoms: C_15  and  N_16
REMARK    8  A    between atoms: C_18  and  C_19
REMARK                            x       y       z     vdW  Elec       q    Type
REMARK                         _______ _______ _______ _____ _____    ______ ____
ROOT
ATOM      1  C   UNL     1       2.256   7.320  18.904  0.00  0.00    +0.000 A 
ATOM      2  C   UNL     1       1.865   7.727  20.177  0.00  0.00    +0.000 A 
ATOM      3  C   UNL     1       1.282   8.985  20.346  0.00  0.00    +0.000 A 
ATOM      4  C   UNL     1       1.080   9.860  19.264  0.00  0.00    +0.000 A 
ATOM      5  C   UNL     1       1.456   9.416  17.986  0.00  0.00    +0.000 A 
ATOM      6  C   UNL     1       2.071   8.168  17.809  0.00  0.00    +0.000 A 
ENDROOT
BRANCH   4   7
ATOM      7  N   UNL     1       0.570  11.187  19.457  0.00  0.00    +0.000 N 
ATOM      8  N   UNL     1      -0.610  11.261  20.196  0.00  0.00    +0.000 NA
ATOM      9  C   UNL     1      -1.126  12.437  20.403  0.00  0.00    +0.000 A 
ATOM     10  C   UNL     1      -0.621  13.676  19.778  0.00  0.00    +0.000 A 
ATOM     11  C   UNL     1       0.539  13.600  19.138  0.00  0.00    +0.000 A 
ATOM     12  C   UNL     1       1.243  12.319  18.986  0.00  0.00    +0.000 A 
ATOM     13  O   UNL     1       2.317  12.371  18.393  0.00  0.00    +0.000 OA
BRANCH   9  14
ATOM     14  C   UNL     1      -2.271  12.608  21.349  0.00  0.00    +0.000 A 
ATOM     15  C   UNL     1      -2.129  12.302  22.715  0.00  0.00    +0.000 A 
ATOM     16  C   UNL     1      -3.224  12.357  23.577  0.00  0.00    +0.000 A 
ATOM     17  C   UNL     1      -4.475  12.718  23.077  0.00  0.00    +0.000 A 
ATOM     18 CL   UNL     1      -5.828  12.735  24.132  0.00  0.00    +0.000 Cl
ATOM     19  C   UNL     1      -4.629  13.027  21.727  0.00  0.00    +0.000 A 
ATOM     20  C   UNL     1      -3.530  12.976  20.861  0.00  0.00    +0.000 A 
ENDBRANCH   9  14
ENDBRANCH   4   7
BRANCH   1  21
ATOM     21  S   UNL     1       3.078   5.757  18.700  0.00  0.00    +0.000 S 
ATOM     22  O   UNL     1       2.236   4.931  17.860  0.00  0.00    +0.000 OA
ATOM     23  O   UNL     1       3.512   5.284  19.995  0.00  0.00    +0.000 OA
BRANCH  21  27
ATOM     24  N   UNL     1       6.227   5.690  16.419  0.00  0.00    +0.000 N 
ATOM     25  C   UNL     1       5.177   5.191  17.144  0.00  0.00    +0.000 C 
ATOM     26  O   UNL     1       4.970   3.998  17.251  0.00  0.00    +0.000 OA
ATOM     27  N   UNL     1       4.401   6.153  17.766  0.00  0.00    +0.000 N 
ATOM     28  H   UNL     1       6.367   6.684  16.337  0.00  0.00    +0.000 HD
ATOM     29  H   UNL     1       4.575   7.145  17.681  0.00  0.00    +0.000 HD
BRANCH  24  30
ATOM     30  C   UNL     1       7.116   4.785  15.704  0.00  0.00    +0.000 C 
BRANCH  30  31
ATOM     31  C   UNL     1       6.955   4.858  14.183  0.00  0.00    +0.000 C 
BRANCH  31  33
ATOM     32  C   UNL     1       6.292   3.394  12.228  0.00  0.00    +0.000 C 
ATOM     33  C   UNL     1       5.987   3.796  13.662  0.00  0.00    +0.000 C 
ENDBRANCH  31  33
ENDBRANCH  30  31
ENDBRANCH  24  30
ENDBRANCH  21  27
ENDBRANCH   1  21
TORSDOF 7
ENDMDL
MODEL 3
REMARK VINA RESULT:      -8.7      3.262      4.601
REMARK  Name = 
REMARK  8 active torsions:
REMARK  status: ('A' for Active; 'I' for Inactive)
REMARK    1  A    between atoms: C_1  and  C_2
REMARK    2  A    between atoms: C_2  and  C_3
REMARK    3  A    between atoms: C_3  and  C_4
REMARK    4  A    between atoms: C_4  and  N_5
REMARK    5  A    between atoms: N_8  and  S_9
REMARK    6  A    between atoms: S_9  and  C_12
REMARK    7  A    between atoms: C_15  and  N_16
REMARK    8  A    between atoms: C_18  and  C_19
REMARK                            x       y       z     vdW  Elec       q    Type
REMARK                         _______ _______ _______ _____ _____    ______ ____
ROOT
ATOM      1  C   UNL     1       2.451   7.364  18.827  0.00  0.00    +0.000 A 
ATOM      2  C   UNL     1       2.293   8.350  17.856  0.00  0.00    +0.000 A 
ATOM      3  C   UNL     1       1.622   9.531  18.181  0.00  0.00    +0.000 A 
ATOM      4  C   UNL     1       1.096   9.755  19.466  0.00  0.00    +0.000 A 
ATOM      5  C   UNL     1       1.293   8.759  20.436  0.00  0.00    +0.000 A 
ATOM      6  C   UNL     1       1.938   7.557  20.112  0.00  0.00    +0.000 A 
ENDROOT
BRANCH   4   7
ATOM      7  N   UNL     1       0.324  10.927  19.768  0.00  0.00    +0.000 N 
ATOM      8  N   UNL     1      -0.950  10.954  19.201  0.00  0.00    +0.000 NA
ATOM      9  C   UNL     1      -1.697  11.991  19.434  0.00  0.00    +0.000 A 
ATOM     10  C   UNL     1      -1.225  13.203  20.133  0.00  0.00    +0.000 A 
ATOM     11  C   UNL     1      -0.040  13.135  20.726  0.00  0.00    +0.000 A 
ATOM     12  C   UNL     1       0.800  11.934  20.614  0.00  0.00    +0.000 A 
ATOM     13  O   UNL     1       1.867  11.975  21.219  0.00  0.00    +0.000 OA
BRANCH   9  14
ATOM     14  C   UNL     1      -3.137  11.997  19.027  0.00  0.00    +0.000 A 
ATOM     15  C   UNL     1      -3.529  11.522  17.763  0.00  0.00    +0.000 A 
ATOM     16  C   UNL     1      -4.854  11.626  17.340  0.00  0.00    +0.000 A 
ATOM     17  C   UNL     1      -5.800  12.212  18.182  0.00  0.00    +0.000 A 
ATOM     18 CL   UNL     1      -7.419  12.383  17.637  0.00  0.00    +0.000 Cl
ATOM     19  C   UNL     1      -5.426  12.683  19.439  0.00  0.00    +0.000 A 
ATOM     20  C   UNL     1      -4.097  12.576  19.865  0.00  0.00    +0.000 A 
ENDBRANCH   9  14
ENDBRANCH   4   7
BRANCH   1  21
ATOM     21  S   UNL     1       3.227   5.825  18.391  0.00  0.00    +0.000 S 
ATOM     22  O   UNL     1       2.197   4.956  17.861  0.00  0.00    +0.000 OA
ATOM     23  O   UNL     1       4.058   5.392  19.491  0.00  0.00    +0.000 OA
BRANCH  21  27
ATOM     24  N   UNL     1       5.642   5.827  15.343  0.00  0.00    +0.000 N 
ATOM     25  C   UNL     1       4.911   5.309  16.380  0.00  0.00    +0.000 C 
ATOM     26  O   UNL     1       4.934   4.128  16.666  0.00  0.00    +0.000 OA
ATOM     27  N   UNL     1       4.179   6.245  17.089  0.00  0.00    +0.000 N 
ATOM     28  H   UNL     1       5.593   6.807  15.120  0.00  0.00    +0.000 HD
ATOM     29  H   UNL     1       4.163   7.228  16.854  0.00  0.00    +0.000 HD
BRANCH  24  30
ATOM     30  C   UNL     1       6.447   4.948  14.507  0.00  0.00    +0.000 C 
BRANCH  30  31
ATOM     31  C   UNL     1       5.612   3.965  13.683  0.00  0.00    +0.000 C 
BRANCH  31  33
ATOM     32  C   UNL     1       7.384   4.470  11.949  0.00  0.00    +0.000 C 
ATOM     33  C   UNL     1       6.376   3.455  12.461  0.00  0.00    +0.000 C 
ENDBRANCH  31  33
ENDBRANCH  30  31
ENDBRANCH  24  30
ENDBRANCH  21  27
ENDBRANCH   1  21
TORSDOF 7
ENDMDL
MODEL 4
REMARK VINA RESULT:      -8.4      3.351      4.872
REMARK  Name = 
REMARK  8 active torsions:
REMARK  status: ('A' for Active; 'I' for Inactive)
REMARK    1  A    between atoms: C_1  and  C_2
REMARK    2  A    between atoms: C_2  and  C_3
REMARK    3  A    between atoms: C_3  and  C_4
REMARK    4  A    between atoms: C_4  and  N_5
REMARK    5  A    between atoms: N_8  and  S_9
REMARK    6  A    between atoms: S_9  and  C_12
REMARK    7  A    between atoms: C_15  and  N_16
REMARK    8  A    between atoms: C_18  and  C_19
REMARK                            x       y       z     vdW  Elec       q    Type
REMARK                         _______ _______ _______ _____ _____    ______ ____
ROOT
ATOM      1  C   UNL     1       2.400   7.354  18.944  0.00  0.00    +0.000 A 
ATOM      2  C   UNL     1       2.402   8.171  17.817  0.00  0.00    +0.000 A 
ATOM      3  C   UNL     1       1.800   9.430  17.882  0.00  0.00    +0.000 A 
ATOM      4  C   UNL     1       1.186   9.899  19.057  0.00  0.00    +0.000 A 
ATOM      5  C   UNL     1       1.221   9.068  20.189  0.00  0.00    +0.000 A 
ATOM      6  C   UNL     1       1.795   7.790  20.126  0.00  0.00    +0.000 A 
ENDROOT
BRANCH   4   7
ATOM      7  N   UNL     1       0.485  11.151  19.090  0.00  0.00    +0.000 N 
ATOM      8  N   UNL     1      -0.903  11.050  19.005  0.00  0.00    +0.000 NA
ATOM      9  C   UNL     1      -1.595  12.150  19.026  0.00  0.00    +0.000 A 
ATOM     10  C   UNL     1      -0.995  13.498  18.983  0.00  0.00    +0.000 A 
ATOM     11  C   UNL     1       0.320  13.579  19.137  0.00  0.00    +0.000 A 
ATOM     12  C   UNL     1       1.149  12.371  19.256  0.00  0.00    +0.000 A 
ATOM     13  O   UNL     1       2.351  12.565  19.414  0.00  0.00    +0.000 OA
BRANCH   9  14
ATOM     14  C   UNL     1      -3.086  12.107  19.139  0.00  0.00    +0.000 A 
ATOM     15  C   UNL     1      -3.741  12.680  20.244  0.00  0.00    +0.000 A 
ATOM     16  C   UNL     1      -5.120  12.547  20.405  0.00  0.00    +0.000 A 
ATOM     17  C   UNL     1      -5.856  11.833  19.460  0.00  0.00    +0.000 A 
ATOM     18 CL   UNL     1      -7.545  11.629  19.690  0.00  0.00    +0.000 Cl
ATOM     19  C   UNL     1      -5.221  11.263  18.358  0.00  0.00    +0.000 A 
ATOM     20  C   UNL     1      -3.837  11.400  18.194  0.00  0.00    +0.000 A 
ENDBRANCH   9  14
ENDBRANCH   4   7
BRANCH   1  21
ATOM     21  S   UNL     1       3.087   5.717  18.838  0.00  0.00    +0.000 S 
ATOM     22  O   UNL     1       1.982   4.792  18.693  0.00  0.00    +0.000 OA
ATOM     23  O   UNL     1       4.053   5.546  19.899  0.00  0.00    +0.000 OA
BRANCH  21  27
ATOM     24  N   UNL     1       5.199   4.856  15.688  0.00  0.00    +0.000 N 
ATOM     25  C   UNL     1       4.633   4.675  16.923  0.00  0.00    +0.000 C 
ATOM     26  O   UNL     1       4.826   3.673  17.585  0.00  0.00    +0.000 OA
ATOM     27  N   UNL     1       3.860   5.735  17.360  0.00  0.00    +0.000 N 
ATOM     28  H   UNL     1       5.011   5.690  15.156  0.00  0.00    +0.000 HD
ATOM     29  H   UNL     1       3.702   6.569  16.813  0.00  0.00    +0.000 HD
BRANCH  24  30
ATOM     30  C   UNL     1       6.026   3.812  15.103  0.00  0.00    +0.000 C 
BRANCH  30  31
ATOM     31  C   UNL     1       7.136   4.355  14.199  0.00  0.00    +0.000 C 
BRANCH  31  33
ATOM     32  C   UNL     1       5.880   3.237  12.308  0.00  0.00    +0.000 C 
ATOM     33  C   UNL     1       6.686   4.450  12.741  0.00  0.00    +0.000 C 
ENDBRANCH  31  33
ENDBRANCH  30  31
ENDBRANCH  24  30
ENDBRANCH  21  27
ENDBRANCH   1  21
TORSDOF 7
ENDMDL
MODEL 5
REMARK VINA RESULT:      -8.4      3.288      4.514
REMARK  Name = 
REMARK  8 active torsions:
REMARK  status: ('A' for Active; 'I' for Inactive)
REMARK    1  A    between atoms: C_1  and  C_2
REMARK    2  A    between atoms: C_2  and  C_3
REMARK    3  A    between atoms: C_3  and  C_4
REMARK    4  A    between atoms: C_4  and  N_5
REMARK    5  A    between atoms: N_8  and  S_9
REMARK    6  A    between atoms: S_9  and  C_12
REMARK    7  A    between atoms: C_15  and  N_16
REMARK    8  A    between atoms: C_18  and  C_19
REMARK                            x       y       z     vdW  Elec       q    Type
REMARK                         _______ _______ _______ _____ _____    ______ ____
ROOT
ATOM      1  C   UNL     1       2.534   7.316  18.756  0.00  0.00    +0.000 A 
ATOM      2  C   UNL     1       1.929   7.616  19.973  0.00  0.00    +0.000 A 
ATOM      3  C   UNL     1       1.205   8.803  20.106  0.00  0.00    +0.000 A 
ATOM      4  C   UNL     1       1.070   9.712  19.041  0.00  0.00    +0.000 A 
ATOM      5  C   UNL     1       1.665   9.375  17.815  0.00  0.00    +0.000 A 
ATOM      6  C   UNL     1       2.420   8.201  17.679  0.00  0.00    +0.000 A 
ENDROOT
BRANCH   4   7
ATOM      7  N   UNL     1       0.408  10.974  19.211  0.00  0.00    +0.000 N 
ATOM      8  N   UNL     1      -0.971  10.947  19.002  0.00  0.00    +0.000 NA
ATOM      9  C   UNL     1      -1.628  12.060  19.138  0.00  0.00    +0.000 A 
ATOM     10  C   UNL     1      -0.986  13.373  19.349  0.00  0.00    +0.000 A 
ATOM     11  C   UNL     1       0.314  13.372  19.616  0.00  0.00    +0.000 A 
ATOM     12  C   UNL     1       1.093  12.126  19.613  0.00  0.00    +0.000 A 
ATOM     13  O   UNL     1       2.282  12.242  19.892  0.00  0.00    +0.000 OA
BRANCH   9  14
ATOM     14  C   UNL     1      -3.124  12.065  19.126  0.00  0.00    +0.000 A 
ATOM     15  C   UNL     1      -3.837  11.517  18.044  0.00  0.00    +0.000 A 
ATOM     16  C   UNL     1      -5.226  11.617  17.981  0.00  0.00    +0.000 A 
ATOM     17  C   UNL     1      -5.916  12.272  19.001  0.00  0.00    +0.000 A 
ATOM     18 CL   UNL     1      -7.621  12.437  18.892  0.00  0.00    +0.000 Cl
ATOM     19  C   UNL     1      -5.222  12.817  20.080  0.00  0.00    +0.000 A 
ATOM     20  C   UNL     1      -3.828  12.713  20.147  0.00  0.00    +0.000 A 
ENDBRANCH   9  14
ENDBRANCH   4   7
BRANCH   1  21
ATOM     21  S   UNL     1       3.528   5.850  18.611  0.00  0.00    +0.000 S 
ATOM     22  O   UNL     1       2.626   4.720  18.536  0.00  0.00    +0.000 OA
ATOM     23  O   UNL     1       4.571   5.891  19.611  0.00  0.00    +0.000 OA
BRANCH  21  27
ATOM     24  N   UNL     1       5.492   5.325  15.295  0.00  0.00    +0.000 N 
ATOM     25  C   UNL     1       5.032   5.040  16.555  0.00  0.00    +0.000 C 
ATOM     26  O   UNL     1       5.365   4.037  17.157  0.00  0.00    +0.000 OA
ATOM     27  N   UNL     1       4.192   6.001  17.089  0.00  0.00    +0.000 N 
ATOM     28  H   UNL     1       5.189   6.156  14.815  0.00  0.00    +0.000 HD
ATOM     29  H   UNL     1       3.919   6.836  16.591  0.00  0.00    +0.000 HD
BRANCH  24  30
ATOM     30  C   UNL     1       6.373   4.390  14.611  0.00  0.00    +0.000 C 
BRANCH  30  31
ATOM     31  C   UNL     1       5.737   3.756  13.372  0.00  0.00    +0.000 C 
BRANCH  31  33
ATOM     32  C   UNL     1       6.675   2.347  11.491  0.00  0.00    +0.000 C 
ATOM     33  C   UNL     1       6.717   3.690  12.200  0.00  0.00    +0.000 C 
ENDBRANCH  31  33
ENDBRANCH  30  31
ENDBRANCH  24  30
ENDBRANCH  21  27
ENDBRANCH   1  21
TORSDOF 7
ENDMDL
MODEL 6
REMARK VINA RESULT:      -8.4      2.396      3.083
REMARK  Name = 
REMARK  8 active torsions:
REMARK  status: ('A' for Active; 'I' for Inactive)
REMARK    1  A    between atoms: C_1  and  C_2
REMARK    2  A    between atoms: C_2  and  C_3
REMARK    3  A    between atoms: C_3  and  C_4
REMARK    4  A    between atoms: C_4  and  N_5
REMARK    5  A    between atoms: N_8  and  S_9
REMARK    6  A    between atoms: S_9  and  C_12
REMARK    7  A    between atoms: C_15  and  N_16
REMARK    8  A    between atoms: C_18  and  C_19
REMARK                            x       y       z     vdW  Elec       q    Type
REMARK                         _______ _______ _______ _____ _____    ______ ____
ROOT
ATOM      1  C   UNL     1       3.494   5.622  18.836  0.00  0.00    +0.000 A 
ATOM      2  C   UNL     1       2.759   5.461  20.008  0.00  0.00    +0.000 A 
ATOM      3  C   UNL     1       1.945   6.504  20.456  0.00  0.00    +0.000 A 
ATOM      4  C   UNL     1       1.846   7.721  19.757  0.00  0.00    +0.000 A 
ATOM      5  C   UNL     1       2.574   7.849  18.563  0.00  0.00    +0.000 A 
ATOM      6  C   UNL     1       3.418   6.820  18.120  0.00  0.00    +0.000 A 
ENDROOT
BRANCH   4   7
ATOM      7  N   UNL     1       1.085   8.822  20.272  0.00  0.00    +0.000 N 
ATOM      8  N   UNL     1       0.137   9.344  19.392  0.00  0.00    +0.000 NA
ATOM      9  C   UNL     1      -0.583  10.347  19.799  0.00  0.00    +0.000 A 
ATOM     10  C   UNL     1      -0.354  11.060  21.072  0.00  0.00    +0.000 A 
ATOM     11  C   UNL     1       0.499  10.509  21.926  0.00  0.00    +0.000 A 
ATOM     12  C   UNL     1       1.248   9.293  21.579  0.00  0.00    +0.000 A 
ATOM     13  O   UNL     1       1.995   8.862  22.453  0.00  0.00    +0.000 OA
BRANCH   9  14
ATOM     14  C   UNL     1      -1.747  10.824  18.989  0.00  0.00    +0.000 A 
ATOM     15  C   UNL     1      -2.570  11.865  19.456  0.00  0.00    +0.000 A 
ATOM     16  C   UNL     1      -3.717  12.237  18.755  0.00  0.00    +0.000 A 
ATOM     17  C   UNL     1      -4.052  11.566  17.579  0.00  0.00    +0.000 A 
ATOM     18 CL   UNL     1      -5.491  11.994  16.747  0.00  0.00    +0.000 Cl
ATOM     19  C   UNL     1      -3.243  10.535  17.103  0.00  0.00    +0.000 A 
ATOM     20  C   UNL     1      -2.090  10.163  17.804  0.00  0.00    +0.000 A 
ENDBRANCH   9  14
ENDBRANCH   4   7
BRANCH   1  21
ATOM     21  S   UNL     1       4.597   4.331  18.311  0.00  0.00    +0.000 S 
ATOM     22  O   UNL     1       3.918   3.069  18.522  0.00  0.00    +0.000 OA
ATOM     23  O   UNL     1       5.901   4.568  18.887  0.00  0.00    +0.000 OA
BRANCH  21  27
ATOM     24  N   UNL     1       5.687   4.550  14.585  0.00  0.00    +0.000 N 
ATOM     25  C   UNL     1       5.812   4.324  15.931  0.00  0.00    +0.000 C 
ATOM     26  O   UNL     1       6.865   3.989  16.438  0.00  0.00    +0.000 OA
ATOM     27  N   UNL     1       4.657   4.543  16.659  0.00  0.00    +0.000 N 
ATOM     28  H   UNL     1       4.799   4.814  14.190  0.00  0.00    +0.000 HD
ATOM     29  H   UNL     1       3.783   4.826  16.238  0.00  0.00    +0.000 HD
BRANCH  24  30
ATOM     30  C   UNL     1       6.825   4.344  13.700  0.00  0.00    +0.000 C 
BRANCH  30  31
ATOM     31  C   UNL     1       6.422   4.101  12.244  0.00  0.00    +0.000 C 
BRANCH  31  33
ATOM     32  C   UNL     1       4.225   3.212  11.356  0.00  0.00    +0.000 C 
ATOM     33  C   UNL     1       5.508   2.884  12.102  0.00  0.00    +0.000 C 
ENDBRANCH  31  33
ENDBRANCH  30  31
ENDBRANCH  24  30
ENDBRANCH  21  27
ENDBRANCH   1  21
TORSDOF 7
ENDMDL
MODEL 7
REMARK VINA RESULT:      -8.2      3.245      4.754
REMARK  Name = 
REMARK  8 active torsions:
REMARK  status: ('A' for Active; 'I' for Inactive)
REMARK    1  A    between atoms: C_1  and  C_2
REMARK    2  A    between atoms: C_2  and  C_3
REMARK    3  A    between atoms: C_3  and  C_4
REMARK    4  A    between atoms: C_4  and  N_5
REMARK    5  A    between atoms: N_8  and  S_9
REMARK    6  A    between atoms: S_9  and  C_12
REMARK    7  A    between atoms: C_15  and  N_16
REMARK    8  A    between atoms: C_18  and  C_19
REMARK                            x       y       z     vdW  Elec       q    Type
REMARK                         _______ _______ _______ _____ _____    ______ ____
ROOT
ATOM      1  C   UNL     1       2.228   7.042  19.166  0.00  0.00    +0.000 A 
ATOM      2  C   UNL     1       2.167   7.819  18.013  0.00  0.00    +0.000 A 
ATOM      3  C   UNL     1       1.671   9.122  18.089  0.00  0.00    +0.000 A 
ATOM      4  C   UNL     1       1.225   9.676  19.302  0.00  0.00    +0.000 A 
ATOM      5  C   UNL     1       1.323   8.884  20.457  0.00  0.00    +0.000 A 
ATOM      6  C   UNL     1       1.791   7.563  20.387  0.00  0.00    +0.000 A 
ENDROOT
BRANCH   4   7
ATOM      7  N   UNL     1       0.628  10.979  19.358  0.00  0.00    +0.000 N 
ATOM      8  N   UNL     1      -0.582  11.042  20.049  0.00  0.00    +0.000 NA
ATOM      9  C   UNL     1      -1.176  12.196  20.132  0.00  0.00    +0.000 A 
ATOM     10  C   UNL     1      -0.726  13.404  19.413  0.00  0.00    +0.000 A 
ATOM     11  C   UNL     1       0.460  13.348  18.821  0.00  0.00    +0.000 A 
ATOM     12  C   UNL     1       1.247  12.107  18.808  0.00  0.00    +0.000 A 
ATOM     13  O   UNL     1       2.337  12.175  18.248  0.00  0.00    +0.000 OA
BRANCH   9  14
ATOM     14  C   UNL     1      -2.365  12.375  21.022  0.00  0.00    +0.000 A 
ATOM     15  C   UNL     1      -3.599  12.800  20.497  0.00  0.00    +0.000 A 
ATOM     16  C   UNL     1      -4.677  13.072  21.339  0.00  0.00    +0.000 A 
ATOM     17  C   UNL     1      -4.528  12.924  22.717  0.00  0.00    +0.000 A 
ATOM     18 CL   UNL     1      -5.843  13.308  23.752  0.00  0.00    +0.000 Cl
ATOM     19  C   UNL     1      -3.312  12.500  23.250  0.00  0.00    +0.000 A 
ATOM     20  C   UNL     1      -2.230  12.223  22.406  0.00  0.00    +0.000 A 
ENDBRANCH   9  14
ENDBRANCH   4   7
BRANCH   1  21
ATOM     21  S   UNL     1       2.777   5.354  19.056  0.00  0.00    +0.000 S 
ATOM     22  O   UNL     1       1.597   4.515  19.041  0.00  0.00    +0.000 OA
ATOM     23  O   UNL     1       3.819   5.137  20.033  0.00  0.00    +0.000 OA
BRANCH  21  27
ATOM     24  N   UNL     1       5.107   5.373  15.943  0.00  0.00    +0.000 N 
ATOM     25  C   UNL     1       4.756   5.474  17.264  0.00  0.00    +0.000 C 
ATOM     26  O   UNL     1       5.562   5.751  18.131  0.00  0.00    +0.000 OA
ATOM     27  N   UNL     1       3.411   5.271  17.517  0.00  0.00    +0.000 N 
ATOM     28  H   UNL     1       4.421   5.129  15.248  0.00  0.00    +0.000 HD
ATOM     29  H   UNL     1       2.740   5.045  16.796  0.00  0.00    +0.000 HD
BRANCH  24  30
ATOM     30  C   UNL     1       6.495   5.552  15.541  0.00  0.00    +0.000 C 
BRANCH  30  31
ATOM     31  C   UNL     1       6.986   4.476  14.569  0.00  0.00    +0.000 C 
BRANCH  31  33
ATOM     32  C   UNL     1       6.318   3.478  12.342  0.00  0.00    +0.000 C 
ATOM     33  C   UNL     1       5.846   3.915  13.719  0.00  0.00    +0.000 C 
ENDBRANCH  31  33
ENDBRANCH  30  31
ENDBRANCH  24  30
ENDBRANCH  21  27
ENDBRANCH   1  21
TORSDOF 7
ENDMDL
MODEL 8
REMARK VINA RESULT:      -8.2      3.324      5.147
REMARK  Name = 
REMARK  8 active torsions:
REMARK  status: ('A' for Active; 'I' for Inactive)
REMARK    1  A    between atoms: C_1  and  C_2
REMARK    2  A    between atoms: C_2  and  C_3
REMARK    3  A    between atoms: C_3  and  C_4
REMARK    4  A    between atoms: C_4  and  N_5
REMARK    5  A    between atoms: N_8  and  S_9
REMARK    6  A    between atoms: S_9  and  C_12
REMARK    7  A    between atoms: C_15  and  N_16
REMARK    8  A    between atoms: C_18  and  C_19
REMARK                            x       y       z     vdW  Elec       q    Type
REMARK                         _______ _______ _______ _____ _____    ______ ____
ROOT
ATOM      1  C   UNL     1       2.254   6.980  19.372  0.00  0.00    +0.000 A 
ATOM      2  C   UNL     1       2.271   7.592  18.121  0.00  0.00    +0.000 A 
ATOM      3  C   UNL     1       1.727   8.870  17.976  0.00  0.00    +0.000 A 
ATOM      4  C   UNL     1       1.157   9.562  19.060  0.00  0.00    +0.000 A 
ATOM      5  C   UNL     1       1.177   8.936  20.317  0.00  0.00    +0.000 A 
ATOM      6  C   UNL     1       1.692   7.640  20.468  0.00  0.00    +0.000 A 
ENDROOT
BRANCH   4   7
ATOM      7  N   UNL     1       0.514  10.832  18.885  0.00  0.00    +0.000 N 
ATOM      8  N   UNL     1      -0.879  10.783  18.831  0.00  0.00    +0.000 NA
ATOM      9  C   UNL     1      -1.521  11.903  18.671  0.00  0.00    +0.000 A 
ATOM     10  C   UNL     1      -0.863  13.194  18.392  0.00  0.00    +0.000 A 
ATOM     11  C   UNL     1       0.458  13.238  18.518  0.00  0.00    +0.000 A 
ATOM     12  C   UNL     1       1.234  12.030  18.833  0.00  0.00    +0.000 A 
ATOM     13  O   UNL     1       2.446  12.192  18.943  0.00  0.00    +0.000 OA
BRANCH   9  14
ATOM     14  C   UNL     1      -3.010  11.950  18.804  0.00  0.00    +0.000 A 
ATOM     15  C   UNL     1      -3.614  12.526  19.937  0.00  0.00    +0.000 A 
ATOM     16  C   UNL     1      -4.996  12.474  20.113  0.00  0.00    +0.000 A 
ATOM     17  C   UNL     1      -5.788  11.839  19.157  0.00  0.00    +0.000 A 
ATOM     18 CL   UNL     1      -7.484  11.734  19.405  0.00  0.00    +0.000 Cl
ATOM     19  C   UNL     1      -5.204  11.267  18.028  0.00  0.00    +0.000 A 
ATOM     20  C   UNL     1      -3.817  11.322  17.848  0.00  0.00    +0.000 A 
ENDBRANCH   9  14
ENDBRANCH   4   7
BRANCH   1  21
ATOM     21  S   UNL     1       2.865   5.319  19.541  0.00  0.00    +0.000 S 
ATOM     22  O   UNL     1       2.406   4.569  18.391  0.00  0.00    +0.000 OA
ATOM     23  O   UNL     1       2.587   4.853  20.880  0.00  0.00    +0.000 OA
BRANCH  21  27
ATOM     24  N   UNL     1       6.447   5.752  18.089  0.00  0.00    +0.000 N 
ATOM     25  C   UNL     1       5.084   5.606  18.079  0.00  0.00    +0.000 C 
ATOM     26  O   UNL     1       4.446   5.540  17.046  0.00  0.00    +0.000 OA
ATOM     27  N   UNL     1       4.509   5.506  19.332  0.00  0.00    +0.000 N 
ATOM     28  H   UNL     1       6.949   5.817  18.960  0.00  0.00    +0.000 HD
ATOM     29  H   UNL     1       5.039   5.557  20.191  0.00  0.00    +0.000 HD
BRANCH  24  30
ATOM     30  C   UNL     1       7.177   5.881  16.837  0.00  0.00    +0.000 C 
BRANCH  30  31
ATOM     31  C   UNL     1       7.107   4.626  15.964  0.00  0.00    +0.000 C 
BRANCH  31  33
ATOM     32  C   UNL     1       6.226   3.834  13.727  0.00  0.00    +0.000 C 
ATOM     33  C   UNL     1       6.889   4.970  14.490  0.00  0.00    +0.000 C 
ENDBRANCH  31  33
ENDBRANCH  30  31
ENDBRANCH  24  30
ENDBRANCH  21  27
ENDBRANCH   1  21
TORSDOF 7
ENDMDL
MODEL 9
REMARK VINA RESULT:      -8.2      4.642      9.420
REMARK  Name = 
REMARK  8 active torsions:
REMARK  status: ('A' for Active; 'I' for Inactive)
REMARK    1  A    between atoms: C_1  and  C_2
REMARK    2  A    between atoms: C_2  and  C_3
REMARK    3  A    between atoms: C_3  and  C_4
REMARK    4  A    between atoms: C_4  and  N_5
REMARK    5  A    between atoms: N_8  and  S_9
REMARK    6  A    between atoms: S_9  and  C_12
REMARK    7  A    between atoms: C_15  and  N_16
REMARK    8  A    between atoms: C_18  and  C_19
REMARK                            x       y       z     vdW  Elec       q    Type
REMARK                         _______ _______ _______ _____ _____    ______ ____
ROOT
ATOM      1  C   UNL     1       1.023  10.455  19.427  0.00  0.00    +0.000 A 
ATOM      2  C   UNL     1       0.978   9.517  20.454  0.00  0.00    +0.000 A 
ATOM      3  C   UNL     1       1.545   8.255  20.255  0.00  0.00    +0.000 A 
ATOM      4  C   UNL     1       2.160   7.901  19.041  0.00  0.00    +0.000 A 
ATOM      5  C   UNL     1       2.218   8.875  18.030  0.00  0.00    +0.000 A 
ATOM      6  C   UNL     1       1.625  10.133  18.208  0.00  0.00    +0.000 A 
ENDROOT
BRANCH   4   7
ATOM      7  N   UNL     1       2.654   6.575  18.808  0.00  0.00    +0.000 N 
ATOM      8  N   UNL     1       3.488   6.445  17.698  0.00  0.00    +0.000 NA
ATOM      9  C   UNL     1       3.966   5.265  17.431  0.00  0.00    +0.000 A 
ATOM     10  C   UNL     1       3.560   4.035  18.140  0.00  0.00    +0.000 A 
ATOM     11  C   UNL     1       2.826   4.184  19.235  0.00  0.00    +0.000 A 
ATOM     12  C   UNL     1       2.364   5.511  19.669  0.00  0.00    +0.000 A 
ATOM     13  O   UNL     1       1.708   5.532  20.706  0.00  0.00    +0.000 OA
BRANCH   9  14
ATOM     14  C   UNL     1       5.018   5.092  16.382  0.00  0.00    +0.000 A 
ATOM     15  C   UNL     1       6.230   5.802  16.454  0.00  0.00    +0.000 A 
ATOM     16  C   UNL     1       7.165   5.724  15.422  0.00  0.00    +0.000 A 
ATOM     17  C   UNL     1       6.892   4.935  14.305  0.00  0.00    +0.000 A 
ATOM     18 CL   UNL     1       8.025   4.883  13.016  0.00  0.00    +0.000 Cl
ATOM     19  C   UNL     1       5.697   4.224  14.222  0.00  0.00    +0.000 A 
ATOM     20  C   UNL     1       4.759   4.298  15.259  0.00  0.00    +0.000 A 
ENDBRANCH   9  14
ENDBRANCH   4   7
BRANCH   1  21
ATOM     21  S   UNL     1       0.225  12.029  19.646  0.00  0.00    +0.000 S 
ATOM     22  O   UNL     1       1.259  13.043  19.642  0.00  0.00    +0.000 OA
ATOM     23  O   UNL     1      -0.704  11.933  20.749  0.00  0.00    +0.000 OA
BRANCH  21  27
ATOM     24  N   UNL     1      -2.289  11.766  16.692  0.00  0.00    +0.000 N 
ATOM     25  C   UNL     1      -1.731  11.480  17.910  0.00  0.00    +0.000 C 
ATOM     26  O   UNL     1      -2.177  10.618  18.643  0.00  0.00    +0.000 OA
ATOM     27  N   UNL     1      -0.607  12.226  18.215  0.00  0.00    +0.000 N 
ATOM     28  H   UNL     1      -1.907  12.494  16.111  0.00  0.00    +0.000 HD
ATOM     29  H   UNL     1      -0.233  12.939  17.605  0.00  0.00    +0.000 HD
BRANCH  24  30
ATOM     30  C   UNL     1      -3.486  11.062  16.253  0.00  0.00    +0.000 C 
BRANCH  30  31
ATOM     31  C   UNL     1      -4.783  11.733  16.711  0.00  0.00    +0.000 C 
BRANCH  31  33
ATOM     32  C   UNL     1      -5.648  11.813  19.088  0.00  0.00    +0.000 C 
ATOM     33  C   UNL     1      -5.453  10.958  17.846  0.00  0.00    +0.000 C 
ENDBRANCH  31  33
ENDBRANCH  30  31
ENDBRANCH  24  30
ENDBRANCH  21  27
ENDBRANCH   1  21
TORSDOF 7
ENDMDL
