MODEL 1
REMARK VINA RESULT:      -7.5      0.000      0.000
REMARK  Name = 
REMARK  10 active torsions:
REMARK  status: ('A' for Active; 'I' for Inactive)
REMARK    1  A    between atoms: C_1  and  C_2
REMARK    2  A    between atoms: C_2  and  C_3
REMARK    3  A    between atoms: C_2  and  C_4
REMARK    4  A    between atoms: C_2  and  C_6
REMARK    5  A    between atoms: C_4  and  O_5
REMARK    6  A    between atoms: C_6  and  N_7
REMARK    7  A    between atoms: C_13  and  C_14
REMARK    8  A    between atoms: C_17  and  C_18
REMARK    9  A    between atoms: C_22  and  O_23
REMARK   10  A    between atoms: O_23  and  C_24
REMARK                            x       y       z     vdW  Elec       q    Type
REMARK                         _______ _______ _______ _____ _____    ______ ____
ROOT
ATOM      1  N   UNL     1       0.740  11.380  18.608  0.00  0.00    +0.000 N 
ATOM      2  C   UNL     1       0.835  10.385  19.532  0.00  0.00    +0.000 C 
ATOM      3  N   UNL     1       0.495  10.448  20.771  0.00  0.00    +0.000 NA
ATOM      4  C   UNL     1       0.724   9.284  21.464  0.00  0.00    +0.000 C 
ATOM      5  O   UNL     1       0.488   9.101  22.653  0.00  0.00    +0.000 OA
ATOM      6  C   UNL     1       1.293   8.233  20.577  0.00  0.00    +0.000 C 
ATOM      7  C   UNL     1       1.599   7.009  21.024  0.00  0.00    +0.000 C 
ATOM      8  S   UNL     1       1.465   8.858  18.982  0.00  0.00    +0.000 S 
ATOM      9  H   UNL     1       1.454  11.335  17.887  0.00  0.00    +0.000 HD
ENDROOT
BRANCH   7  10
ATOM     10  C   UNL     1       2.126   5.973  20.213  0.00  0.00    +0.000 A 
ATOM     11  C   UNL     1       1.402   4.902  19.746  0.00  0.00    +0.000 A 
ATOM     12  S   UNL     1       2.387   3.982  18.692  0.00  0.00    +0.000 S 
ATOM     13  C   UNL     1       3.690   5.091  18.943  0.00  0.00    +0.000 A 
ATOM     14  N   UNL     1       3.430   6.064  19.794  0.00  0.00    +0.000 NA
BRANCH  13  15
ATOM     15  C   UNL     1       4.990   4.890  18.285  0.00  0.00    +0.000 A 
ATOM     16  C   UNL     1       6.195   5.323  18.858  0.00  0.00    +0.000 A 
ATOM     17  C   UNL     1       7.404   5.144  18.188  0.00  0.00    +0.000 A 
ATOM     18  C   UNL     1       7.416   4.549  16.929  0.00  0.00    +0.000 A 
ATOM     19  C   UNL     1       6.228   4.117  16.333  0.00  0.00    +0.000 A 
ATOM     20  C   UNL     1       5.031   4.242  17.038  0.00  0.00    +0.000 A 
BRANCH  19  21
ATOM     21  O   UNL     1       6.378   3.558  15.101  0.00  0.00    +0.000 OA
BRANCH  21  22
ATOM     22  C   UNL     1       6.048   4.305  13.938  0.00  0.00    +0.000 C 
ATOM     23  F   UNL     1       4.909   3.923  13.326  0.00  0.00    +0.000 F 
ATOM     24  F   UNL     1       5.905   5.604  14.289  0.00  0.00    +0.000 F 
ATOM     25  F   UNL     1       7.066   4.221  13.056  0.00  0.00    +0.000 F 
ENDBRANCH  21  22
ENDBRANCH  19  21
ENDBRANCH  13  15
ENDBRANCH   7  10
BRANCH   1  26
ATOM     26  C   UNL     1       0.340  12.725  18.995  0.00  0.00    +0.000 C 
BRANCH  26  28
ATOM     27  C   UNL     1       1.053  15.109  18.865  0.00  0.00    +0.000 C 
ATOM     28  C   UNL     1       1.550  13.675  19.142  0.00  0.00    +0.000 C 
ATOM     29  C   UNL     1       2.635  13.337  18.100  0.00  0.00    +0.000 C 
BRANCH  28  30
ATOM     30  C   UNL     1       2.155  13.599  20.557  0.00  0.00    +0.000 C 
BRANCH  30  31
ATOM     31  O   UNL     1       1.193  13.171  21.514  0.00  0.00    +0.000 OA
ATOM     32  H   UNL     1       0.396  13.717  21.399  0.00  0.00    +0.000 HD
ENDBRANCH  30  31
ENDBRANCH  28  30
ENDBRANCH  26  28
ENDBRANCH   1  26
TORSDOF 8
ENDMDL
MODEL 2
REMARK VINA RESULT:      -7.4      2.270      2.774
REMARK  Name = 
REMARK  10 active torsions:
REMARK  status: ('A' for Active; 'I' for Inactive)
REMARK    1  A    between atoms: C_1  and  C_2
REMARK    2  A    between atoms: C_2  and  C_3
REMARK    3  A    between atoms: C_2  and  C_4
REMARK    4  A    between atoms: C_2  and  C_6
REMARK    5  A    between atoms: C_4  and  O_5
REMARK    6  A    between atoms: C_6  and  N_7
REMARK    7  A    between atoms: C_13  and  C_14
REMARK    8  A    between atoms: C_17  and  C_18
REMARK    9  A    between atoms: C_22  and  O_23
REMARK   10  A    between atoms: O_23  and  C_24
REMARK                            x       y       z     vdW  Elec       q    Type
REMARK                         _______ _______ _______ _____ _____    ______ ____
ROOT
ATOM      1  N   UNL     1       0.548  11.369  18.733  0.00  0.00    +0.000 N 
ATOM      2  C   UNL     1       0.769  10.351  19.608  0.00  0.00    +0.000 C 
ATOM      3  N   UNL     1       0.591  10.375  20.881  0.00  0.00    +0.000 NA
ATOM      4  C   UNL     1       0.918   9.196  21.506  0.00  0.00    +0.000 C 
ATOM      5  O   UNL     1       0.838   8.978  22.710  0.00  0.00    +0.000 OA
ATOM      6  C   UNL     1       1.379   8.177  20.524  0.00  0.00    +0.000 C 
ATOM      7  C   UNL     1       1.751   6.945  20.892  0.00  0.00    +0.000 C 
ATOM      8  S   UNL     1       1.338   8.847  18.939  0.00  0.00    +0.000 S 
ATOM      9  H   UNL     1       1.163  11.354  17.925  0.00  0.00    +0.000 HD
ENDROOT
BRANCH   7  10
ATOM     10  C   UNL     1       2.180   5.939  19.991  0.00  0.00    +0.000 A 
ATOM     11  C   UNL     1       1.488   4.780  19.730  0.00  0.00    +0.000 A 
ATOM     12  S   UNL     1       2.287   3.927  18.479  0.00  0.00    +0.000 S 
ATOM     13  C   UNL     1       3.479   5.176  18.390  0.00  0.00    +0.000 A 
ATOM     14  N   UNL     1       3.325   6.149  19.266  0.00  0.00    +0.000 NA
BRANCH  13  15
ATOM     15  C   UNL     1       4.597   5.087  17.438  0.00  0.00    +0.000 A 
ATOM     16  C   UNL     1       4.717   4.034  16.518  0.00  0.00    +0.000 A 
ATOM     17  C   UNL     1       5.808   3.967  15.655  0.00  0.00    +0.000 A 
ATOM     18  C   UNL     1       6.801   4.942  15.717  0.00  0.00    +0.000 A 
ATOM     19  C   UNL     1       6.709   5.996  16.628  0.00  0.00    +0.000 A 
ATOM     20  C   UNL     1       5.582   6.091  17.445  0.00  0.00    +0.000 A 
BRANCH  19  21
ATOM     21  O   UNL     1       7.745   6.877  16.589  0.00  0.00    +0.000 OA
BRANCH  21  22
ATOM     22  C   UNL     1       7.867   7.874  17.595  0.00  0.00    +0.000 C 
ATOM     23  F   UNL     1       8.706   8.884  17.289  0.00  0.00    +0.000 F 
ATOM     24  F   UNL     1       6.646   8.413  17.815  0.00  0.00    +0.000 F 
ATOM     25  F   UNL     1       8.282   7.295  18.742  0.00  0.00    +0.000 F 
ENDBRANCH  21  22
ENDBRANCH  19  21
ENDBRANCH  13  15
ENDBRANCH   7  10
BRANCH   1  26
ATOM     26  C   UNL     1       0.187  12.697  19.207  0.00  0.00    +0.000 C 
BRANCH  26  28
ATOM     27  C   UNL     1       1.702  13.805  20.847  0.00  0.00    +0.000 C 
ATOM     28  C   UNL     1       1.418  13.623  19.342  0.00  0.00    +0.000 C 
ATOM     29  C   UNL     1       1.120  15.012  18.742  0.00  0.00    +0.000 C 
BRANCH  28  30
ATOM     30  C   UNL     1       2.654  13.018  18.649  0.00  0.00    +0.000 C 
BRANCH  30  31
ATOM     31  O   UNL     1       2.495  12.984  17.235  0.00  0.00    +0.000 OA
ATOM     32  H   UNL     1       2.677  13.877  16.894  0.00  0.00    +0.000 HD
ENDBRANCH  30  31
ENDBRANCH  28  30
ENDBRANCH  26  28
ENDBRANCH   1  26
TORSDOF 8
ENDMDL
MODEL 3
REMARK VINA RESULT:      -7.2      1.222      1.394
REMARK  Name = 
REMARK  10 active torsions:
REMARK  status: ('A' for Active; 'I' for Inactive)
REMARK    1  A    between atoms: C_1  and  C_2
REMARK    2  A    between atoms: C_2  and  C_3
REMARK    3  A    between atoms: C_2  and  C_4
REMARK    4  A    between atoms: C_2  and  C_6
REMARK    5  A    between atoms: C_4  and  O_5
REMARK    6  A    between atoms: C_6  and  N_7
REMARK    7  A    between atoms: C_13  and  C_14
REMARK    8  A    between atoms: C_17  and  C_18
REMARK    9  A    between atoms: C_22  and  O_23
REMARK   10  A    between atoms: O_23  and  C_24
REMARK                            x       y       z     vdW  Elec       q    Type
REMARK                         _______ _______ _______ _____ _____    ______ ____
ROOT
ATOM      1  N   UNL     1       0.700  11.145  18.325  0.00  0.00    +0.000 N 
ATOM      2  C   UNL     1       0.970  10.084  19.134  0.00  0.00    +0.000 C 
ATOM      3  N   UNL     1       0.812  10.026  20.408  0.00  0.00    +0.000 NA
ATOM      4  C   UNL     1       1.188   8.824  20.956  0.00  0.00    +0.000 C 
ATOM      5  O   UNL     1       1.135   8.531  22.145  0.00  0.00    +0.000 OA
ATOM      6  C   UNL     1       1.666   7.881  19.907  0.00  0.00    +0.000 C 
ATOM      7  C   UNL     1       2.085   6.643  20.194  0.00  0.00    +0.000 C 
ATOM      8  S   UNL     1       1.577   8.644  18.366  0.00  0.00    +0.000 S 
ATOM      9  H   UNL     1       1.302  11.199  17.508  0.00  0.00    +0.000 HD
ENDROOT
BRANCH   7  10
ATOM     10  C   UNL     1       2.531   5.708  19.228  0.00  0.00    +0.000 A 
ATOM     11  C   UNL     1       1.826   4.595  18.835  0.00  0.00    +0.000 A 
ATOM     12  S   UNL     1       2.661   3.833  17.551  0.00  0.00    +0.000 S 
ATOM     13  C   UNL     1       3.885   5.053  17.624  0.00  0.00    +0.000 A 
ATOM     14  N   UNL     1       3.713   5.950  18.574  0.00  0.00    +0.000 NA
BRANCH  13  15
ATOM     15  C   UNL     1       5.042   5.017  16.717  0.00  0.00    +0.000 A 
ATOM     16  C   UNL     1       6.071   5.970  16.775  0.00  0.00    +0.000 A 
ATOM     17  C   UNL     1       7.134   5.921  15.876  0.00  0.00    +0.000 A 
ATOM     18  C   UNL     1       7.169   4.931  14.897  0.00  0.00    +0.000 A 
ATOM     19  C   UNL     1       6.153   3.975  14.814  0.00  0.00    +0.000 A 
ATOM     20  C   UNL     1       5.125   3.992  15.757  0.00  0.00    +0.000 A 
BRANCH  19  21
ATOM     21  O   UNL     1       6.305   3.068  13.811  0.00  0.00    +0.000 OA
BRANCH  21  22
ATOM     22  C   UNL     1       5.806   3.356  12.512  0.00  0.00    +0.000 C 
ATOM     23  F   UNL     1       5.536   2.272  11.757  0.00  0.00    +0.000 F 
ATOM     24  F   UNL     1       4.656   4.058  12.640  0.00  0.00    +0.000 F 
ATOM     25  F   UNL     1       6.698   4.131  11.858  0.00  0.00    +0.000 F 
ENDBRANCH  21  22
ENDBRANCH  19  21
ENDBRANCH  13  15
ENDBRANCH   7  10
BRANCH   1  26
ATOM     26  C   UNL     1       0.304  12.430  18.883  0.00  0.00    +0.000 C 
BRANCH  26  28
ATOM     27  C   UNL     1       1.060  14.804  18.830  0.00  0.00    +0.000 C 
ATOM     28  C   UNL     1       1.515  13.360  19.124  0.00  0.00    +0.000 C 
ATOM     29  C   UNL     1       2.664  13.016  18.156  0.00  0.00    +0.000 C 
BRANCH  28  30
ATOM     30  C   UNL     1       2.019  13.260  20.577  0.00  0.00    +0.000 C 
BRANCH  30  31
ATOM     31  O   UNL     1       3.326  13.807  20.714  0.00  0.00    +0.000 OA
ATOM     32  H   UNL     1       3.284  14.512  21.383  0.00  0.00    +0.000 HD
ENDBRANCH  30  31
ENDBRANCH  28  30
ENDBRANCH  26  28
ENDBRANCH   1  26
TORSDOF 8
ENDMDL
MODEL 4
REMARK VINA RESULT:      -7.2      0.821      1.363
REMARK  Name = 
REMARK  10 active torsions:
REMARK  status: ('A' for Active; 'I' for Inactive)
REMARK    1  A    between atoms: C_1  and  C_2
REMARK    2  A    between atoms: C_2  and  C_3
REMARK    3  A    between atoms: C_2  and  C_4
REMARK    4  A    between atoms: C_2  and  C_6
REMARK    5  A    between atoms: C_4  and  O_5
REMARK    6  A    between atoms: C_6  and  N_7
REMARK    7  A    between atoms: C_13  and  C_14
REMARK    8  A    between atoms: C_17  and  C_18
REMARK    9  A    between atoms: C_22  and  O_23
REMARK   10  A    between atoms: O_23  and  C_24
REMARK                            x       y       z     vdW  Elec       q    Type
REMARK                         _______ _______ _______ _____ _____    ______ ____
ROOT
ATOM      1  N   UNL     1       1.028  11.172  18.492  0.00  0.00    +0.000 N 
ATOM      2  C   UNL     1       0.957  10.183  19.424  0.00  0.00    +0.000 C 
ATOM      3  N   UNL     1       0.420  10.259  20.589  0.00  0.00    +0.000 NA
ATOM      4  C   UNL     1       0.517   9.098  21.317  0.00  0.00    +0.000 C 
ATOM      5  O   UNL     1       0.087   8.926  22.452  0.00  0.00    +0.000 OA
ATOM      6  C   UNL     1       1.210   8.033  20.541  0.00  0.00    +0.000 C 
ATOM      7  C   UNL     1       1.423   6.808  21.038  0.00  0.00    +0.000 C 
ATOM      8  S   UNL     1       1.649   8.644  18.992  0.00  0.00    +0.000 S 
ATOM      9  H   UNL     1       1.850  11.114  17.897  0.00  0.00    +0.000 HD
ENDROOT
BRANCH   7  10
ATOM     10  C   UNL     1       2.062   5.760  20.329  0.00  0.00    +0.000 A 
ATOM     11  C   UNL     1       1.466   4.567  19.996  0.00  0.00    +0.000 A 
ATOM     12  S   UNL     1       2.543   3.661  19.023  0.00  0.00    +0.000 S 
ATOM     13  C   UNL     1       3.706   4.937  19.124  0.00  0.00    +0.000 A 
ATOM     14  N   UNL     1       3.340   5.958  19.873  0.00  0.00    +0.000 NA
BRANCH  13  15
ATOM     15  C   UNL     1       5.014   4.821  18.461  0.00  0.00    +0.000 A 
ATOM     16  C   UNL     1       6.194   5.314  19.040  0.00  0.00    +0.000 A 
ATOM     17  C   UNL     1       7.409   5.215  18.365  0.00  0.00    +0.000 A 
ATOM     18  C   UNL     1       7.452   4.641  17.097  0.00  0.00    +0.000 A 
ATOM     19  C   UNL     1       6.290   4.150  16.496  0.00  0.00    +0.000 A 
ATOM     20  C   UNL     1       5.089   4.195  17.205  0.00  0.00    +0.000 A 
BRANCH  19  21
ATOM     21  O   UNL     1       6.469   3.619  15.256  0.00  0.00    +0.000 OA
BRANCH  21  22
ATOM     22  C   UNL     1       6.348   4.445  14.106  0.00  0.00    +0.000 C 
ATOM     23  F   UNL     1       7.501   5.011  13.695  0.00  0.00    +0.000 F 
ATOM     24  F   UNL     1       5.877   3.694  13.085  0.00  0.00    +0.000 F 
ATOM     25  F   UNL     1       5.450   5.421  14.356  0.00  0.00    +0.000 F 
ENDBRANCH  21  22
ENDBRANCH  19  21
ENDBRANCH  13  15
ENDBRANCH   7  10
BRANCH   1  26
ATOM     26  C   UNL     1       0.588  12.524  18.801  0.00  0.00    +0.000 C 
BRANCH  26  28
ATOM     27  C   UNL     1       2.905  13.087  18.076  0.00  0.00    +0.000 C 
ATOM     28  C   UNL     1       1.774  13.484  19.047  0.00  0.00    +0.000 C 
ATOM     29  C   UNL     1       2.306  13.331  20.486  0.00  0.00    +0.000 C 
BRANCH  28  30
ATOM     30  C   UNL     1       1.369  14.951  18.802  0.00  0.00    +0.000 C 
BRANCH  30  31
ATOM     31  O   UNL     1       2.481  15.829  18.937  0.00  0.00    +0.000 OA
ATOM     32  H   UNL     1       2.326  16.595  18.358  0.00  0.00    +0.000 HD
ENDBRANCH  30  31
ENDBRANCH  28  30
ENDBRANCH  26  28
ENDBRANCH   1  26
TORSDOF 8
ENDMDL
MODEL 5
REMARK VINA RESULT:      -7.2      4.218      5.301
REMARK  Name = 
REMARK  10 active torsions:
REMARK  status: ('A' for Active; 'I' for Inactive)
REMARK    1  A    between atoms: C_1  and  C_2
REMARK    2  A    between atoms: C_2  and  C_3
REMARK    3  A    between atoms: C_2  and  C_4
REMARK    4  A    between atoms: C_2  and  C_6
REMARK    5  A    between atoms: C_4  and  O_5
REMARK    6  A    between atoms: C_6  and  N_7
REMARK    7  A    between atoms: C_13  and  C_14
REMARK    8  A    between atoms: C_17  and  C_18
REMARK    9  A    between atoms: C_22  and  O_23
REMARK   10  A    between atoms: O_23  and  C_24
REMARK                            x       y       z     vdW  Elec       q    Type
REMARK                         _______ _______ _______ _____ _____    ______ ____
ROOT
ATOM      1  N   UNL     1      -4.016  10.645  17.678  0.00  0.00    +0.000 N 
ATOM      2  C   UNL     1      -2.732  10.994  17.959  0.00  0.00    +0.000 C 
ATOM      3  N   UNL     1      -2.228  12.177  17.920  0.00  0.00    +0.000 NA
ATOM      4  C   UNL     1      -0.892  12.217  18.240  0.00  0.00    +0.000 C 
ATOM      5  O   UNL     1      -0.193  13.224  18.269  0.00  0.00    +0.000 OA
ATOM      6  C   UNL     1      -0.378  10.861  18.575  0.00  0.00    +0.000 C 
ATOM      7  C   UNL     1       0.896  10.644  18.923  0.00  0.00    +0.000 C 
ATOM      8  S   UNL     1      -1.654   9.713  18.439  0.00  0.00    +0.000 S 
ATOM      9  H   UNL     1      -4.109   9.708  17.294  0.00  0.00    +0.000 HD
ENDROOT
BRANCH   7  10
ATOM     10  C   UNL     1       1.424   9.374  19.266  0.00  0.00    +0.000 A 
ATOM     11  C   UNL     1       1.190   8.728  20.457  0.00  0.00    +0.000 A 
ATOM     12  S   UNL     1       1.893   7.170  20.390  0.00  0.00    +0.000 S 
ATOM     13  C   UNL     1       2.443   7.488  18.782  0.00  0.00    +0.000 A 
ATOM     14  N   UNL     1       2.164   8.695  18.332  0.00  0.00    +0.000 NA
BRANCH  13  15
ATOM     15  C   UNL     1       3.214   6.482  18.034  0.00  0.00    +0.000 A 
ATOM     16  C   UNL     1       4.261   6.831  17.168  0.00  0.00    +0.000 A 
ATOM     17  C   UNL     1       4.945   5.851  16.452  0.00  0.00    +0.000 A 
ATOM     18  C   UNL     1       4.575   4.515  16.579  0.00  0.00    +0.000 A 
ATOM     19  C   UNL     1       3.531   4.142  17.429  0.00  0.00    +0.000 A 
ATOM     20  C   UNL     1       2.893   5.122  18.191  0.00  0.00    +0.000 A 
BRANCH  19  21
ATOM     21  O   UNL     1       3.268   2.807  17.459  0.00  0.00    +0.000 OA
BRANCH  21  22
ATOM     22  C   UNL     1       3.481   2.069  18.655  0.00  0.00    +0.000 C 
ATOM     23  F   UNL     1       2.414   2.009  19.478  0.00  0.00    +0.000 F 
ATOM     24  F   UNL     1       3.810   0.800  18.323  0.00  0.00    +0.000 F 
ATOM     25  F   UNL     1       4.520   2.609  19.328  0.00  0.00    +0.000 F 
ENDBRANCH  21  22
ENDBRANCH  19  21
ENDBRANCH  13  15
ENDBRANCH   7  10
BRANCH   1  26
ATOM     26  C   UNL     1      -4.959  11.621  17.153  0.00  0.00    +0.000 C 
BRANCH  26  28
ATOM     27  C   UNL     1      -6.718  10.592  18.588  0.00  0.00    +0.000 C 
ATOM     28  C   UNL     1      -6.094  11.934  18.154  0.00  0.00    +0.000 C 
ATOM     29  C   UNL     1      -7.196  12.776  17.479  0.00  0.00    +0.000 C 
BRANCH  28  30
ATOM     30  C   UNL     1      -5.561  12.684  19.390  0.00  0.00    +0.000 C 
BRANCH  30  31
ATOM     31  O   UNL     1      -5.901  12.010  20.597  0.00  0.00    +0.000 OA
ATOM     32  H   UNL     1      -6.833  12.210  20.795  0.00  0.00    +0.000 HD
ENDBRANCH  30  31
ENDBRANCH  28  30
ENDBRANCH  26  28
ENDBRANCH   1  26
TORSDOF 8
ENDMDL
MODEL 6
REMARK VINA RESULT:      -7.1      0.907      1.304
REMARK  Name = 
REMARK  10 active torsions:
REMARK  status: ('A' for Active; 'I' for Inactive)
REMARK    1  A    between atoms: C_1  and  C_2
REMARK    2  A    between atoms: C_2  and  C_3
REMARK    3  A    between atoms: C_2  and  C_4
REMARK    4  A    between atoms: C_2  and  C_6
REMARK    5  A    between atoms: C_4  and  O_5
REMARK    6  A    between atoms: C_6  and  N_7
REMARK    7  A    between atoms: C_13  and  C_14
REMARK    8  A    between atoms: C_17  and  C_18
REMARK    9  A    between atoms: C_22  and  O_23
REMARK   10  A    between atoms: O_23  and  C_24
REMARK                            x       y       z     vdW  Elec       q    Type
REMARK                         _______ _______ _______ _____ _____    ______ ____
ROOT
ATOM      1  N   UNL     1       1.093  11.330  18.823  0.00  0.00    +0.000 N 
ATOM      2  C   UNL     1       1.024  10.294  19.702  0.00  0.00    +0.000 C 
ATOM      3  N   UNL     1       0.523  10.318  20.886  0.00  0.00    +0.000 NA
ATOM      4  C   UNL     1       0.612   9.118  21.547  0.00  0.00    +0.000 C 
ATOM      5  O   UNL     1       0.210   8.895  22.683  0.00  0.00    +0.000 OA
ATOM      6  C   UNL     1       1.256   8.081  20.694  0.00  0.00    +0.000 C 
ATOM      7  C   UNL     1       1.452   6.827  21.119  0.00  0.00    +0.000 C 
ATOM      8  S   UNL     1       1.665   8.765  19.169  0.00  0.00    +0.000 S 
ATOM      9  H   UNL     1       1.896  11.285  18.202  0.00  0.00    +0.000 HD
ENDROOT
BRANCH   7  10
ATOM     10  C   UNL     1       2.045   5.804  20.336  0.00  0.00    +0.000 A 
ATOM     11  C   UNL     1       1.386   4.685  19.886  0.00  0.00    +0.000 A 
ATOM     12  S   UNL     1       2.432   3.798  18.863  0.00  0.00    +0.000 S 
ATOM     13  C   UNL     1       3.669   4.983  19.102  0.00  0.00    +0.000 A 
ATOM     14  N   UNL     1       3.346   5.958  19.929  0.00  0.00    +0.000 NA
BRANCH  13  15
ATOM     15  C   UNL     1       4.986   4.841  18.463  0.00  0.00    +0.000 A 
ATOM     16  C   UNL     1       6.168   5.288  19.072  0.00  0.00    +0.000 A 
ATOM     17  C   UNL     1       7.393   5.165  18.419  0.00  0.00    +0.000 A 
ATOM     18  C   UNL     1       7.444   4.612  17.142  0.00  0.00    +0.000 A 
ATOM     19  C   UNL     1       6.280   4.166  16.511  0.00  0.00    +0.000 A 
ATOM     20  C   UNL     1       5.067   4.234  17.197  0.00  0.00    +0.000 A 
BRANCH  19  21
ATOM     21  O   UNL     1       6.468   3.651  15.265  0.00  0.00    +0.000 OA
BRANCH  21  22
ATOM     22  C   UNL     1       6.133   4.424  14.120  0.00  0.00    +0.000 C 
ATOM     23  F   UNL     1       5.332   5.480  14.368  0.00  0.00    +0.000 F 
ATOM     24  F   UNL     1       7.275   4.900  13.574  0.00  0.00    +0.000 F 
ATOM     25  F   UNL     1       5.534   3.627  13.209  0.00  0.00    +0.000 F 
ENDBRANCH  21  22
ENDBRANCH  19  21
ENDBRANCH  13  15
ENDBRANCH   7  10
BRANCH   1  26
ATOM     26  C   UNL     1       0.695  12.674  19.218  0.00  0.00    +0.000 C 
BRANCH  26  28
ATOM     27  C   UNL     1       2.540  13.717  20.529  0.00  0.00    +0.000 C 
ATOM     28  C   UNL     1       1.868  13.677  19.141  0.00  0.00    +0.000 C 
ATOM     29  C   UNL     1       1.350  15.094  18.821  0.00  0.00    +0.000 C 
BRANCH  28  30
ATOM     30  C   UNL     1       2.899  13.255  18.077  0.00  0.00    +0.000 C 
BRANCH  30  31
ATOM     31  O   UNL     1       3.963  14.196  17.978  0.00  0.00    +0.000 OA
ATOM     32  H   UNL     1       4.492  13.965  17.195  0.00  0.00    +0.000 HD
ENDBRANCH  30  31
ENDBRANCH  28  30
ENDBRANCH  26  28
ENDBRANCH   1  26
TORSDOF 8
ENDMDL
MODEL 7
REMARK VINA RESULT:      -7.1      3.733      4.569
REMARK  Name = 
REMARK  10 active torsions:
REMARK  status: ('A' for Active; 'I' for Inactive)
REMARK    1  A    between atoms: C_1  and  C_2
REMARK    2  A    between atoms: C_2  and  C_3
REMARK    3  A    between atoms: C_2  and  C_4
REMARK    4  A    between atoms: C_2  and  C_6
REMARK    5  A    between atoms: C_4  and  O_5
REMARK    6  A    between atoms: C_6  and  N_7
REMARK    7  A    between atoms: C_13  and  C_14
REMARK    8  A    between atoms: C_17  and  C_18
REMARK    9  A    between atoms: C_22  and  O_23
REMARK   10  A    between atoms: O_23  and  C_24
REMARK                            x       y       z     vdW  Elec       q    Type
REMARK                         _______ _______ _______ _____ _____    ______ ____
ROOT
ATOM      1  N   UNL     1      -1.614  13.236  21.836  0.00  0.00    +0.000 N 
ATOM      2  C   UNL     1      -1.022  12.031  22.055  0.00  0.00    +0.000 C 
ATOM      3  N   UNL     1      -0.980  11.381  23.163  0.00  0.00    +0.000 NA
ATOM      4  C   UNL     1      -0.294  10.195  23.081  0.00  0.00    +0.000 C 
ATOM      5  O   UNL     1      -0.115   9.406  24.003  0.00  0.00    +0.000 OA
ATOM      6  C   UNL     1       0.210   9.959  21.700  0.00  0.00    +0.000 C 
ATOM      7  C   UNL     1       0.908   8.866  21.370  0.00  0.00    +0.000 C 
ATOM      8  S   UNL     1      -0.251  11.274  20.689  0.00  0.00    +0.000 S 
ATOM      9  H   UNL     1      -1.158  13.791  21.116  0.00  0.00    +0.000 HD
ENDROOT
BRANCH   7  10
ATOM     10  C   UNL     1       1.392   8.593  20.066  0.00  0.00    +0.000 A 
ATOM     11  C   UNL     1       1.199   9.408  18.976  0.00  0.00    +0.000 A 
ATOM     12  S   UNL     1       2.072   8.774  17.647  0.00  0.00    +0.000 S 
ATOM     13  C   UNL     1       2.635   7.473  18.639  0.00  0.00    +0.000 A 
ATOM     14  N   UNL     1       2.169   7.479  19.872  0.00  0.00    +0.000 NA
BRANCH  13  15
ATOM     15  C   UNL     1       3.514   6.430  18.089  0.00  0.00    +0.000 A 
ATOM     16  C   UNL     1       4.341   6.655  16.978  0.00  0.00    +0.000 A 
ATOM     17  C   UNL     1       5.135   5.631  16.466  0.00  0.00    +0.000 A 
ATOM     18  C   UNL     1       5.094   4.366  17.048  0.00  0.00    +0.000 A 
ATOM     19  C   UNL     1       4.274   4.115  18.151  0.00  0.00    +0.000 A 
ATOM     20  C   UNL     1       3.531   5.162  18.697  0.00  0.00    +0.000 A 
BRANCH  19  21
ATOM     21  O   UNL     1       4.325   2.839  18.621  0.00  0.00    +0.000 OA
BRANCH  21  22
ATOM     22  C   UNL     1       3.226   1.962  18.410  0.00  0.00    +0.000 C 
ATOM     23  F   UNL     1       2.564   2.155  17.252  0.00  0.00    +0.000 F 
ATOM     24  F   UNL     1       3.688   0.690  18.406  0.00  0.00    +0.000 F 
ATOM     25  F   UNL     1       2.357   2.088  19.435  0.00  0.00    +0.000 F 
ENDBRANCH  21  22
ENDBRANCH  19  21
ENDBRANCH  13  15
ENDBRANCH   7  10
BRANCH   1  26
ATOM     26  C   UNL     1      -2.178  14.004  22.937  0.00  0.00    +0.000 C 
BRANCH  26  28
ATOM     27  C   UNL     1      -4.213  15.357  23.426  0.00  0.00    +0.000 C 
ATOM     28  C   UNL     1      -3.723  13.979  22.936  0.00  0.00    +0.000 C 
ATOM     29  C   UNL     1      -4.249  12.910  23.916  0.00  0.00    +0.000 C 
BRANCH  28  30
ATOM     30  C   UNL     1      -4.279  13.700  21.526  0.00  0.00    +0.000 C 
BRANCH  30  31
ATOM     31  O   UNL     1      -3.827  14.669  20.587  0.00  0.00    +0.000 OA
ATOM     32  H   UNL     1      -3.084  15.150  20.990  0.00  0.00    +0.000 HD
ENDBRANCH  30  31
ENDBRANCH  28  30
ENDBRANCH  26  28
ENDBRANCH   1  26
TORSDOF 8
ENDMDL
MODEL 8
REMARK VINA RESULT:      -7.1      2.710      4.566
REMARK  Name = 
REMARK  10 active torsions:
REMARK  status: ('A' for Active; 'I' for Inactive)
REMARK    1  A    between atoms: C_1  and  C_2
REMARK    2  A    between atoms: C_2  and  C_3
REMARK    3  A    between atoms: C_2  and  C_4
REMARK    4  A    between atoms: C_2  and  C_6
REMARK    5  A    between atoms: C_4  and  O_5
REMARK    6  A    between atoms: C_6  and  N_7
REMARK    7  A    between atoms: C_13  and  C_14
REMARK    8  A    between atoms: C_17  and  C_18
REMARK    9  A    between atoms: C_22  and  O_23
REMARK   10  A    between atoms: O_23  and  C_24
REMARK                            x       y       z     vdW  Elec       q    Type
REMARK                         _______ _______ _______ _____ _____    ______ ____
ROOT
ATOM      1  N   UNL     1       1.512   8.128  20.445  0.00  0.00    +0.000 N 
ATOM      2  C   UNL     1       1.889   6.859  20.131  0.00  0.00    +0.000 C 
ATOM      3  N   UNL     1       1.278   5.773  20.446  0.00  0.00    +0.000 NA
ATOM      4  C   UNL     1       1.909   4.637  20.000  0.00  0.00    +0.000 C 
ATOM      5  O   UNL     1       1.524   3.487  20.179  0.00  0.00    +0.000 OA
ATOM      6  C   UNL     1       3.143   4.972  19.237  0.00  0.00    +0.000 C 
ATOM      7  C   UNL     1       3.929   4.031  18.699  0.00  0.00    +0.000 C 
ATOM      8  S   UNL     1       3.341   6.681  19.186  0.00  0.00    +0.000 S 
ATOM      9  H   UNL     1       2.293   8.770  20.555  0.00  0.00    +0.000 HD
ENDROOT
BRANCH   7  10
ATOM     10  C   UNL     1       5.101   4.304  17.951  0.00  0.00    +0.000 A 
ATOM     11  C   UNL     1       6.329   4.584  18.500  0.00  0.00    +0.000 A 
ATOM     12  S   UNL     1       7.486   4.702  17.244  0.00  0.00    +0.000 S 
ATOM     13  C   UNL     1       6.253   4.364  16.079  0.00  0.00    +0.000 A 
ATOM     14  N   UNL     1       5.044   4.216  16.583  0.00  0.00    +0.000 NA
BRANCH  13  15
ATOM     15  C   UNL     1       6.565   4.315  14.642  0.00  0.00    +0.000 A 
ATOM     16  C   UNL     1       7.436   5.231  14.032  0.00  0.00    +0.000 A 
ATOM     17  C   UNL     1       7.680   5.173  12.662  0.00  0.00    +0.000 A 
ATOM     18  C   UNL     1       7.039   4.211  11.885  0.00  0.00    +0.000 A 
ATOM     19  C   UNL     1       6.161   3.293  12.467  0.00  0.00    +0.000 A 
ATOM     20  C   UNL     1       5.972   3.317  13.849  0.00  0.00    +0.000 A 
BRANCH  19  21
ATOM     21  O   UNL     1       5.599   2.411  11.597  0.00  0.00    +0.000 OA
BRANCH  21  22
ATOM     22  C   UNL     1       6.379   1.352  11.058  0.00  0.00    +0.000 C 
ATOM     23  F   UNL     1       6.465   1.343   9.712  0.00  0.00    +0.000 F 
ATOM     24  F   UNL     1       7.637   1.455  11.545  0.00  0.00    +0.000 F 
ATOM     25  F   UNL     1       5.867   0.172  11.469  0.00  0.00    +0.000 F 
ENDBRANCH  21  22
ENDBRANCH  19  21
ENDBRANCH  13  15
ENDBRANCH   7  10
BRANCH   1  26
ATOM     26  C   UNL     1       0.383   8.376  21.330  0.00  0.00    +0.000 C 
BRANCH  26  28
ATOM     27  C   UNL     1      -0.995  10.127  20.213  0.00  0.00    +0.000 C 
ATOM     28  C   UNL     1      -0.010   9.870  21.372  0.00  0.00    +0.000 C 
ATOM     29  C   UNL     1       1.228  10.763  21.153  0.00  0.00    +0.000 C 
BRANCH  28  30
ATOM     30  C   UNL     1      -0.677  10.237  22.712  0.00  0.00    +0.000 C 
BRANCH  30  31
ATOM     31  O   UNL     1       0.056   9.722  23.818  0.00  0.00    +0.000 OA
ATOM     32  H   UNL     1       0.394  10.479  24.329  0.00  0.00    +0.000 HD
ENDBRANCH  30  31
ENDBRANCH  28  30
ENDBRANCH  26  28
ENDBRANCH   1  26
TORSDOF 8
ENDMDL
MODEL 9
REMARK VINA RESULT:      -7.1      2.216      2.747
REMARK  Name = 
REMARK  10 active torsions:
REMARK  status: ('A' for Active; 'I' for Inactive)
REMARK    1  A    between atoms: C_1  and  C_2
REMARK    2  A    between atoms: C_2  and  C_3
REMARK    3  A    between atoms: C_2  and  C_4
REMARK    4  A    between atoms: C_2  and  C_6
REMARK    5  A    between atoms: C_4  and  O_5
REMARK    6  A    between atoms: C_6  and  N_7
REMARK    7  A    between atoms: C_13  and  C_14
REMARK    8  A    between atoms: C_17  and  C_18
REMARK    9  A    between atoms: C_22  and  O_23
REMARK   10  A    between atoms: O_23  and  C_24
REMARK                            x       y       z     vdW  Elec       q    Type
REMARK                         _______ _______ _______ _____ _____    ______ ____
ROOT
ATOM      1  N   UNL     1       0.768  11.408  18.584  0.00  0.00    +0.000 N 
ATOM      2  C   UNL     1       0.908  10.383  19.467  0.00  0.00    +0.000 C 
ATOM      3  N   UNL     1       0.653  10.408  20.727  0.00  0.00    +0.000 NA
ATOM      4  C   UNL     1       0.910   9.220  21.366  0.00  0.00    +0.000 C 
ATOM      5  O   UNL     1       0.750   9.001  22.561  0.00  0.00    +0.000 OA
ATOM      6  C   UNL     1       1.403   8.191  20.409  0.00  0.00    +0.000 C 
ATOM      7  C   UNL     1       1.719   6.949  20.795  0.00  0.00    +0.000 C 
ATOM      8  S   UNL     1       1.477   8.866  18.827  0.00  0.00    +0.000 S 
ATOM      9  H   UNL     1       1.431  11.378  17.815  0.00  0.00    +0.000 HD
ENDROOT
BRANCH   7  10
ATOM     10  C   UNL     1       2.175   5.933  19.917  0.00  0.00    +0.000 A 
ATOM     11  C   UNL     1       1.507   4.758  19.669  0.00  0.00    +0.000 A 
ATOM     12  S   UNL     1       2.334   3.896  18.444  0.00  0.00    +0.000 S 
ATOM     13  C   UNL     1       3.506   5.164  18.345  0.00  0.00    +0.000 A 
ATOM     14  N   UNL     1       3.325   6.150  19.201  0.00  0.00    +0.000 NA
BRANCH  13  15
ATOM     15  C   UNL     1       4.636   5.077  17.408  0.00  0.00    +0.000 A 
ATOM     16  C   UNL     1       4.786   4.007  16.511  0.00  0.00    +0.000 A 
ATOM     17  C   UNL     1       5.889   3.943  15.662  0.00  0.00    +0.000 A 
ATOM     18  C   UNL     1       6.862   4.938  15.715  0.00  0.00    +0.000 A 
ATOM     19  C   UNL     1       6.740   6.009  16.604  0.00  0.00    +0.000 A 
ATOM     20  C   UNL     1       5.602   6.099  17.406  0.00  0.00    +0.000 A 
BRANCH  19  21
ATOM     21  O   UNL     1       7.761   6.908  16.558  0.00  0.00    +0.000 OA
BRANCH  21  22
ATOM     22  C   UNL     1       7.896   7.880  17.587  0.00  0.00    +0.000 C 
ATOM     23  F   UNL     1       8.748   8.885  17.303  0.00  0.00    +0.000 F 
ATOM     24  F   UNL     1       6.682   8.429  17.819  0.00  0.00    +0.000 F 
ATOM     25  F   UNL     1       8.303   7.269  18.720  0.00  0.00    +0.000 F 
ENDBRANCH  21  22
ENDBRANCH  19  21
ENDBRANCH  13  15
ENDBRANCH   7  10
BRANCH   1  26
ATOM     26  C   UNL     1       0.414  12.745  19.040  0.00  0.00    +0.000 C 
BRANCH  26  28
ATOM     27  C   UNL     1       2.677  13.169  18.084  0.00  0.00    +0.000 C 
ATOM     28  C   UNL     1       1.640  13.684  19.104  0.00  0.00    +0.000 C 
ATOM     29  C   UNL     1       2.286  13.638  20.504  0.00  0.00    +0.000 C 
BRANCH  28  30
ATOM     30  C   UNL     1       1.253  15.136  18.765  0.00  0.00    +0.000 C 
BRANCH  30  31
ATOM     31  O   UNL     1      -0.031  15.468  19.282  0.00  0.00    +0.000 OA
ATOM     32  H   UNL     1      -0.687  14.912  18.827  0.00  0.00    +0.000 HD
ENDBRANCH  30  31
ENDBRANCH  28  30
ENDBRANCH  26  28
ENDBRANCH   1  26
TORSDOF 8
ENDMDL
