MODEL 1
REMARK VINA RESULT:      -8.7      0.000      0.000
REMARK  Name = 
REMARK  8 active torsions:
REMARK  status: ('A' for Active; 'I' for Inactive)
REMARK    1  A    between atoms: C_2  and  C_3
REMARK    2  A    between atoms: C_3  and  S_4
REMARK    3  A    between atoms: S_4  and  C_5
REMARK    4  A    between atoms: C_9  and  O_10
REMARK    5  A    between atoms: O_10  and  C_11
REMARK    6  A    between atoms: N_25  and  C_26
REMARK    7  A    between atoms: C_31  and  C_32
REMARK    8  A    between atoms: C_32  and  O_34
REMARK                            x       y       z     vdW  Elec       q    Type
REMARK                         _______ _______ _______ _____ _____    ______ ____
ROOT
ATOM      1  C   UNL     1      -0.441  11.249  20.228  0.00  0.00    +0.000 A 
ATOM      2  N   UNL     1       0.017  10.271  20.966  0.00  0.00    +0.000 NA
ATOM      3  C   UNL     1       0.735   9.486  20.097  0.00  0.00    +0.000 A 
ATOM      4  C   UNL     1       1.438   8.298  20.340  0.00  0.00    +0.000 A 
ATOM      5  C   UNL     1       2.189   7.739  19.299  0.00  0.00    +0.000 A 
ATOM      6  C   UNL     1       2.156   8.305  18.016  0.00  0.00    +0.000 A 
ATOM      7  C   UNL     1       1.465   9.496  17.756  0.00  0.00    +0.000 A 
ATOM      8  C   UNL     1       0.766  10.054  18.825  0.00  0.00    +0.000 A 
ATOM      9  N   UNL     1      -0.010  11.181  18.937  0.00  0.00    +0.000 N 
ATOM     10  H   UNL     1      -0.200  11.865  18.219  0.00  0.00    +0.000 HD
ENDROOT
BRANCH   1  11
ATOM     11  S   UNL     1      -1.360  12.595  20.777  0.00  0.00    +0.000 S 
BRANCH  11  12
ATOM     12  C   UNL     1      -1.894  11.925  22.384  0.00  0.00    +0.000 C 
BRANCH  12  14
ATOM     13  O   UNL     1      -2.542  13.455  24.115  0.00  0.00    +0.000 OA
ATOM     14  C   UNL     1      -2.850  12.903  23.058  0.00  0.00    +0.000 C 
ATOM     15  N   UNL     1      -4.067  13.062  22.409  0.00  0.00    +0.000 N 
ATOM     16  H   UNL     1      -4.286  12.404  21.660  0.00  0.00    +0.000 HD
BRANCH  15  17
ATOM     17  C   UNL     1      -5.066  14.028  22.736  0.00  0.00    +0.000 A 
ATOM     18  C   UNL     1      -5.018  15.327  22.216  0.00  0.00    +0.000 A 
ATOM     19  C   UNL     1      -6.029  16.259  22.470  0.00  0.00    +0.000 A 
ATOM     20  C   UNL     1      -7.127  15.903  23.246  0.00  0.00    +0.000 A 
ATOM     21  C   UNL     1      -7.198  14.620  23.781  0.00  0.00    +0.000 A 
ATOM     22  C   UNL     1      -6.174  13.688  23.541  0.00  0.00    +0.000 A 
BRANCH  22  23
ATOM     23  C   UNL     1      -6.341  12.367  24.195  0.00  0.00    +0.000 C 
ATOM     24  O   UNL     1      -7.319  11.659  24.027  0.00  0.00    +0.000 OA
BRANCH  23  25
ATOM     25  O   UNL     1      -5.326  12.040  25.018  0.00  0.00    +0.000 OA
ATOM     26  H   UNL     1      -4.643  11.454  24.628  0.00  0.00    +0.000 HD
ENDBRANCH  23  25
ENDBRANCH  22  23
ENDBRANCH  15  17
ENDBRANCH  12  14
ENDBRANCH  11  12
ENDBRANCH   1  11
BRANCH   5  27
ATOM     27  O   UNL     1       2.912   6.607  19.623  0.00  0.00    +0.000 OA
BRANCH  27  28
ATOM     28  C   UNL     1       2.865   5.497  18.794  0.00  0.00    +0.000 A 
ATOM     29  C   UNL     1       1.749   4.649  18.742  0.00  0.00    +0.000 A 
ATOM     30  C   UNL     1       1.776   3.495  17.967  0.00  0.00    +0.000 A 
ATOM     31  C   UNL     1       2.892   3.212  17.185  0.00  0.00    +0.000 A 
ATOM     32  C   UNL     1       3.977   4.099  17.134  0.00  0.00    +0.000 A 
ATOM     33  C   UNL     1       5.059   3.844  16.277  0.00  0.00    +0.000 A 
ATOM     34  C   UNL     1       6.124   4.738  16.181  0.00  0.00    +0.000 A 
ATOM     35  C   UNL     1       6.130   5.890  16.956  0.00  0.00    +0.000 A 
ATOM     36  C   UNL     1       5.073   6.148  17.835  0.00  0.00    +0.000 A 
ATOM     37  C   UNL     1       3.973   5.266  17.940  0.00  0.00    +0.000 A 
ENDBRANCH  27  28
ENDBRANCH   5  27
TORSDOF 8
ENDMDL
MODEL 2
REMARK VINA RESULT:      -8.7      4.386     11.576
REMARK  Name = 
REMARK  8 active torsions:
REMARK  status: ('A' for Active; 'I' for Inactive)
REMARK    1  A    between atoms: C_2  and  C_3
REMARK    2  A    between atoms: C_3  and  S_4
REMARK    3  A    between atoms: S_4  and  C_5
REMARK    4  A    between atoms: C_9  and  O_10
REMARK    5  A    between atoms: O_10  and  C_11
REMARK    6  A    between atoms: N_25  and  C_26
REMARK    7  A    between atoms: C_31  and  C_32
REMARK    8  A    between atoms: C_32  and  O_34
REMARK                            x       y       z     vdW  Elec       q    Type
REMARK                         _______ _______ _______ _____ _____    ______ ____
ROOT
ATOM      1  C   UNL     1       2.053   4.582  20.255  0.00  0.00    +0.000 A 
ATOM      2  N   UNL     1       1.605   5.532  21.036  0.00  0.00    +0.000 NA
ATOM      3  C   UNL     1       1.735   6.681  20.294  0.00  0.00    +0.000 A 
ATOM      4  C   UNL     1       1.418   8.003  20.635  0.00  0.00    +0.000 A 
ATOM      5  C   UNL     1       1.543   8.995  19.655  0.00  0.00    +0.000 A 
ATOM      6  C   UNL     1       2.068   8.684  18.392  0.00  0.00    +0.000 A 
ATOM      7  C   UNL     1       2.383   7.368  18.031  0.00  0.00    +0.000 A 
ATOM      8  C   UNL     1       2.203   6.395  19.013  0.00  0.00    +0.000 A 
ATOM      9  N   UNL     1       2.411   5.038  19.022  0.00  0.00    +0.000 N 
ATOM     10  H   UNL     1       2.726   4.464  18.254  0.00  0.00    +0.000 HD
ENDROOT
BRANCH   1  11
ATOM     11  S   UNL     1       2.076   2.899  20.610  0.00  0.00    +0.000 S 
BRANCH  11  12
ATOM     12  C   UNL     1       3.869   2.614  20.466  0.00  0.00    +0.000 C 
BRANCH  12  14
ATOM     13  O   UNL     1       3.745   2.382  18.081  0.00  0.00    +0.000 OA
ATOM     14  C   UNL     1       4.323   2.897  19.039  0.00  0.00    +0.000 C 
ATOM     15  N   UNL     1       5.437   3.721  18.939  0.00  0.00    +0.000 N 
ATOM     16  H   UNL     1       5.949   3.920  19.799  0.00  0.00    +0.000 HD
BRANCH  15  17
ATOM     17  C   UNL     1       5.963   4.268  17.730  0.00  0.00    +0.000 A 
ATOM     18  C   UNL     1       5.505   3.840  16.479  0.00  0.00    +0.000 A 
ATOM     19  C   UNL     1       5.959   4.421  15.290  0.00  0.00    +0.000 A 
ATOM     20  C   UNL     1       6.881   5.461  15.331  0.00  0.00    +0.000 A 
ATOM     21  C   UNL     1       7.358   5.903  16.561  0.00  0.00    +0.000 A 
ATOM     22  C   UNL     1       6.916   5.308  17.755  0.00  0.00    +0.000 A 
BRANCH  22  23
ATOM     23  C   UNL     1       7.525   5.837  19.001  0.00  0.00    +0.000 C 
ATOM     24  O   UNL     1       7.316   5.356  20.101  0.00  0.00    +0.000 OA
BRANCH  23  25
ATOM     25  O   UNL     1       8.302   6.920  18.804  0.00  0.00    +0.000 OA
ATOM     26  H   UNL     1       7.955   7.572  18.159  0.00  0.00    +0.000 HD
ENDBRANCH  23  25
ENDBRANCH  22  23
ENDBRANCH  15  17
ENDBRANCH  12  14
ENDBRANCH  11  12
ENDBRANCH   1  11
BRANCH   5  27
ATOM     27  O   UNL     1       1.150  10.264  20.035  0.00  0.00    +0.000 OA
BRANCH  27  28
ATOM     28  C   UNL     1      -0.095  10.743  19.659  0.00  0.00    +0.000 A 
ATOM     29  C   UNL     1      -0.629  10.520  18.381  0.00  0.00    +0.000 A 
ATOM     30  C   UNL     1      -1.840  11.093  18.013  0.00  0.00    +0.000 A 
ATOM     31  C   UNL     1      -2.563  11.839  18.939  0.00  0.00    +0.000 A 
ATOM     32  C   UNL     1      -2.106  11.986  20.257  0.00  0.00    +0.000 A 
ATOM     33  C   UNL     1      -2.886  12.670  21.203  0.00  0.00    +0.000 A 
ATOM     34  C   UNL     1      -2.467  12.786  22.528  0.00  0.00    +0.000 A 
ATOM     35  C   UNL     1      -1.253  12.236  22.919  0.00  0.00    +0.000 A 
ATOM     36  C   UNL     1      -0.451  11.574  21.984  0.00  0.00    +0.000 A 
ATOM     37  C   UNL     1      -0.858  11.428  20.638  0.00  0.00    +0.000 A 
ENDBRANCH  27  28
ENDBRANCH   5  27
TORSDOF 8
ENDMDL
MODEL 3
REMARK VINA RESULT:      -8.7      1.495      2.274
REMARK  Name = 
REMARK  8 active torsions:
REMARK  status: ('A' for Active; 'I' for Inactive)
REMARK    1  A    between atoms: C_2  and  C_3
REMARK    2  A    between atoms: C_3  and  S_4
REMARK    3  A    between atoms: S_4  and  C_5
REMARK    4  A    between atoms: C_9  and  O_10
REMARK    5  A    between atoms: O_10  and  C_11
REMARK    6  A    between atoms: N_25  and  C_26
REMARK    7  A    between atoms: C_31  and  C_32
REMARK    8  A    between atoms: C_32  and  O_34
REMARK                            x       y       z     vdW  Elec       q    Type
REMARK                         _______ _______ _______ _____ _____    ______ ____
ROOT
ATOM      1  C   UNL     1      -0.378  11.138  20.650  0.00  0.00    +0.000 A 
ATOM      2  N   UNL     1       0.182  10.167  21.324  0.00  0.00    +0.000 NA
ATOM      3  C   UNL     1       0.822   9.409  20.373  0.00  0.00    +0.000 A 
ATOM      4  C   UNL     1       1.577   8.237  20.526  0.00  0.00    +0.000 A 
ATOM      5  C   UNL     1       2.224   7.707  19.404  0.00  0.00    +0.000 A 
ATOM      6  C   UNL     1       2.039   8.283  18.138  0.00  0.00    +0.000 A 
ATOM      7  C   UNL     1       1.294   9.457  17.968  0.00  0.00    +0.000 A 
ATOM      8  C   UNL     1       0.700   9.987  19.112  0.00  0.00    +0.000 A 
ATOM      9  N   UNL     1      -0.088  11.093  19.319  0.00  0.00    +0.000 N 
ATOM     10  H   UNL     1      -0.370  11.778  18.634  0.00  0.00    +0.000 HD
ENDROOT
BRANCH   1  11
ATOM     11  S   UNL     1      -1.266  12.455  21.310  0.00  0.00    +0.000 S 
BRANCH  11  12
ATOM     12  C   UNL     1      -2.053  11.584  22.702  0.00  0.00    +0.000 C 
BRANCH  12  14
ATOM     13  O   UNL     1      -3.782  12.103  24.283  0.00  0.00    +0.000 OA
ATOM     14  C   UNL     1      -3.002  12.529  23.431  0.00  0.00    +0.000 C 
ATOM     15  N   UNL     1      -2.931  13.853  23.016  0.00  0.00    +0.000 N 
ATOM     16  H   UNL     1      -2.397  14.048  22.169  0.00  0.00    +0.000 HD
BRANCH  15  17
ATOM     17  C   UNL     1      -3.587  14.957  23.639  0.00  0.00    +0.000 A 
ATOM     18  C   UNL     1      -4.877  15.345  23.258  0.00  0.00    +0.000 A 
ATOM     19  C   UNL     1      -5.558  16.378  23.911  0.00  0.00    +0.000 A 
ATOM     20  C   UNL     1      -4.961  17.042  24.977  0.00  0.00    +0.000 A 
ATOM     21  C   UNL     1      -3.677  16.681  25.374  0.00  0.00    +0.000 A 
ATOM     22  C   UNL     1      -2.984  15.655  24.707  0.00  0.00    +0.000 A 
BRANCH  22  23
ATOM     23  C   UNL     1      -1.608  15.386  25.193  0.00  0.00    +0.000 C 
ATOM     24  O   UNL     1      -0.677  15.132  24.450  0.00  0.00    +0.000 OA
BRANCH  23  25
ATOM     25  O   UNL     1      -1.496  15.417  26.535  0.00  0.00    +0.000 OA
ATOM     26  H   UNL     1      -1.092  16.231  26.903  0.00  0.00    +0.000 HD
ENDBRANCH  23  25
ENDBRANCH  22  23
ENDBRANCH  15  17
ENDBRANCH  12  14
ENDBRANCH  11  12
ENDBRANCH   1  11
BRANCH   5  27
ATOM     27  O   UNL     1       3.006   6.592  19.635  0.00  0.00    +0.000 OA
BRANCH  27  28
ATOM     28  C   UNL     1       2.909   5.493  18.796  0.00  0.00    +0.000 A 
ATOM     29  C   UNL     1       1.808   4.625  18.824  0.00  0.00    +0.000 A 
ATOM     30  C   UNL     1       1.789   3.483  18.031  0.00  0.00    +0.000 A 
ATOM     31  C   UNL     1       2.839   3.233  17.153  0.00  0.00    +0.000 A 
ATOM     32  C   UNL     1       3.900   4.142  17.025  0.00  0.00    +0.000 A 
ATOM     33  C   UNL     1       4.910   3.919  16.075  0.00  0.00    +0.000 A 
ATOM     34  C   UNL     1       5.947   4.835  15.904  0.00  0.00    +0.000 A 
ATOM     35  C   UNL     1       5.999   5.976  16.695  0.00  0.00    +0.000 A 
ATOM     36  C   UNL     1       5.016   6.201  17.664  0.00  0.00    +0.000 A 
ATOM     37  C   UNL     1       3.944   5.297  17.847  0.00  0.00    +0.000 A 
ENDBRANCH  27  28
ENDBRANCH   5  27
TORSDOF 8
ENDMDL
MODEL 4
REMARK VINA RESULT:      -8.6      3.555      5.467
REMARK  Name = 
REMARK  8 active torsions:
REMARK  status: ('A' for Active; 'I' for Inactive)
REMARK    1  A    between atoms: C_2  and  C_3
REMARK    2  A    between atoms: C_3  and  S_4
REMARK    3  A    between atoms: S_4  and  C_5
REMARK    4  A    between atoms: C_9  and  O_10
REMARK    5  A    between atoms: O_10  and  C_11
REMARK    6  A    between atoms: N_25  and  C_26
REMARK    7  A    between atoms: C_31  and  C_32
REMARK    8  A    between atoms: C_32  and  O_34
REMARK                            x       y       z     vdW  Elec       q    Type
REMARK                         _______ _______ _______ _____ _____    ______ ____
ROOT
ATOM      1  C   UNL     1      -0.817  11.116  20.189  0.00  0.00    +0.000 A 
ATOM      2  N   UNL     1      -0.348  10.170  20.962  0.00  0.00    +0.000 NA
ATOM      3  C   UNL     1       0.494   9.446  20.153  0.00  0.00    +0.000 A 
ATOM      4  C   UNL     1       1.262   8.311  20.452  0.00  0.00    +0.000 A 
ATOM      5  C   UNL     1       2.132   7.816  19.474  0.00  0.00    +0.000 A 
ATOM      6  C   UNL     1       2.160   8.385  18.192  0.00  0.00    +0.000 A 
ATOM      7  C   UNL     1       1.405   9.523  17.878  0.00  0.00    +0.000 A 
ATOM      8  C   UNL     1       0.583  10.021  18.887  0.00  0.00    +0.000 A 
ATOM      9  N   UNL     1      -0.282  11.087  18.937  0.00  0.00    +0.000 N 
ATOM     10  H   UNL     1      -0.464  11.759  18.206  0.00  0.00    +0.000 HD
ENDROOT
BRANCH   1  11
ATOM     11  S   UNL     1      -1.875  12.387  20.663  0.00  0.00    +0.000 S 
BRANCH  11  12
ATOM     12  C   UNL     1      -0.770  13.242  21.831  0.00  0.00    +0.000 C 
BRANCH  12  14
ATOM     13  O   UNL     1       0.016  15.506  21.946  0.00  0.00    +0.000 OA
ATOM     14  C   UNL     1      -0.301  14.560  21.225  0.00  0.00    +0.000 C 
ATOM     15  N   UNL     1      -0.315  14.596  19.836  0.00  0.00    +0.000 N 
ATOM     16  H   UNL     1      -0.786  13.829  19.355  0.00  0.00    +0.000 HD
BRANCH  15  17
ATOM     17  C   UNL     1       0.223  15.639  19.024  0.00  0.00    +0.000 A 
ATOM     18  C   UNL     1      -0.562  16.728  18.625  0.00  0.00    +0.000 A 
ATOM     19  C   UNL     1      -0.027  17.792  17.892  0.00  0.00    +0.000 A 
ATOM     20  C   UNL     1       1.320  17.795  17.550  0.00  0.00    +0.000 A 
ATOM     21  C   UNL     1       2.124  16.722  17.928  0.00  0.00    +0.000 A 
ATOM     22  C   UNL     1       1.583  15.644  18.649  0.00  0.00    +0.000 A 
BRANCH  22  23
ATOM     23  C   UNL     1       2.527  14.542  18.961  0.00  0.00    +0.000 C 
ATOM     24  O   UNL     1       3.659  14.731  19.370  0.00  0.00    +0.000 OA
BRANCH  23  25
ATOM     25  O   UNL     1       2.024  13.317  18.717  0.00  0.00    +0.000 OA
ATOM     26  H   UNL     1       1.149  13.304  18.275  0.00  0.00    +0.000 HD
ENDBRANCH  23  25
ENDBRANCH  22  23
ENDBRANCH  15  17
ENDBRANCH  12  14
ENDBRANCH  11  12
ENDBRANCH   1  11
BRANCH   5  27
ATOM     27  O   UNL     1       2.909   6.739  19.855  0.00  0.00    +0.000 OA
BRANCH  27  28
ATOM     28  C   UNL     1       3.270   5.782  18.919  0.00  0.00    +0.000 A 
ATOM     29  C   UNL     1       4.360   5.955  18.053  0.00  0.00    +0.000 A 
ATOM     30  C   UNL     1       4.634   5.015  17.067  0.00  0.00    +0.000 A 
ATOM     31  C   UNL     1       3.864   3.859  16.980  0.00  0.00    +0.000 A 
ATOM     32  C   UNL     1       2.837   3.608  17.903  0.00  0.00    +0.000 A 
ATOM     33  C   UNL     1       2.124   2.400  17.856  0.00  0.00    +0.000 A 
ATOM     34  C   UNL     1       1.132   2.116  18.792  0.00  0.00    +0.000 A 
ATOM     35  C   UNL     1       0.827   3.046  19.778  0.00  0.00    +0.000 A 
ATOM     36  C   UNL     1       1.509   4.266  19.825  0.00  0.00    +0.000 A 
ATOM     37  C   UNL     1       2.530   4.573  18.897  0.00  0.00    +0.000 A 
ENDBRANCH  27  28
ENDBRANCH   5  27
TORSDOF 8
ENDMDL
MODEL 5
REMARK VINA RESULT:      -8.6      1.825      2.991
REMARK  Name = 
REMARK  8 active torsions:
REMARK  status: ('A' for Active; 'I' for Inactive)
REMARK    1  A    between atoms: C_2  and  C_3
REMARK    2  A    between atoms: C_3  and  S_4
REMARK    3  A    between atoms: S_4  and  C_5
REMARK    4  A    between atoms: C_9  and  O_10
REMARK    5  A    between atoms: O_10  and  C_11
REMARK    6  A    between atoms: N_25  and  C_26
REMARK    7  A    between atoms: C_31  and  C_32
REMARK    8  A    between atoms: C_32  and  O_34
REMARK                            x       y       z     vdW  Elec       q    Type
REMARK                         _______ _______ _______ _____ _____    ______ ____
ROOT
ATOM      1  C   UNL     1       0.178  12.129  19.862  0.00  0.00    +0.000 A 
ATOM      2  N   UNL     1       0.405  11.169  20.721  0.00  0.00    +0.000 NA
ATOM      3  C   UNL     1       0.931  10.147  19.969  0.00  0.00    +0.000 A 
ATOM      4  C   UNL     1       1.351   8.870  20.369  0.00  0.00    +0.000 A 
ATOM      5  C   UNL     1       1.959   8.039  19.421  0.00  0.00    +0.000 A 
ATOM      6  C   UNL     1       2.056   8.441  18.080  0.00  0.00    +0.000 A 
ATOM      7  C   UNL     1       1.648   9.715  17.665  0.00  0.00    +0.000 A 
ATOM      8  C   UNL     1       1.089  10.538  18.641  0.00  0.00    +0.000 A 
ATOM      9  N   UNL     1       0.584  11.814  18.600  0.00  0.00    +0.000 N 
ATOM     10  H   UNL     1       0.552  12.432  17.803  0.00  0.00    +0.000 HD
ENDROOT
BRANCH   1  11
ATOM     11  S   UNL     1      -0.419  13.701  20.225  0.00  0.00    +0.000 S 
BRANCH  11  12
ATOM     12  C   UNL     1       0.049  13.772  21.984  0.00  0.00    +0.000 C 
BRANCH  12  14
ATOM     13  O   UNL     1      -1.266  14.313  23.917  0.00  0.00    +0.000 OA
ATOM     14  C   UNL     1      -1.202  13.697  22.853  0.00  0.00    +0.000 C 
ATOM     15  N   UNL     1      -2.197  12.861  22.363  0.00  0.00    +0.000 N 
ATOM     16  H   UNL     1      -1.951  12.250  21.583  0.00  0.00    +0.000 HD
BRANCH  15  17
ATOM     17  C   UNL     1      -3.517  12.738  22.892  0.00  0.00    +0.000 A 
ATOM     18  C   UNL     1      -3.734  12.410  24.236  0.00  0.00    +0.000 A 
ATOM     19  C   UNL     1      -5.020  12.359  24.783  0.00  0.00    +0.000 A 
ATOM     20  C   UNL     1      -6.126  12.650  23.992  0.00  0.00    +0.000 A 
ATOM     21  C   UNL     1      -5.940  12.974  22.651  0.00  0.00    +0.000 A 
ATOM     22  C   UNL     1      -4.649  13.008  22.095  0.00  0.00    +0.000 A 
BRANCH  22  23
ATOM     23  C   UNL     1      -4.580  13.326  20.648  0.00  0.00    +0.000 C 
ATOM     24  O   UNL     1      -5.045  12.603  19.784  0.00  0.00    +0.000 OA
BRANCH  23  25
ATOM     25  O   UNL     1      -3.927  14.473  20.379  0.00  0.00    +0.000 OA
ATOM     26  H   UNL     1      -4.465  15.171  19.950  0.00  0.00    +0.000 HD
ENDBRANCH  23  25
ENDBRANCH  22  23
ENDBRANCH  15  17
ENDBRANCH  12  14
ENDBRANCH  11  12
ENDBRANCH   1  11
BRANCH   5  27
ATOM     27  O   UNL     1       2.412   6.823  19.894  0.00  0.00    +0.000 OA
BRANCH  27  28
ATOM     28  C   UNL     1       2.930   5.888  19.011  0.00  0.00    +0.000 A 
ATOM     29  C   UNL     1       4.062   6.147  18.225  0.00  0.00    +0.000 A 
ATOM     30  C   UNL     1       4.496   5.219  17.286  0.00  0.00    +0.000 A 
ATOM     31  C   UNL     1       3.845   3.995  17.170  0.00  0.00    +0.000 A 
ATOM     32  C   UNL     1       2.778   3.665  18.019  0.00  0.00    +0.000 A 
ATOM     33  C   UNL     1       2.185   2.395  17.948  0.00  0.00    +0.000 A 
ATOM     34  C   UNL     1       1.154   2.036  18.815  0.00  0.00    +0.000 A 
ATOM     35  C   UNL     1       0.690   2.950  19.752  0.00  0.00    +0.000 A 
ATOM     36  C   UNL     1       1.251   4.229  19.820  0.00  0.00    +0.000 A 
ATOM     37  C   UNL     1       2.309   4.614  18.963  0.00  0.00    +0.000 A 
ENDBRANCH  27  28
ENDBRANCH   5  27
TORSDOF 8
ENDMDL
MODEL 6
REMARK VINA RESULT:      -8.6      3.017      4.341
REMARK  Name = 
REMARK  8 active torsions:
REMARK  status: ('A' for Active; 'I' for Inactive)
REMARK    1  A    between atoms: C_2  and  C_3
REMARK    2  A    between atoms: C_3  and  S_4
REMARK    3  A    between atoms: S_4  and  C_5
REMARK    4  A    between atoms: C_9  and  O_10
REMARK    5  A    between atoms: O_10  and  C_11
REMARK    6  A    between atoms: N_25  and  C_26
REMARK    7  A    between atoms: C_31  and  C_32
REMARK    8  A    between atoms: C_32  and  O_34
REMARK                            x       y       z     vdW  Elec       q    Type
REMARK                         _______ _______ _______ _____ _____    ______ ____
ROOT
ATOM      1  C   UNL     1       0.236  11.201  21.185  0.00  0.00    +0.000 A 
ATOM      2  N   UNL     1       0.631  10.135  21.834  0.00  0.00    +0.000 NA
ATOM      3  C   UNL     1       1.114   9.295  20.859  0.00  0.00    +0.000 A 
ATOM      4  C   UNL     1       1.657   8.008  20.979  0.00  0.00    +0.000 A 
ATOM      5  C   UNL     1       2.184   7.395  19.837  0.00  0.00    +0.000 A 
ATOM      6  C   UNL     1       2.080   8.017  18.584  0.00  0.00    +0.000 A 
ATOM      7  C   UNL     1       1.546   9.305  18.446  0.00  0.00    +0.000 A 
ATOM      8  C   UNL     1       1.072   9.909  19.609  0.00  0.00    +0.000 A 
ATOM      9  N   UNL     1       0.491  11.130  19.849  0.00  0.00    +0.000 N 
ATOM     10  H   UNL     1       0.319  11.866  19.180  0.00  0.00    +0.000 HD
ENDROOT
BRANCH   1  11
ATOM     11  S   UNL     1      -0.400  12.639  21.883  0.00  0.00    +0.000 S 
BRANCH  11  12
ATOM     12  C   UNL     1      -2.123  12.480  21.314  0.00  0.00    +0.000 C 
BRANCH  12  14
ATOM     13  O   UNL     1      -1.529  13.209  19.107  0.00  0.00    +0.000 OA
ATOM     14  C   UNL     1      -2.158  12.403  19.792  0.00  0.00    +0.000 C 
ATOM     15  N   UNL     1      -2.976  11.402  19.282  0.00  0.00    +0.000 N 
ATOM     16  H   UNL     1      -3.600  10.931  19.938  0.00  0.00    +0.000 HD
BRANCH  15  17
ATOM     17  C   UNL     1      -3.061  11.013  17.912  0.00  0.00    +0.000 A 
ATOM     18  C   UNL     1      -2.031  10.292  17.295  0.00  0.00    +0.000 A 
ATOM     19  C   UNL     1      -2.135   9.842  15.975  0.00  0.00    +0.000 A 
ATOM     20  C   UNL     1      -3.289  10.095  15.242  0.00  0.00    +0.000 A 
ATOM     21  C   UNL     1      -4.326  10.815  15.827  0.00  0.00    +0.000 A 
ATOM     22  C   UNL     1      -4.215  11.284  17.147  0.00  0.00    +0.000 A 
BRANCH  22  23
ATOM     23  C   UNL     1      -5.369  12.072  17.649  0.00  0.00    +0.000 C 
ATOM     24  O   UNL     1      -5.894  12.966  17.008  0.00  0.00    +0.000 OA
BRANCH  23  25
ATOM     25  O   UNL     1      -5.756  11.727  18.892  0.00  0.00    +0.000 OA
ATOM     26  H   UNL     1      -5.885  10.767  19.039  0.00  0.00    +0.000 HD
ENDBRANCH  23  25
ENDBRANCH  22  23
ENDBRANCH  15  17
ENDBRANCH  12  14
ENDBRANCH  11  12
ENDBRANCH   1  11
BRANCH   5  27
ATOM     27  O   UNL     1       2.766   6.158  20.036  0.00  0.00    +0.000 OA
BRANCH  27  28
ATOM     28  C   UNL     1       2.687   5.190  19.046  0.00  0.00    +0.000 A 
ATOM     29  C   UNL     1       1.529   4.429  18.834  0.00  0.00    +0.000 A 
ATOM     30  C   UNL     1       1.520   3.406  17.893  0.00  0.00    +0.000 A 
ATOM     31  C   UNL     1       2.646   3.178  17.108  0.00  0.00    +0.000 A 
ATOM     32  C   UNL     1       3.780   3.995  17.223  0.00  0.00    +0.000 A 
ATOM     33  C   UNL     1       4.877   3.807  16.367  0.00  0.00    +0.000 A 
ATOM     34  C   UNL     1       5.993   4.639  16.439  0.00  0.00    +0.000 A 
ATOM     35  C   UNL     1       6.035   5.659  17.381  0.00  0.00    +0.000 A 
ATOM     36  C   UNL     1       4.962   5.844  18.259  0.00  0.00    +0.000 A 
ATOM     37  C   UNL     1       3.811   5.025  18.198  0.00  0.00    +0.000 A 
ENDBRANCH  27  28
ENDBRANCH   5  27
TORSDOF 8
ENDMDL
MODEL 7
REMARK VINA RESULT:      -8.6      1.696      2.785
REMARK  Name = 
REMARK  8 active torsions:
REMARK  status: ('A' for Active; 'I' for Inactive)
REMARK    1  A    between atoms: C_2  and  C_3
REMARK    2  A    between atoms: C_3  and  S_4
REMARK    3  A    between atoms: S_4  and  C_5
REMARK    4  A    between atoms: C_9  and  O_10
REMARK    5  A    between atoms: O_10  and  C_11
REMARK    6  A    between atoms: N_25  and  C_26
REMARK    7  A    between atoms: C_31  and  C_32
REMARK    8  A    between atoms: C_32  and  O_34
REMARK                            x       y       z     vdW  Elec       q    Type
REMARK                         _______ _______ _______ _____ _____    ______ ____
ROOT
ATOM      1  C   UNL     1      -0.486  11.342  19.630  0.00  0.00    +0.000 A 
ATOM      2  N   UNL     1      -0.085  10.469  20.518  0.00  0.00    +0.000 NA
ATOM      3  C   UNL     1       0.695   9.586  19.810  0.00  0.00    +0.000 A 
ATOM      4  C   UNL     1       1.377   8.444  20.252  0.00  0.00    +0.000 A 
ATOM      5  C   UNL     1       2.201   7.764  19.347  0.00  0.00    +0.000 A 
ATOM      6  C   UNL     1       2.263   8.164  18.004  0.00  0.00    +0.000 A 
ATOM      7  C   UNL     1       1.594   9.306  17.546  0.00  0.00    +0.000 A 
ATOM      8  C   UNL     1       0.819   9.989  18.481  0.00  0.00    +0.000 A 
ATOM      9  N   UNL     1       0.037  11.115  18.393  0.00  0.00    +0.000 N 
ATOM     10  H   UNL     1      -0.098  11.701  17.583  0.00  0.00    +0.000 HD
ENDROOT
BRANCH   1  11
ATOM     11  S   UNL     1      -1.442  12.739  19.936  0.00  0.00    +0.000 S 
BRANCH  11  12
ATOM     12  C   UNL     1      -1.511  12.631  21.753  0.00  0.00    +0.000 C 
BRANCH  12  14
ATOM     13  O   UNL     1      -2.869  14.386  22.666  0.00  0.00    +0.000 OA
ATOM     14  C   UNL     1      -2.822  13.227  22.255  0.00  0.00    +0.000 C 
ATOM     15  N   UNL     1      -3.898  12.348  22.244  0.00  0.00    +0.000 N 
ATOM     16  H   UNL     1      -3.693  11.363  22.075  0.00  0.00    +0.000 HD
BRANCH  15  17
ATOM     17  C   UNL     1      -5.258  12.693  22.506  0.00  0.00    +0.000 A 
ATOM     18  C   UNL     1      -5.675  13.087  23.783  0.00  0.00    +0.000 A 
ATOM     19  C   UNL     1      -6.988  13.498  24.035  0.00  0.00    +0.000 A 
ATOM     20  C   UNL     1      -7.917  13.534  23.001  0.00  0.00    +0.000 A 
ATOM     21  C   UNL     1      -7.532  13.142  21.722  0.00  0.00    +0.000 A 
ATOM     22  C   UNL     1      -6.217  12.712  21.472  0.00  0.00    +0.000 A 
BRANCH  22  23
ATOM     23  C   UNL     1      -5.936  12.282  20.080  0.00  0.00    +0.000 C 
ATOM     24  O   UNL     1      -6.462  11.311  19.564  0.00  0.00    +0.000 OA
BRANCH  23  25
ATOM     25  O   UNL     1      -5.019  13.045  19.455  0.00  0.00    +0.000 OA
ATOM     26  H   UNL     1      -4.086  12.856  19.692  0.00  0.00    +0.000 HD
ENDBRANCH  23  25
ENDBRANCH  22  23
ENDBRANCH  15  17
ENDBRANCH  12  14
ENDBRANCH  11  12
ENDBRANCH   1  11
BRANCH   5  27
ATOM     27  O   UNL     1       2.897   6.689  19.864  0.00  0.00    +0.000 OA
BRANCH  27  28
ATOM     28  C   UNL     1       3.327   5.676  19.021  0.00  0.00    +0.000 A 
ATOM     29  C   UNL     1       4.512   5.773  18.277  0.00  0.00    +0.000 A 
ATOM     30  C   UNL     1       4.861   4.776  17.374  0.00  0.00    +0.000 A 
ATOM     31  C   UNL     1       4.066   3.640  17.255  0.00  0.00    +0.000 A 
ATOM     32  C   UNL     1       2.936   3.466  18.067  0.00  0.00    +0.000 A 
ATOM     33  C   UNL     1       2.191   2.278  17.997  0.00  0.00    +0.000 A 
ATOM     34  C   UNL     1       1.091   2.071  18.828  0.00  0.00    +0.000 A 
ATOM     35  C   UNL     1       0.710   3.058  19.728  0.00  0.00    +0.000 A 
ATOM     36  C   UNL     1       1.425   4.259  19.793  0.00  0.00    +0.000 A 
ATOM     37  C   UNL     1       2.553   4.489  18.973  0.00  0.00    +0.000 A 
ENDBRANCH  27  28
ENDBRANCH   5  27
TORSDOF 8
ENDMDL
MODEL 8
REMARK VINA RESULT:      -8.5      0.922      2.172
REMARK  Name = 
REMARK  8 active torsions:
REMARK  status: ('A' for Active; 'I' for Inactive)
REMARK    1  A    between atoms: C_2  and  C_3
REMARK    2  A    between atoms: C_3  and  S_4
REMARK    3  A    between atoms: S_4  and  C_5
REMARK    4  A    between atoms: C_9  and  O_10
REMARK    5  A    between atoms: O_10  and  C_11
REMARK    6  A    between atoms: N_25  and  C_26
REMARK    7  A    between atoms: C_31  and  C_32
REMARK    8  A    between atoms: C_32  and  O_34
REMARK                            x       y       z     vdW  Elec       q    Type
REMARK                         _______ _______ _______ _____ _____    ______ ____
ROOT
ATOM      1  C   UNL     1      -0.361  11.567  19.883  0.00  0.00    +0.000 A 
ATOM      2  N   UNL     1       0.061  10.669  20.735  0.00  0.00    +0.000 NA
ATOM      3  C   UNL     1       0.736   9.752  19.967  0.00  0.00    +0.000 A 
ATOM      4  C   UNL     1       1.390   8.573  20.352  0.00  0.00    +0.000 A 
ATOM      5  C   UNL     1       2.105   7.857  19.385  0.00  0.00    +0.000 A 
ATOM      6  C   UNL     1       2.084   8.261  18.041  0.00  0.00    +0.000 A 
ATOM      7  C   UNL     1       1.443   9.440  17.639  0.00  0.00    +0.000 A 
ATOM      8  C   UNL     1       0.779  10.156  18.634  0.00  0.00    +0.000 A 
ATOM      9  N   UNL     1       0.053  11.322  18.609  0.00  0.00    +0.000 N 
ATOM     10  H   UNL     1      -0.114  11.919  17.813  0.00  0.00    +0.000 HD
ENDROOT
BRANCH   1  11
ATOM     11  S   UNL     1      -1.217  13.010  20.266  0.00  0.00    +0.000 S 
BRANCH  11  12
ATOM     12  C   UNL     1      -2.813  12.267  20.729  0.00  0.00    +0.000 C 
BRANCH  12  14
ATOM     13  O   UNL     1      -2.923  13.689  22.659  0.00  0.00    +0.000 OA
ATOM     14  C   UNL     1      -3.534  13.173  21.723  0.00  0.00    +0.000 C 
ATOM     15  N   UNL     1      -4.897  13.308  21.499  0.00  0.00    +0.000 N 
ATOM     16  H   UNL     1      -5.323  12.676  20.820  0.00  0.00    +0.000 HD
BRANCH  15  17
ATOM     17  C   UNL     1      -5.767  14.214  22.175  0.00  0.00    +0.000 A 
ATOM     18  C   UNL     1      -5.951  15.524  21.717  0.00  0.00    +0.000 A 
ATOM     19  C   UNL     1      -6.857  16.398  22.328  0.00  0.00    +0.000 A 
ATOM     20  C   UNL     1      -7.613  15.971  23.413  0.00  0.00    +0.000 A 
ATOM     21  C   UNL     1      -7.446  14.675  23.895  0.00  0.00    +0.000 A 
ATOM     22  C   UNL     1      -6.524  13.802  23.293  0.00  0.00    +0.000 A 
BRANCH  22  23
ATOM     23  C   UNL     1      -6.406  12.461  23.917  0.00  0.00    +0.000 C 
ATOM     24  O   UNL     1      -7.329  11.667  23.968  0.00  0.00    +0.000 OA
BRANCH  23  25
ATOM     25  O   UNL     1      -5.194  12.220  24.451  0.00  0.00    +0.000 OA
ATOM     26  H   UNL     1      -4.907  11.283  24.434  0.00  0.00    +0.000 HD
ENDBRANCH  23  25
ENDBRANCH  22  23
ENDBRANCH  15  17
ENDBRANCH  12  14
ENDBRANCH  11  12
ENDBRANCH   1  11
BRANCH   5  27
ATOM     27  O   UNL     1       2.782   6.744  19.843  0.00  0.00    +0.000 OA
BRANCH  27  28
ATOM     28  C   UNL     1       3.202   5.773  18.947  0.00  0.00    +0.000 A 
ATOM     29  C   UNL     1       4.324   5.948  18.124  0.00  0.00    +0.000 A 
ATOM     30  C   UNL     1       4.658   4.990  17.174  0.00  0.00    +0.000 A 
ATOM     31  C   UNL     1       3.915   3.817  17.082  0.00  0.00    +0.000 A 
ATOM     32  C   UNL     1       2.855   3.567  17.966  0.00  0.00    +0.000 A 
ATOM     33  C   UNL     1       2.168   2.344  17.918  0.00  0.00    +0.000 A 
ATOM     34  C   UNL     1       1.141   2.062  18.818  0.00  0.00    +0.000 A 
ATOM     35  C   UNL     1       0.776   3.009  19.767  0.00  0.00    +0.000 A 
ATOM     36  C   UNL     1       1.433   4.243  19.813  0.00  0.00    +0.000 A 
ATOM     37  C   UNL     1       2.487   4.549  18.922  0.00  0.00    +0.000 A 
ENDBRANCH  27  28
ENDBRANCH   5  27
TORSDOF 8
ENDMDL
MODEL 9
REMARK VINA RESULT:      -8.5      4.958     11.759
REMARK  Name = 
REMARK  8 active torsions:
REMARK  status: ('A' for Active; 'I' for Inactive)
REMARK    1  A    between atoms: C_2  and  C_3
REMARK    2  A    between atoms: C_3  and  S_4
REMARK    3  A    between atoms: S_4  and  C_5
REMARK    4  A    between atoms: C_9  and  O_10
REMARK    5  A    between atoms: O_10  and  C_11
REMARK    6  A    between atoms: N_25  and  C_26
REMARK    7  A    between atoms: C_31  and  C_32
REMARK    8  A    between atoms: C_32  and  O_34
REMARK                            x       y       z     vdW  Elec       q    Type
REMARK                         _______ _______ _______ _____ _____    ______ ____
ROOT
ATOM      1  C   UNL     1       2.660   5.125  20.121  0.00  0.00    +0.000 A 
ATOM      2  N   UNL     1       2.757   5.886  19.061  0.00  0.00    +0.000 NA
ATOM      3  C   UNL     1       2.134   7.058  19.415  0.00  0.00    +0.000 A 
ATOM      4  C   UNL     1       1.932   8.224  18.664  0.00  0.00    +0.000 A 
ATOM      5  C   UNL     1       1.358   9.335  19.294  0.00  0.00    +0.000 A 
ATOM      6  C   UNL     1       0.905   9.246  20.619  0.00  0.00    +0.000 A 
ATOM      7  C   UNL     1       1.104   8.091  21.386  0.00  0.00    +0.000 A 
ATOM      8  C   UNL     1       1.721   7.018  20.746  0.00  0.00    +0.000 A 
ATOM      9  N   UNL     1       2.063   5.757  21.170  0.00  0.00    +0.000 N 
ATOM     10  H   UNL     1       1.941   5.371  22.094  0.00  0.00    +0.000 HD
ENDROOT
BRANCH   1  11
ATOM     11  S   UNL     1       3.323   3.549  20.307  0.00  0.00    +0.000 S 
BRANCH  11  12
ATOM     12  C   UNL     1       2.673   2.797  18.781  0.00  0.00    +0.000 C 
BRANCH  12  14
ATOM     13  O   UNL     1       4.168   1.620  17.318  0.00  0.00    +0.000 OA
ATOM     14  C   UNL     1       3.781   2.711  17.737  0.00  0.00    +0.000 C 
ATOM     15  N   UNL     1       4.317   3.936  17.361  0.00  0.00    +0.000 N 
ATOM     16  H   UNL     1       4.058   4.750  17.920  0.00  0.00    +0.000 HD
BRANCH  15  17
ATOM     17  C   UNL     1       5.242   4.149  16.295  0.00  0.00    +0.000 A 
ATOM     18  C   UNL     1       4.877   3.929  14.961  0.00  0.00    +0.000 A 
ATOM     19  C   UNL     1       5.751   4.205  13.904  0.00  0.00    +0.000 A 
ATOM     20  C   UNL     1       7.015   4.724  14.162  0.00  0.00    +0.000 A 
ATOM     21  C   UNL     1       7.406   4.947  15.479  0.00  0.00    +0.000 A 
ATOM     22  C   UNL     1       6.536   4.654  16.543  0.00  0.00    +0.000 A 
BRANCH  22  23
ATOM     23  C   UNL     1       7.078   4.897  17.903  0.00  0.00    +0.000 C 
ATOM     24  O   UNL     1       8.099   4.373  18.316  0.00  0.00    +0.000 OA
BRANCH  23  25
ATOM     25  O   UNL     1       6.318   5.722  18.646  0.00  0.00    +0.000 OA
ATOM     26  H   UNL     1       6.721   6.017  19.490  0.00  0.00    +0.000 HD
ENDBRANCH  23  25
ENDBRANCH  22  23
ENDBRANCH  15  17
ENDBRANCH  12  14
ENDBRANCH  11  12
ENDBRANCH   1  11
BRANCH   5  27
ATOM     27  O   UNL     1       1.250  10.473  18.518  0.00  0.00    +0.000 OA
BRANCH  27  28
ATOM     28  C   UNL     1       0.283  11.421  18.814  0.00  0.00    +0.000 A 
ATOM     29  C   UNL     1       0.595  12.642  19.430  0.00  0.00    +0.000 A 
ATOM     30  C   UNL     1      -0.414  13.526  19.794  0.00  0.00    +0.000 A 
ATOM     31  C   UNL     1      -1.738  13.231  19.484  0.00  0.00    +0.000 A 
ATOM     32  C   UNL     1      -2.067  12.070  18.769  0.00  0.00    +0.000 A 
ATOM     33  C   UNL     1      -3.397  11.827  18.390  0.00  0.00    +0.000 A 
ATOM     34  C   UNL     1      -3.734  10.700  17.642  0.00  0.00    +0.000 A 
ATOM     35  C   UNL     1      -2.747   9.791  17.280  0.00  0.00    +0.000 A 
ATOM     36  C   UNL     1      -1.422  10.004  17.671  0.00  0.00    +0.000 A 
ATOM     37  C   UNL     1      -1.050  11.146  18.417  0.00  0.00    +0.000 A 
ENDBRANCH  27  28
ENDBRANCH   5  27
TORSDOF 8
ENDMDL
