MODEL 1
REMARK VINA RESULT:      -6.7      0.000      0.000
REMARK  Name = 
REMARK  10 active torsions:
REMARK  status: ('A' for Active; 'I' for Inactive)
REMARK    1  A    between atoms: C_1  and  O_2
REMARK    2  A    between atoms: O_2  and  C_3
REMARK    3  A    between atoms: C_8  and  C_9
REMARK    4  A    between atoms: C_11  and  C_12
REMARK    5  A    between atoms: C_12  and  C_13
REMARK    6  A    between atoms: C_12  and  C_14
REMARK    7  A    between atoms: C_12  and  C_15
REMARK    8  A    between atoms: C_15  and  O_17
REMARK    9  A    between atoms: N_23  and  C_24
REMARK   10  A    between atoms: C_27  and  C_28
REMARK                            x       y       z     vdW  Elec       q    Type
REMARK                         _______ _______ _______ _____ _____    ______ ____
ROOT
ATOM      1  C   UNL     1       0.457  12.550  20.668  0.00  0.00    +0.000 C 
ATOM      2  C   UNL     1      -0.739  13.451  20.663  0.00  0.00    +0.000 A 
ATOM      3  C   UNL     1      -1.232  14.727  21.006  0.00  0.00    +0.000 A 
ATOM      4  N   UNL     1      -2.530  14.839  20.625  0.00  0.00    +0.000 NA
ATOM      5  N   UNL     1      -2.849  13.643  20.082  0.00  0.00    +0.000 N 
ATOM      6  C   UNL     1      -1.789  12.826  20.054  0.00  0.00    +0.000 A 
ATOM      7  C   UNL     1      -1.468  11.549  19.540  0.00  0.00    +0.000 C 
ATOM      8  O   UNL     1      -2.214  10.799  18.934  0.00  0.00    +0.000 OA
ATOM      9  N   UNL     1      -0.119  11.387  19.895  0.00  0.00    +0.000 N 
ATOM     10  H   UNL     1      -3.791  13.487  19.735  0.00  0.00    +0.000 HD
ENDROOT
BRANCH   1  16
ATOM     11  C   UNL     1       2.808  13.665  20.517  0.00  0.00    +0.000 A 
ATOM     12  C   UNL     1       3.799  14.257  19.705  0.00  0.00    +0.000 A 
ATOM     13  C   UNL     1       3.606  14.487  18.347  0.00  0.00    +0.000 A 
ATOM     14  C   UNL     1       2.397  14.143  17.772  0.00  0.00    +0.000 A 
ATOM     15  C   UNL     1       1.417  13.527  18.551  0.00  0.00    +0.000 A 
ATOM     16  C   UNL     1       1.589  13.257  19.940  0.00  0.00    +0.000 A 
BRANCH  11  18
ATOM     17  C   UNL     1       4.478  14.145  22.214  0.00  0.00    +0.000 C 
ATOM     18  O   UNL     1       3.189  13.715  21.826  0.00  0.00    +0.000 OA
ENDBRANCH  11  18
ENDBRANCH   1  16
BRANCH   9  19
ATOM     19  C   UNL     1       0.659  10.291  19.485  0.00  0.00    +0.000 A 
ATOM     20  C   UNL     1       0.982   9.280  20.393  0.00  0.00    +0.000 A 
ATOM     21  C   UNL     1       1.727   8.168  19.981  0.00  0.00    +0.000 A 
ATOM     22  C   UNL     1       2.208   8.076  18.670  0.00  0.00    +0.000 A 
ATOM     23  C   UNL     1       1.907   9.115  17.776  0.00  0.00    +0.000 A 
ATOM     24  C   UNL     1       1.120  10.204  18.174  0.00  0.00    +0.000 A 
BRANCH  22  25
ATOM     25  C   UNL     1       3.019   6.929  18.235  0.00  0.00    +0.000 A 
ATOM     26  C   UNL     1       4.178   6.928  17.410  0.00  0.00    +0.000 A 
ATOM     27  C   UNL     1       4.538   5.611  17.313  0.00  0.00    +0.000 A 
ATOM     28  O   UNL     1       3.670   4.858  18.023  0.00  0.00    +0.000 OA
ATOM     29  N   UNL     1       2.721   5.674  18.603  0.00  0.00    +0.000 NA
ENDBRANCH  22  25
ENDBRANCH   9  19
BRANCH   3  30
ATOM     30  C   UNL     1      -0.525  15.941  21.597  0.00  0.00    +0.000 C 
ATOM     31  C   UNL     1       0.394  16.536  20.510  0.00  0.00    +0.000 C 
ATOM     32  C   UNL     1      -1.542  17.017  22.035  0.00  0.00    +0.000 C 
BRANCH  30  33
ATOM     33  C   UNL     1       0.217  15.556  22.884  0.00  0.00    +0.000 C 
ATOM     34  O   UNL     1      -0.332  15.045  23.860  0.00  0.00    +0.000 OA
BRANCH  33  35
ATOM     35  O   UNL     1       1.516  15.915  22.961  0.00  0.00    +0.000 OA
ATOM     36  H   UNL     1       1.721  16.863  22.872  0.00  0.00    +0.000 HD
ENDBRANCH  33  35
ENDBRANCH  30  33
ENDBRANCH   3  30
TORSDOF 7
ENDMDL
MODEL 2
REMARK VINA RESULT:      -6.4      2.689      8.259
REMARK  Name = 
REMARK  10 active torsions:
REMARK  status: ('A' for Active; 'I' for Inactive)
REMARK    1  A    between atoms: C_1  and  O_2
REMARK    2  A    between atoms: O_2  and  C_3
REMARK    3  A    between atoms: C_8  and  C_9
REMARK    4  A    between atoms: C_11  and  C_12
REMARK    5  A    between atoms: C_12  and  C_13
REMARK    6  A    between atoms: C_12  and  C_14
REMARK    7  A    between atoms: C_12  and  C_15
REMARK    8  A    between atoms: C_15  and  O_17
REMARK    9  A    between atoms: N_23  and  C_24
REMARK   10  A    between atoms: C_27  and  C_28
REMARK                            x       y       z     vdW  Elec       q    Type
REMARK                         _______ _______ _______ _____ _____    ______ ____
ROOT
ATOM      1  C   UNL     1      -0.546  10.812  20.501  0.00  0.00    +0.000 C 
ATOM      2  C   UNL     1       0.437   9.684  20.536  0.00  0.00    +0.000 A 
ATOM      3  C   UNL     1       1.289   8.863  19.767  0.00  0.00    +0.000 A 
ATOM      4  N   UNL     1       1.959   8.005  20.578  0.00  0.00    +0.000 NA
ATOM      5  N   UNL     1       1.510   8.265  21.826  0.00  0.00    +0.000 N 
ATOM      6  C   UNL     1       0.644   9.286  21.825  0.00  0.00    +0.000 A 
ATOM      7  C   UNL     1      -0.055  10.063  22.777  0.00  0.00    +0.000 C 
ATOM      8  O   UNL     1      -0.024   9.933  23.988  0.00  0.00    +0.000 OA
ATOM      9  N   UNL     1      -0.758  10.987  21.986  0.00  0.00    +0.000 N 
ATOM     10  H   UNL     1       1.866   7.724  22.608  0.00  0.00    +0.000 HD
ENDROOT
BRANCH   1  16
ATOM     11  C   UNL     1      -0.346  12.684  18.699  0.00  0.00    +0.000 A 
ATOM     12  C   UNL     1       0.344  13.823  18.231  0.00  0.00    +0.000 A 
ATOM     13  C   UNL     1       1.504  14.290  18.841  0.00  0.00    +0.000 A 
ATOM     14  C   UNL     1       2.011  13.610  19.931  0.00  0.00    +0.000 A 
ATOM     15  C   UNL     1       1.324  12.502  20.429  0.00  0.00    +0.000 A 
ATOM     16  C   UNL     1       0.123  12.008  19.842  0.00  0.00    +0.000 A 
BRANCH  11  18
ATOM     17  C   UNL     1      -2.597  11.881  18.263  0.00  0.00    +0.000 C 
ATOM     18  O   UNL     1      -1.338  12.350  17.824  0.00  0.00    +0.000 OA
ENDBRANCH  11  18
ENDBRANCH   1  16
BRANCH   9  19
ATOM     19  C   UNL     1      -1.513  12.044  22.524  0.00  0.00    +0.000 A 
ATOM     20  C   UNL     1      -0.872  13.152  23.081  0.00  0.00    +0.000 A 
ATOM     21  C   UNL     1      -1.620  14.224  23.587  0.00  0.00    +0.000 A 
ATOM     22  C   UNL     1      -3.018  14.179  23.594  0.00  0.00    +0.000 A 
ATOM     23  C   UNL     1      -3.651  13.043  23.064  0.00  0.00    +0.000 A 
ATOM     24  C   UNL     1      -2.904  11.993  22.513  0.00  0.00    +0.000 A 
BRANCH  22  25
ATOM     25  C   UNL     1      -3.813  15.283  24.153  0.00  0.00    +0.000 A 
ATOM     26  C   UNL     1      -3.375  16.366  24.964  0.00  0.00    +0.000 A 
ATOM     27  C   UNL     1      -4.504  17.100  25.210  0.00  0.00    +0.000 A 
ATOM     28  O   UNL     1      -5.557  16.516  24.596  0.00  0.00    +0.000 OA
ATOM     29  N   UNL     1      -5.133  15.384  23.934  0.00  0.00    +0.000 NA
ENDBRANCH  22  25
ENDBRANCH   9  19
BRANCH   3  30
ATOM     30  C   UNL     1       1.617   8.887  18.279  0.00  0.00    +0.000 C 
ATOM     31  C   UNL     1       0.289   8.904  17.496  0.00  0.00    +0.000 C 
ATOM     32  C   UNL     1       2.430  10.147  17.911  0.00  0.00    +0.000 C 
BRANCH  30  33
ATOM     33  C   UNL     1       2.531   7.710  17.911  0.00  0.00    +0.000 C 
ATOM     34  O   UNL     1       3.645   7.845  17.405  0.00  0.00    +0.000 OA
BRANCH  33  35
ATOM     35  O   UNL     1       2.009   6.474  18.058  0.00  0.00    +0.000 OA
ATOM     36  H   UNL     1       2.632   5.725  18.054  0.00  0.00    +0.000 HD
ENDBRANCH  33  35
ENDBRANCH  30  33
ENDBRANCH   3  30
TORSDOF 7
ENDMDL
MODEL 3
REMARK VINA RESULT:      -6.4      0.831      1.500
REMARK  Name = 
REMARK  10 active torsions:
REMARK  status: ('A' for Active; 'I' for Inactive)
REMARK    1  A    between atoms: C_1  and  O_2
REMARK    2  A    between atoms: O_2  and  C_3
REMARK    3  A    between atoms: C_8  and  C_9
REMARK    4  A    between atoms: C_11  and  C_12
REMARK    5  A    between atoms: C_12  and  C_13
REMARK    6  A    between atoms: C_12  and  C_14
REMARK    7  A    between atoms: C_12  and  C_15
REMARK    8  A    between atoms: C_15  and  O_17
REMARK    9  A    between atoms: N_23  and  C_24
REMARK   10  A    between atoms: C_27  and  C_28
REMARK                            x       y       z     vdW  Elec       q    Type
REMARK                         _______ _______ _______ _____ _____    ______ ____
ROOT
ATOM      1  C   UNL     1       0.401  12.499  20.651  0.00  0.00    +0.000 C 
ATOM      2  C   UNL     1      -0.796  13.398  20.626  0.00  0.00    +0.000 A 
ATOM      3  C   UNL     1      -1.294  14.677  20.950  0.00  0.00    +0.000 A 
ATOM      4  N   UNL     1      -2.589  14.783  20.558  0.00  0.00    +0.000 NA
ATOM      5  N   UNL     1      -2.902  13.580  20.025  0.00  0.00    +0.000 N 
ATOM      6  C   UNL     1      -1.840  12.765  20.016  0.00  0.00    +0.000 A 
ATOM      7  C   UNL     1      -1.513  11.482  19.519  0.00  0.00    +0.000 C 
ATOM      8  O   UNL     1      -2.253  10.724  18.915  0.00  0.00    +0.000 OA
ATOM      9  N   UNL     1      -0.166  11.327  19.886  0.00  0.00    +0.000 N 
ATOM     10  H   UNL     1      -3.840  13.419  19.673  0.00  0.00    +0.000 HD
ENDROOT
BRANCH   1  16
ATOM     11  C   UNL     1       2.749  13.623  20.508  0.00  0.00    +0.000 A 
ATOM     12  C   UNL     1       3.746  14.206  19.697  0.00  0.00    +0.000 A 
ATOM     13  C   UNL     1       3.567  14.414  18.334  0.00  0.00    +0.000 A 
ATOM     14  C   UNL     1       2.367  14.056  17.751  0.00  0.00    +0.000 A 
ATOM     15  C   UNL     1       1.381  13.447  18.529  0.00  0.00    +0.000 A 
ATOM     16  C   UNL     1       1.538  13.200  19.924  0.00  0.00    +0.000 A 
BRANCH  11  18
ATOM     17  C   UNL     1       4.058  14.641  22.282  0.00  0.00    +0.000 C 
ATOM     18  O   UNL     1       3.116  13.695  21.820  0.00  0.00    +0.000 OA
ENDBRANCH  11  18
ENDBRANCH   1  16
BRANCH   9  19
ATOM     19  C   UNL     1       0.617  10.227  19.495  0.00  0.00    +0.000 A 
ATOM     20  C   UNL     1       1.033  10.098  18.169  0.00  0.00    +0.000 A 
ATOM     21  C   UNL     1       1.843   9.022  17.781  0.00  0.00    +0.000 A 
ATOM     22  C   UNL     1       2.202   8.031  18.701  0.00  0.00    +0.000 A 
ATOM     23  C   UNL     1       1.748   8.153  20.024  0.00  0.00    +0.000 A 
ATOM     24  C   UNL     1       0.979   9.255  20.423  0.00  0.00    +0.000 A 
BRANCH  22  25
ATOM     25  C   UNL     1       3.024   6.880  18.298  0.00  0.00    +0.000 A 
ATOM     26  C   UNL     1       4.164   6.861  17.447  0.00  0.00    +0.000 A 
ATOM     27  C   UNL     1       4.546   5.548  17.400  0.00  0.00    +0.000 A 
ATOM     28  O   UNL     1       3.708   4.813  18.163  0.00  0.00    +0.000 OA
ATOM     29  N   UNL     1       2.757   5.637  18.727  0.00  0.00    +0.000 NA
ENDBRANCH  22  25
ENDBRANCH   9  19
BRANCH   3  30
ATOM     30  C   UNL     1      -0.593  15.898  21.533  0.00  0.00    +0.000 C 
ATOM     31  C   UNL     1      -1.674  16.883  22.024  0.00  0.00    +0.000 C 
ATOM     32  C   UNL     1       0.303  15.506  22.728  0.00  0.00    +0.000 C 
BRANCH  30  33
ATOM     33  C   UNL     1       0.370  16.507  20.505  0.00  0.00    +0.000 C 
ATOM     34  O   UNL     1       1.485  16.944  20.790  0.00  0.00    +0.000 OA
BRANCH  33  35
ATOM     35  O   UNL     1      -0.106  16.660  19.250  0.00  0.00    +0.000 OA
ATOM     36  H   UNL     1       0.478  17.093  18.603  0.00  0.00    +0.000 HD
ENDBRANCH  33  35
ENDBRANCH  30  33
ENDBRANCH   3  30
TORSDOF 7
ENDMDL
MODEL 4
REMARK VINA RESULT:      -6.3      0.991      1.398
REMARK  Name = 
REMARK  10 active torsions:
REMARK  status: ('A' for Active; 'I' for Inactive)
REMARK    1  A    between atoms: C_1  and  O_2
REMARK    2  A    between atoms: O_2  and  C_3
REMARK    3  A    between atoms: C_8  and  C_9
REMARK    4  A    between atoms: C_11  and  C_12
REMARK    5  A    between atoms: C_12  and  C_13
REMARK    6  A    between atoms: C_12  and  C_14
REMARK    7  A    between atoms: C_12  and  C_15
REMARK    8  A    between atoms: C_15  and  O_17
REMARK    9  A    between atoms: N_23  and  C_24
REMARK   10  A    between atoms: C_27  and  C_28
REMARK                            x       y       z     vdW  Elec       q    Type
REMARK                         _______ _______ _______ _____ _____    ______ ____
ROOT
ATOM      1  C   UNL     1       0.432  12.549  20.645  0.00  0.00    +0.000 C 
ATOM      2  C   UNL     1      -0.765  13.448  20.635  0.00  0.00    +0.000 A 
ATOM      3  C   UNL     1      -1.261  14.723  20.977  0.00  0.00    +0.000 A 
ATOM      4  N   UNL     1      -2.556  14.835  20.589  0.00  0.00    +0.000 NA
ATOM      5  N   UNL     1      -2.871  13.640  20.041  0.00  0.00    +0.000 N 
ATOM      6  C   UNL     1      -1.811  12.824  20.019  0.00  0.00    +0.000 A 
ATOM      7  C   UNL     1      -1.486  11.548  19.504  0.00  0.00    +0.000 C 
ATOM      8  O   UNL     1      -2.227  10.799  18.892  0.00  0.00    +0.000 OA
ATOM      9  N   UNL     1      -0.138  11.387  19.866  0.00  0.00    +0.000 N 
ATOM     10  H   UNL     1      -3.811  13.484  19.688  0.00  0.00    +0.000 HD
ENDROOT
BRANCH   1  16
ATOM     11  C   UNL     1       2.792  13.647  20.505  0.00  0.00    +0.000 A 
ATOM     12  C   UNL     1       3.786  14.243  19.700  0.00  0.00    +0.000 A 
ATOM     13  C   UNL     1       3.590  14.497  18.346  0.00  0.00    +0.000 A 
ATOM     14  C   UNL     1       2.378  14.172  17.769  0.00  0.00    +0.000 A 
ATOM     15  C   UNL     1       1.395  13.552  18.541  0.00  0.00    +0.000 A 
ATOM     16  C   UNL     1       1.568  13.258  19.925  0.00  0.00    +0.000 A 
BRANCH  11  18
ATOM     17  C   UNL     1       4.289  14.426  22.251  0.00  0.00    +0.000 C 
ATOM     18  O   UNL     1       3.177  13.672  21.814  0.00  0.00    +0.000 OA
ENDBRANCH  11  18
ENDBRANCH   1  16
BRANCH   9  19
ATOM     19  C   UNL     1       0.643  10.292  19.459  0.00  0.00    +0.000 A 
ATOM     20  C   UNL     1       0.969   9.285  20.369  0.00  0.00    +0.000 A 
ATOM     21  C   UNL     1       1.718   8.173  19.960  0.00  0.00    +0.000 A 
ATOM     22  C   UNL     1       2.199   8.080  18.649  0.00  0.00    +0.000 A 
ATOM     23  C   UNL     1       1.894   9.116  17.752  0.00  0.00    +0.000 A 
ATOM     24  C   UNL     1       1.104  10.204  18.148  0.00  0.00    +0.000 A 
BRANCH  22  25
ATOM     25  C   UNL     1       3.014   6.935  18.216  0.00  0.00    +0.000 A 
ATOM     26  C   UNL     1       2.837   5.557  18.524  0.00  0.00    +0.000 A 
ATOM     27  C   UNL     1       3.862   4.919  17.879  0.00  0.00    +0.000 A 
ATOM     28  O   UNL     1       4.612   5.832  17.223  0.00  0.00    +0.000 OA
ATOM     29  N   UNL     1       4.088   7.091  17.427  0.00  0.00    +0.000 NA
ENDBRANCH  22  25
ENDBRANCH   9  19
BRANCH   3  30
ATOM     30  C   UNL     1      -0.558  15.937  21.575  0.00  0.00    +0.000 C 
ATOM     31  C   UNL     1      -1.637  16.916  22.078  0.00  0.00    +0.000 C 
ATOM     32  C   UNL     1       0.339  15.528  22.763  0.00  0.00    +0.000 C 
BRANCH  30  33
ATOM     33  C   UNL     1       0.405  16.557  20.553  0.00  0.00    +0.000 C 
ATOM     34  O   UNL     1       1.520  16.989  20.842  0.00  0.00    +0.000 OA
BRANCH  33  35
ATOM     35  O   UNL     1      -0.072  16.725  19.301  0.00  0.00    +0.000 OA
ATOM     36  H   UNL     1      -1.001  16.478  19.143  0.00  0.00    +0.000 HD
ENDBRANCH  33  35
ENDBRANCH  30  33
ENDBRANCH   3  30
TORSDOF 7
ENDMDL
MODEL 5
REMARK VINA RESULT:      -6.3      0.877      1.257
REMARK  Name = 
REMARK  10 active torsions:
REMARK  status: ('A' for Active; 'I' for Inactive)
REMARK    1  A    between atoms: C_1  and  O_2
REMARK    2  A    between atoms: O_2  and  C_3
REMARK    3  A    between atoms: C_8  and  C_9
REMARK    4  A    between atoms: C_11  and  C_12
REMARK    5  A    between atoms: C_12  and  C_13
REMARK    6  A    between atoms: C_12  and  C_14
REMARK    7  A    between atoms: C_12  and  C_15
REMARK    8  A    between atoms: C_15  and  O_17
REMARK    9  A    between atoms: N_23  and  C_24
REMARK   10  A    between atoms: C_27  and  C_28
REMARK                            x       y       z     vdW  Elec       q    Type
REMARK                         _______ _______ _______ _____ _____    ______ ____
ROOT
ATOM      1  C   UNL     1       0.457  12.660  20.705  0.00  0.00    +0.000 C 
ATOM      2  C   UNL     1      -0.723  13.580  20.688  0.00  0.00    +0.000 A 
ATOM      3  C   UNL     1      -1.196  14.868  21.017  0.00  0.00    +0.000 A 
ATOM      4  N   UNL     1      -2.490  14.998  20.631  0.00  0.00    +0.000 NA
ATOM      5  N   UNL     1      -2.828  13.803  20.097  0.00  0.00    +0.000 N 
ATOM      6  C   UNL     1      -1.781  12.968  20.081  0.00  0.00    +0.000 A 
ATOM      7  C   UNL     1      -1.480  11.681  19.579  0.00  0.00    +0.000 C 
ATOM      8  O   UNL     1      -2.236  10.938  18.977  0.00  0.00    +0.000 OA
ATOM      9  N   UNL     1      -0.135  11.500  19.940  0.00  0.00    +0.000 N 
ATOM     10  H   UNL     1      -3.771  13.660  19.748  0.00  0.00    +0.000 HD
ENDROOT
BRANCH   1  16
ATOM     11  C   UNL     1       2.834  13.720  20.550  0.00  0.00    +0.000 A 
ATOM     12  C   UNL     1       3.836  14.289  19.736  0.00  0.00    +0.000 A 
ATOM     13  C   UNL     1       3.645  14.526  18.379  0.00  0.00    +0.000 A 
ATOM     14  C   UNL     1       2.428  14.211  17.806  0.00  0.00    +0.000 A 
ATOM     15  C   UNL     1       1.435  13.617  18.587  0.00  0.00    +0.000 A 
ATOM     16  C   UNL     1       1.604  13.341  19.975  0.00  0.00    +0.000 A 
BRANCH  11  18
ATOM     17  C   UNL     1       4.278  14.583  22.301  0.00  0.00    +0.000 C 
ATOM     18  O   UNL     1       3.219  13.759  21.858  0.00  0.00    +0.000 OA
ENDBRANCH  11  18
ENDBRANCH   1  16
BRANCH   9  19
ATOM     19  C   UNL     1       0.626  10.387  19.543  0.00  0.00    +0.000 A 
ATOM     20  C   UNL     1       0.936   9.384  20.463  0.00  0.00    +0.000 A 
ATOM     21  C   UNL     1       1.664   8.255  20.064  0.00  0.00    +0.000 A 
ATOM     22  C   UNL     1       2.140   8.139  18.753  0.00  0.00    +0.000 A 
ATOM     23  C   UNL     1       1.851   9.171  17.846  0.00  0.00    +0.000 A 
ATOM     24  C   UNL     1       1.081  10.276  18.232  0.00  0.00    +0.000 A 
BRANCH  22  25
ATOM     25  C   UNL     1       2.933   6.975  18.331  0.00  0.00    +0.000 A 
ATOM     26  C   UNL     1       4.062   6.940  17.465  0.00  0.00    +0.000 A 
ATOM     27  C   UNL     1       4.416   5.620  17.403  0.00  0.00    +0.000 A 
ATOM     28  O   UNL     1       3.572   4.895  18.171  0.00  0.00    +0.000 OA
ATOM     29  N   UNL     1       2.646   5.734  18.754  0.00  0.00    +0.000 NA
ENDBRANCH  22  25
ENDBRANCH   9  19
BRANCH   3  30
ATOM     30  C   UNL     1      -0.470  16.074  21.600  0.00  0.00    +0.000 C 
ATOM     31  C   UNL     1       0.345  15.600  22.821  0.00  0.00    +0.000 C 
ATOM     32  C   UNL     1       0.495  16.694  20.566  0.00  0.00    +0.000 C 
BRANCH  30  33
ATOM     33  C   UNL     1      -1.467  17.195  21.926  0.00  0.00    +0.000 C 
ATOM     34  O   UNL     1      -1.419  18.317  21.423  0.00  0.00    +0.000 OA
BRANCH  33  35
ATOM     35  O   UNL     1      -2.362  16.940  22.905  0.00  0.00    +0.000 OA
ATOM     36  H   UNL     1      -3.248  16.645  22.630  0.00  0.00    +0.000 HD
ENDBRANCH  33  35
ENDBRANCH  30  33
ENDBRANCH   3  30
TORSDOF 7
ENDMDL
MODEL 6
REMARK VINA RESULT:      -6.2      7.527     10.064
REMARK  Name = 
REMARK  10 active torsions:
REMARK  status: ('A' for Active; 'I' for Inactive)
REMARK    1  A    between atoms: C_1  and  O_2
REMARK    2  A    between atoms: O_2  and  C_3
REMARK    3  A    between atoms: C_8  and  C_9
REMARK    4  A    between atoms: C_11  and  C_12
REMARK    5  A    between atoms: C_12  and  C_13
REMARK    6  A    between atoms: C_12  and  C_14
REMARK    7  A    between atoms: C_12  and  C_15
REMARK    8  A    between atoms: C_15  and  O_17
REMARK    9  A    between atoms: N_23  and  C_24
REMARK   10  A    between atoms: C_27  and  C_28
REMARK                            x       y       z     vdW  Elec       q    Type
REMARK                         _______ _______ _______ _____ _____    ______ ____
ROOT
ATOM      1  C   UNL     1       8.341  14.340  20.866  0.00  0.00    +0.000 C 
ATOM      2  C   UNL     1       9.308  14.250  19.727  0.00  0.00    +0.000 A 
ATOM      3  C   UNL     1       9.946  14.957  18.687  0.00  0.00    +0.000 A 
ATOM      4  N   UNL     1      10.800  14.137  18.025  0.00  0.00    +0.000 NA
ATOM      5  N   UNL     1      10.675  12.931  18.623  0.00  0.00    +0.000 N 
ATOM      6  C   UNL     1       9.832  12.991  19.660  0.00  0.00    +0.000 A 
ATOM      7  C   UNL     1       9.388  12.137  20.696  0.00  0.00    +0.000 C 
ATOM      8  O   UNL     1       9.721  10.979  20.879  0.00  0.00    +0.000 OA
ATOM      9  N   UNL     1       8.506  12.948  21.428  0.00  0.00    +0.000 N 
ATOM     10  H   UNL     1      11.219  12.145  18.280  0.00  0.00    +0.000 HD
ENDROOT
BRANCH   1  16
ATOM     11  C   UNL     1       8.088  16.581  22.174  0.00  0.00    +0.000 A 
ATOM     12  C   UNL     1       8.631  17.483  23.114  0.00  0.00    +0.000 A 
ATOM     13  C   UNL     1       9.889  17.299  23.678  0.00  0.00    +0.000 A 
ATOM     14  C   UNL     1      10.645  16.207  23.296  0.00  0.00    +0.000 A 
ATOM     15  C   UNL     1      10.112  15.286  22.393  0.00  0.00    +0.000 A 
ATOM     16  C   UNL     1       8.819  15.432  21.811  0.00  0.00    +0.000 A 
BRANCH  11  18
ATOM     17  C   UNL     1       6.803  18.448  21.302  0.00  0.00    +0.000 C 
ATOM     18  O   UNL     1       6.930  17.087  21.660  0.00  0.00    +0.000 OA
ENDBRANCH  11  18
ENDBRANCH   1  16
BRANCH   9  19
ATOM     19  C   UNL     1       7.904  12.541  22.631  0.00  0.00    +0.000 A 
ATOM     20  C   UNL     1       6.515  12.424  22.717  0.00  0.00    +0.000 A 
ATOM     21  C   UNL     1       5.912  11.984  23.903  0.00  0.00    +0.000 A 
ATOM     22  C   UNL     1       6.684  11.709  25.037  0.00  0.00    +0.000 A 
ATOM     23  C   UNL     1       8.076  11.863  24.949  0.00  0.00    +0.000 A 
ATOM     24  C   UNL     1       8.684  12.255  23.748  0.00  0.00    +0.000 A 
BRANCH  22  25
ATOM     25  C   UNL     1       6.059  11.278  26.297  0.00  0.00    +0.000 A 
ATOM     26  C   UNL     1       6.685  10.992  27.542  0.00  0.00    +0.000 A 
ATOM     27  C   UNL     1       5.661  10.635  28.377  0.00  0.00    +0.000 A 
ATOM     28  O   UNL     1       4.493  10.698  27.700  0.00  0.00    +0.000 OA
ATOM     29  N   UNL     1       4.733  11.100  26.403  0.00  0.00    +0.000 NA
ENDBRANCH  22  25
ENDBRANCH   9  19
BRANCH   3  30
ATOM     30  C   UNL     1       9.892  16.433  18.309  0.00  0.00    +0.000 C 
ATOM     31  C   UNL     1       8.414  16.821  18.102  0.00  0.00    +0.000 C 
ATOM     32  C   UNL     1      10.486  17.314  19.430  0.00  0.00    +0.000 C 
BRANCH  30  33
ATOM     33  C   UNL     1      10.776  16.707  17.085  0.00  0.00    +0.000 C 
ATOM     34  O   UNL     1      11.688  17.534  17.075  0.00  0.00    +0.000 OA
BRANCH  33  35
ATOM     35  O   UNL     1      10.436  16.073  15.942  0.00  0.00    +0.000 OA
ATOM     36  H   UNL     1      11.098  15.475  15.552  0.00  0.00    +0.000 HD
ENDBRANCH  33  35
ENDBRANCH  30  33
ENDBRANCH   3  30
TORSDOF 7
ENDMDL
MODEL 7
REMARK VINA RESULT:      -6.2      2.269      3.644
REMARK  Name = 
REMARK  10 active torsions:
REMARK  status: ('A' for Active; 'I' for Inactive)
REMARK    1  A    between atoms: C_1  and  O_2
REMARK    2  A    between atoms: O_2  and  C_3
REMARK    3  A    between atoms: C_8  and  C_9
REMARK    4  A    between atoms: C_11  and  C_12
REMARK    5  A    between atoms: C_12  and  C_13
REMARK    6  A    between atoms: C_12  and  C_14
REMARK    7  A    between atoms: C_12  and  C_15
REMARK    8  A    between atoms: C_15  and  O_17
REMARK    9  A    between atoms: N_23  and  C_24
REMARK   10  A    between atoms: C_27  and  C_28
REMARK                            x       y       z     vdW  Elec       q    Type
REMARK                         _______ _______ _______ _____ _____    ______ ____
ROOT
ATOM      1  C   UNL     1      -0.202  11.322  20.405  0.00  0.00    +0.000 C 
ATOM      2  C   UNL     1      -1.103  11.683  21.545  0.00  0.00    +0.000 A 
ATOM      3  C   UNL     1      -2.049  12.612  22.026  0.00  0.00    +0.000 A 
ATOM      4  N   UNL     1      -2.502  12.221  23.245  0.00  0.00    +0.000 NA
ATOM      5  N   UNL     1      -1.827  11.085  23.531  0.00  0.00    +0.000 N 
ATOM      6  C   UNL     1      -1.030  10.728  22.517  0.00  0.00    +0.000 A 
ATOM      7  C   UNL     1      -0.195   9.638  22.179  0.00  0.00    +0.000 C 
ATOM      8  O   UNL     1       0.022   8.649  22.857  0.00  0.00    +0.000 OA
ATOM      9  N   UNL     1       0.292   9.986  20.908  0.00  0.00    +0.000 N 
ATOM     10  H   UNL     1      -1.995  10.614  24.415  0.00  0.00    +0.000 HD
ENDROOT
BRANCH   1  16
ATOM     11  C   UNL     1      -1.036  12.130  18.071  0.00  0.00    +0.000 A 
ATOM     12  C   UNL     1      -1.827  11.873  16.932  0.00  0.00    +0.000 A 
ATOM     13  C   UNL     1      -2.655  10.759  16.838  0.00  0.00    +0.000 A 
ATOM     14  C   UNL     1      -2.720   9.879  17.901  0.00  0.00    +0.000 A 
ATOM     15  C   UNL     1      -1.920  10.098  19.023  0.00  0.00    +0.000 A 
ATOM     16  C   UNL     1      -1.046  11.217  19.145  0.00  0.00    +0.000 A 
BRANCH  11  18
ATOM     17  C   UNL     1       0.906  13.577  18.253  0.00  0.00    +0.000 C 
ATOM     18  O   UNL     1      -0.462  13.363  17.971  0.00  0.00    +0.000 OA
ENDBRANCH  11  18
ENDBRANCH   1  16
BRANCH   9  19
ATOM     19  C   UNL     1       1.086   9.128  20.127  0.00  0.00    +0.000 A 
ATOM     20  C   UNL     1       1.497   7.894  20.635  0.00  0.00    +0.000 A 
ATOM     21  C   UNL     1       2.259   7.021  19.847  0.00  0.00    +0.000 A 
ATOM     22  C   UNL     1       2.669   7.392  18.562  0.00  0.00    +0.000 A 
ATOM     23  C   UNL     1       2.279   8.650  18.076  0.00  0.00    +0.000 A 
ATOM     24  C   UNL     1       1.475   9.503  18.844  0.00  0.00    +0.000 A 
BRANCH  22  25
ATOM     25  C   UNL     1       3.497   6.498  17.739  0.00  0.00    +0.000 A 
ATOM     26  C   UNL     1       4.632   6.824  16.946  0.00  0.00    +0.000 A 
ATOM     27  C   UNL     1       5.022   5.637  16.387  0.00  0.00    +0.000 A 
ATOM     28  O   UNL     1       4.194   4.654  16.804  0.00  0.00    +0.000 OA
ATOM     29  N   UNL     1       3.241   5.183  17.649  0.00  0.00    +0.000 NA
ENDBRANCH  22  25
ENDBRANCH   9  19
BRANCH   3  30
ATOM     30  C   UNL     1      -2.667  13.837  21.363  0.00  0.00    +0.000 C 
ATOM     31  C   UNL     1      -3.662  13.351  20.290  0.00  0.00    +0.000 C 
ATOM     32  C   UNL     1      -3.426  14.701  22.393  0.00  0.00    +0.000 C 
BRANCH  30  33
ATOM     33  C   UNL     1      -1.570  14.759  20.811  0.00  0.00    +0.000 C 
ATOM     34  O   UNL     1      -0.535  15.027  21.420  0.00  0.00    +0.000 OA
BRANCH  33  35
ATOM     35  O   UNL     1      -1.839  15.382  19.644  0.00  0.00    +0.000 OA
ATOM     36  H   UNL     1      -1.090  15.539  19.041  0.00  0.00    +0.000 HD
ENDBRANCH  33  35
ENDBRANCH  30  33
ENDBRANCH   3  30
TORSDOF 7
ENDMDL
MODEL 8
REMARK VINA RESULT:      -6.2      3.849      6.488
REMARK  Name = 
REMARK  10 active torsions:
REMARK  status: ('A' for Active; 'I' for Inactive)
REMARK    1  A    between atoms: C_1  and  O_2
REMARK    2  A    between atoms: O_2  and  C_3
REMARK    3  A    between atoms: C_8  and  C_9
REMARK    4  A    between atoms: C_11  and  C_12
REMARK    5  A    between atoms: C_12  and  C_13
REMARK    6  A    between atoms: C_12  and  C_14
REMARK    7  A    between atoms: C_12  and  C_15
REMARK    8  A    between atoms: C_15  and  O_17
REMARK    9  A    between atoms: N_23  and  C_24
REMARK   10  A    between atoms: C_27  and  C_28
REMARK                            x       y       z     vdW  Elec       q    Type
REMARK                         _______ _______ _______ _____ _____    ______ ____
ROOT
ATOM      1  C   UNL     1       0.771  14.511  19.052  0.00  0.00    +0.000 C 
ATOM      2  C   UNL     1       2.110  14.576  19.719  0.00  0.00    +0.000 A 
ATOM      3  C   UNL     1       3.321  15.292  19.824  0.00  0.00    +0.000 A 
ATOM      4  N   UNL     1       4.124  14.710  20.751  0.00  0.00    +0.000 NA
ATOM      5  N   UNL     1       3.437  13.633  21.195  0.00  0.00    +0.000 N 
ATOM      6  C   UNL     1       2.226  13.565  20.629  0.00  0.00    +0.000 A 
ATOM      7  C   UNL     1       1.059  12.777  20.752  0.00  0.00    +0.000 C 
ATOM      8  O   UNL     1       0.893  11.834  21.507  0.00  0.00    +0.000 OA
ATOM      9  N   UNL     1       0.181  13.351  19.818  0.00  0.00    +0.000 N 
ATOM     10  H   UNL     1       3.856  13.028  21.895  0.00  0.00    +0.000 HD
ENDROOT
BRANCH   1  16
ATOM     11  C   UNL     1      -0.194  16.403  20.564  0.00  0.00    +0.000 A 
ATOM     12  C   UNL     1      -0.821  17.664  20.644  0.00  0.00    +0.000 A 
ATOM     13  C   UNL     1      -1.244  18.356  19.514  0.00  0.00    +0.000 A 
ATOM     14  C   UNL     1      -1.061  17.786  18.269  0.00  0.00    +0.000 A 
ATOM     15  C   UNL     1      -0.413  16.554  18.167  0.00  0.00    +0.000 A 
ATOM     16  C   UNL     1       0.051  15.827  19.301  0.00  0.00    +0.000 A 
BRANCH  11  18
ATOM     17  C   UNL     1       0.915  16.379  22.725  0.00  0.00    +0.000 C 
ATOM     18  O   UNL     1      -0.043  15.879  21.815  0.00  0.00    +0.000 OA
ENDBRANCH  11  18
ENDBRANCH   1  16
BRANCH   9  19
ATOM     19  C   UNL     1      -1.159  12.951  19.674  0.00  0.00    +0.000 A 
ATOM     20  C   UNL     1      -1.548  12.185  18.574  0.00  0.00    +0.000 A 
ATOM     21  C   UNL     1      -2.875  11.754  18.443  0.00  0.00    +0.000 A 
ATOM     22  C   UNL     1      -3.843  12.130  19.381  0.00  0.00    +0.000 A 
ATOM     23  C   UNL     1      -3.446  12.929  20.464  0.00  0.00    +0.000 A 
ATOM     24  C   UNL     1      -2.110  13.319  20.621  0.00  0.00    +0.000 A 
BRANCH  22  25
ATOM     25  C   UNL     1      -5.246  11.711  19.237  0.00  0.00    +0.000 A 
ATOM     26  C   UNL     1      -6.349  12.005  20.087  0.00  0.00    +0.000 A 
ATOM     27  C   UNL     1      -7.417  11.377  19.506  0.00  0.00    +0.000 A 
ATOM     28  O   UNL     1      -7.006  10.745  18.384  0.00  0.00    +0.000 OA
ATOM     29  N   UNL     1      -5.654  10.951  18.209  0.00  0.00    +0.000 NA
ENDBRANCH  22  25
ENDBRANCH   9  19
BRANCH   3  30
ATOM     30  C   UNL     1       3.767  16.594  19.169  0.00  0.00    +0.000 C 
ATOM     31  C   UNL     1       3.126  17.764  19.943  0.00  0.00    +0.000 C 
ATOM     32  C   UNL     1       5.302  16.743  19.219  0.00  0.00    +0.000 C 
BRANCH  30  33
ATOM     33  C   UNL     1       3.423  16.587  17.672  0.00  0.00    +0.000 C 
ATOM     34  O   UNL     1       2.799  17.487  17.112  0.00  0.00    +0.000 OA
BRANCH  33  35
ATOM     35  O   UNL     1       3.738  15.466  16.988  0.00  0.00    +0.000 OA
ATOM     36  H   UNL     1       3.973  15.570  16.049  0.00  0.00    +0.000 HD
ENDBRANCH  33  35
ENDBRANCH  30  33
ENDBRANCH   3  30
TORSDOF 7
ENDMDL
MODEL 9
REMARK VINA RESULT:      -6.1      1.005      1.112
REMARK  Name = 
REMARK  10 active torsions:
REMARK  status: ('A' for Active; 'I' for Inactive)
REMARK    1  A    between atoms: C_1  and  O_2
REMARK    2  A    between atoms: O_2  and  C_3
REMARK    3  A    between atoms: C_8  and  C_9
REMARK    4  A    between atoms: C_11  and  C_12
REMARK    5  A    between atoms: C_12  and  C_13
REMARK    6  A    between atoms: C_12  and  C_14
REMARK    7  A    between atoms: C_12  and  C_15
REMARK    8  A    between atoms: C_15  and  O_17
REMARK    9  A    between atoms: N_23  and  C_24
REMARK   10  A    between atoms: C_27  and  C_28
REMARK                            x       y       z     vdW  Elec       q    Type
REMARK                         _______ _______ _______ _____ _____    ______ ____
ROOT
ATOM      1  C   UNL     1       0.428  13.317  21.054  0.00  0.00    +0.000 C 
ATOM      2  C   UNL     1      -0.656  14.345  20.961  0.00  0.00    +0.000 A 
ATOM      3  C   UNL     1      -1.012  15.684  21.226  0.00  0.00    +0.000 A 
ATOM      4  N   UNL     1      -2.275  15.922  20.790  0.00  0.00    +0.000 NA
ATOM      5  N   UNL     1      -2.710  14.744  20.290  0.00  0.00    +0.000 N 
ATOM      6  C   UNL     1      -1.750  13.813  20.341  0.00  0.00    +0.000 A 
ATOM      7  C   UNL     1      -1.560  12.484  19.899  0.00  0.00    +0.000 C 
ATOM      8  O   UNL     1      -2.366  11.793  19.300  0.00  0.00    +0.000 OA
ATOM      9  N   UNL     1      -0.250  12.190  20.313  0.00  0.00    +0.000 N 
ATOM     10  H   UNL     1      -3.651  14.678  19.914  0.00  0.00    +0.000 HD
ENDROOT
BRANCH   1  16
ATOM     11  C   UNL     1       2.907  14.115  20.936  0.00  0.00    +0.000 A 
ATOM     12  C   UNL     1       3.983  14.554  20.136  0.00  0.00    +0.000 A 
ATOM     13  C   UNL     1       3.849  14.778  18.769  0.00  0.00    +0.000 A 
ATOM     14  C   UNL     1       2.618  14.581  18.173  0.00  0.00    +0.000 A 
ATOM     15  C   UNL     1       1.551  14.114  18.941  0.00  0.00    +0.000 A 
ATOM     16  C   UNL     1       1.657  13.856  20.339  0.00  0.00    +0.000 A 
BRANCH  11  18
ATOM     17  C   UNL     1       4.535  14.598  22.672  0.00  0.00    +0.000 C 
ATOM     18  O   UNL     1       3.264  14.144  22.252  0.00  0.00    +0.000 OA
ENDBRANCH  11  18
ENDBRANCH   1  16
BRANCH   9  19
ATOM     19  C   UNL     1       0.411  10.993  19.985  0.00  0.00    +0.000 A 
ATOM     20  C   UNL     1       0.628  10.020  20.961  0.00  0.00    +0.000 A 
ATOM     21  C   UNL     1       1.255   8.811  20.631  0.00  0.00    +0.000 A 
ATOM     22  C   UNL     1       1.724   8.581  19.333  0.00  0.00    +0.000 A 
ATOM     23  C   UNL     1       1.530   9.582  18.368  0.00  0.00    +0.000 A 
ATOM     24  C   UNL     1       0.860  10.770  18.686  0.00  0.00    +0.000 A 
BRANCH  22  25
ATOM     25  C   UNL     1       2.413   7.329  18.983  0.00  0.00    +0.000 A 
ATOM     26  C   UNL     1       2.415   6.094  19.688  0.00  0.00    +0.000 A 
ATOM     27  C   UNL     1       3.208   5.265  18.941  0.00  0.00    +0.000 A 
ATOM     28  O   UNL     1       3.659   5.937  17.858  0.00  0.00    +0.000 OA
ATOM     29  N   UNL     1       3.166   7.224  17.877  0.00  0.00    +0.000 NA
ENDBRANCH  22  25
ENDBRANCH   9  19
BRANCH   3  30
ATOM     30  C   UNL     1      -0.191  16.839  21.787  0.00  0.00    +0.000 C 
ATOM     31  C   UNL     1       0.730  17.362  20.667  0.00  0.00    +0.000 C 
ATOM     32  C   UNL     1      -1.104  17.990  22.261  0.00  0.00    +0.000 C 
BRANCH  30  33
ATOM     33  C   UNL     1       0.566  16.396  23.048  0.00  0.00    +0.000 C 
ATOM     34  O   UNL     1       0.019  15.900  24.032  0.00  0.00    +0.000 OA
BRANCH  33  35
ATOM     35  O   UNL     1       1.885  16.686  23.091  0.00  0.00    +0.000 OA
ATOM     36  H   UNL     1       2.130  17.622  23.200  0.00  0.00    +0.000 HD
ENDBRANCH  33  35
ENDBRANCH  30  33
ENDBRANCH   3  30
TORSDOF 7
ENDMDL
