MODEL 1
REMARK VINA RESULT:      -9.2      0.000      0.000
REMARK  Name = 
REMARK  5 active torsions:
REMARK  status: ('A' for Active; 'I' for Inactive)
REMARK    1  A    between atoms: C_1  and  N_2
REMARK    2  A    between atoms: N_2  and  C_3
REMARK    3  A    between atoms: C_6  and  O_7
REMARK    4  A    between atoms: O_7  and  C_8
REMARK    5  A    between atoms: C_23  and  N_24
REMARK                            x       y       z     vdW  Elec       q    Type
REMARK                         _______ _______ _______ _____ _____    ______ ____
ROOT
ATOM      1  C   UNL     1       2.239  10.891  17.900  0.00  0.00    +0.000 C 
ATOM      2  N   UNL     1       1.185  10.207  18.638  0.00  0.00    +0.000 N 
ATOM      3  C   UNL     1       1.569   8.903  19.028  0.00  0.00    +0.000 A 
ATOM      4  N   UNL     1       1.315   8.540  20.297  0.00  0.00    +0.000 NA
ATOM      5  C   UNL     1       1.671   7.301  20.672  0.00  0.00    +0.000 A 
ATOM      6  C   UNL     1       2.255   6.389  19.831  0.00  0.00    +0.000 A 
ATOM      7  C   UNL     1       2.498   6.813  18.541  0.00  0.00    +0.000 A 
ATOM      8  N   UNL     1       2.165   8.072  18.148  0.00  0.00    +0.000 NA
ENDROOT
BRANCH   7   9
ATOM      9  N   UNL     1       3.324   5.963  17.716  0.00  0.00    +0.000 N 
ATOM     10  C   UNL     1       3.133   4.571  18.239  0.00  0.00    +0.000 C 
ATOM     11  C   UNL     1       4.315   3.742  17.771  0.00  0.00    +0.000 C 
ATOM     12  C   UNL     1       5.365   4.780  17.884  0.00  0.00    +0.000 A 
ATOM     13  C   UNL     1       6.723   4.610  18.085  0.00  0.00    +0.000 A 
ATOM     14  C   UNL     1       7.535   5.713  17.859  0.00  0.00    +0.000 A 
ATOM     15  C   UNL     1       6.976   6.911  17.384  0.00  0.00    +0.000 A 
ATOM     16  C   UNL     1       5.581   7.089  17.306  0.00  0.00    +0.000 A 
ATOM     17  C   UNL     1       4.766   6.029  17.665  0.00  0.00    +0.000 A 
ENDBRANCH   7   9
BRANCH   2  18
ATOM     18  C   UNL     1      -0.151  10.654  18.567  0.00  0.00    +0.000 A 
ATOM     19  C   UNL     1      -1.049  10.052  17.667  0.00  0.00    +0.000 A 
ATOM     20  C   UNL     1      -2.379  10.465  17.545  0.00  0.00    +0.000 A 
ATOM     21  C   UNL     1      -2.869  11.496  18.337  0.00  0.00    +0.000 A 
ATOM     22  C   UNL     1      -2.013  12.119  19.239  0.00  0.00    +0.000 A 
ATOM     23  C   UNL     1      -0.676  11.690  19.361  0.00  0.00    +0.000 A 
BRANCH  21  24
ATOM     24  O   UNL     1      -4.155  11.878  18.059  0.00  0.00    +0.000 OA
BRANCH  24  25
ATOM     25  C   UNL     1      -5.206  11.408  18.826  0.00  0.00    +0.000 A 
ATOM     26  N   UNL     1      -5.854  10.270  18.493  0.00  0.00    +0.000 NA
ATOM     27  C   UNL     1      -6.895   9.903  19.256  0.00  0.00    +0.000 A 
ATOM     28  N   UNL     1      -7.389  10.534  20.326  0.00  0.00    +0.000 NA
ATOM     29  C   UNL     1      -6.730  11.672  20.600  0.00  0.00    +0.000 A 
ATOM     30  S   UNL     1      -7.184  12.657  21.916  0.00  0.00    +0.000 S 
ATOM     31  C   UNL     1      -5.962  13.801  21.563  0.00  0.00    +0.000 A 
ATOM     32  C   UNL     1      -5.219  13.433  20.462  0.00  0.00    +0.000 A 
ATOM     33  C   UNL     1      -5.649  12.183  19.902  0.00  0.00    +0.000 A 
ENDBRANCH  24  25
ENDBRANCH  21  24
ENDBRANCH   2  18
TORSDOF 4
ENDMDL
MODEL 2
REMARK VINA RESULT:      -9.2      3.521     10.338
REMARK  Name = 
REMARK  5 active torsions:
REMARK  status: ('A' for Active; 'I' for Inactive)
REMARK    1  A    between atoms: C_1  and  N_2
REMARK    2  A    between atoms: N_2  and  C_3
REMARK    3  A    between atoms: C_6  and  O_7
REMARK    4  A    between atoms: O_7  and  C_8
REMARK    5  A    between atoms: C_23  and  N_24
REMARK                            x       y       z     vdW  Elec       q    Type
REMARK                         _______ _______ _______ _____ _____    ______ ____
ROOT
ATOM      1  C   UNL     1      -1.394  12.301  19.962  0.00  0.00    +0.000 C 
ATOM      2  N   UNL     1      -1.160  11.192  19.045  0.00  0.00    +0.000 N 
ATOM      3  C   UNL     1      -2.207  11.049  18.105  0.00  0.00    +0.000 A 
ATOM      4  N   UNL     1      -1.859  10.875  16.819  0.00  0.00    +0.000 NA
ATOM      5  C   UNL     1      -2.848  10.732  15.922  0.00  0.00    +0.000 A 
ATOM      6  C   UNL     1      -4.180  10.732  16.249  0.00  0.00    +0.000 A 
ATOM      7  C   UNL     1      -4.482  10.918  17.582  0.00  0.00    +0.000 A 
ATOM      8  N   UNL     1      -3.496  11.087  18.503  0.00  0.00    +0.000 NA
ENDROOT
BRANCH   7   9
ATOM      9  N   UNL     1      -5.867  11.162  17.912  0.00  0.00    +0.000 N 
ATOM     10  C   UNL     1      -5.931  12.578  18.400  0.00  0.00    +0.000 C 
ATOM     11  C   UNL     1      -7.204  12.723  19.213  0.00  0.00    +0.000 C 
ATOM     12  C   UNL     1      -7.211  11.385  19.846  0.00  0.00    +0.000 A 
ATOM     13  C   UNL     1      -7.787  11.004  21.044  0.00  0.00    +0.000 A 
ATOM     14  C   UNL     1      -7.913   9.641  21.277  0.00  0.00    +0.000 A 
ATOM     15  C   UNL     1      -7.524   8.722  20.288  0.00  0.00    +0.000 A 
ATOM     16  C   UNL     1      -6.831   9.135  19.134  0.00  0.00    +0.000 A 
ATOM     17  C   UNL     1      -6.584  10.487  18.969  0.00  0.00    +0.000 A 
ENDBRANCH   7   9
BRANCH   2  18
ATOM     18  C   UNL     1      -0.234  10.177  19.365  0.00  0.00    +0.000 A 
ATOM     19  C   UNL     1       0.766   9.819  18.442  0.00  0.00    +0.000 A 
ATOM     20  C   UNL     1       1.699   8.811  18.701  0.00  0.00    +0.000 A 
ATOM     21  C   UNL     1       1.677   8.127  19.909  0.00  0.00    +0.000 A 
ATOM     22  C   UNL     1       0.703   8.449  20.849  0.00  0.00    +0.000 A 
ATOM     23  C   UNL     1      -0.229   9.473  20.583  0.00  0.00    +0.000 A 
BRANCH  21  24
ATOM     24  O   UNL     1       2.574   7.097  20.008  0.00  0.00    +0.000 OA
BRANCH  24  25
ATOM     25  C   UNL     1       2.496   6.017  19.146  0.00  0.00    +0.000 A 
ATOM     26  N   UNL     1       1.497   5.113  19.254  0.00  0.00    +0.000 NA
ATOM     27  C   UNL     1       1.514   4.066  18.416  0.00  0.00    +0.000 A 
ATOM     28  N   UNL     1       2.416   3.791  17.468  0.00  0.00    +0.000 NA
ATOM     29  C   UNL     1       3.403   4.702  17.418  0.00  0.00    +0.000 A 
ATOM     30  S   UNL     1       4.677   4.559  16.293  0.00  0.00    +0.000 S 
ATOM     31  C   UNL     1       5.432   5.980  16.874  0.00  0.00    +0.000 A 
ATOM     32  C   UNL     1       4.721   6.554  17.905  0.00  0.00    +0.000 A 
ATOM     33  C   UNL     1       3.525   5.823  18.219  0.00  0.00    +0.000 A 
ENDBRANCH  24  25
ENDBRANCH  21  24
ENDBRANCH   2  18
TORSDOF 4
ENDMDL
MODEL 3
REMARK VINA RESULT:      -9.1      1.323      2.469
REMARK  Name = 
REMARK  5 active torsions:
REMARK  status: ('A' for Active; 'I' for Inactive)
REMARK    1  A    between atoms: C_1  and  N_2
REMARK    2  A    between atoms: N_2  and  C_3
REMARK    3  A    between atoms: C_6  and  O_7
REMARK    4  A    between atoms: O_7  and  C_8
REMARK    5  A    between atoms: C_23  and  N_24
REMARK                            x       y       z     vdW  Elec       q    Type
REMARK                         _______ _______ _______ _____ _____    ______ ____
ROOT
ATOM      1  C   UNL     1       1.720  10.964  17.984  0.00  0.00    +0.000 C 
ATOM      2  N   UNL     1       0.644  10.470  18.834  0.00  0.00    +0.000 N 
ATOM      3  C   UNL     1       1.053   9.373  19.626  0.00  0.00    +0.000 A 
ATOM      4  N   UNL     1       0.720   9.396  20.928  0.00  0.00    +0.000 NA
ATOM      5  C   UNL     1       1.100   8.354  21.685  0.00  0.00    +0.000 A 
ATOM      6  C   UNL     1       1.784   7.269  21.200  0.00  0.00    +0.000 A 
ATOM      7  C   UNL     1       2.104   7.298  19.858  0.00  0.00    +0.000 A 
ATOM      8  N   UNL     1       1.748   8.353  19.080  0.00  0.00    +0.000 NA
ENDROOT
BRANCH   7   9
ATOM      9  N   UNL     1       3.025   6.291  19.383  0.00  0.00    +0.000 N 
ATOM     10  C   UNL     1       3.452   6.735  18.017  0.00  0.00    +0.000 C 
ATOM     11  C   UNL     1       3.990   5.517  17.289  0.00  0.00    +0.000 C 
ATOM     12  C   UNL     1       3.049   4.510  17.828  0.00  0.00    +0.000 A 
ATOM     13  C   UNL     1       2.645   3.317  17.254  0.00  0.00    +0.000 A 
ATOM     14  C   UNL     1       1.992   2.412  18.080  0.00  0.00    +0.000 A 
ATOM     15  C   UNL     1       1.828   2.698  19.446  0.00  0.00    +0.000 A 
ATOM     16  C   UNL     1       2.139   3.967  19.971  0.00  0.00    +0.000 A 
ATOM     17  C   UNL     1       2.664   4.919  19.113  0.00  0.00    +0.000 A 
ENDBRANCH   7   9
BRANCH   2  18
ATOM     18  C   UNL     1      -0.701  10.789  18.551  0.00  0.00    +0.000 A 
ATOM     19  C   UNL     1      -1.355  11.799  19.281  0.00  0.00    +0.000 A 
ATOM     20  C   UNL     1      -2.690  12.145  19.052  0.00  0.00    +0.000 A 
ATOM     21  C   UNL     1      -3.424  11.498  18.067  0.00  0.00    +0.000 A 
ATOM     22  C   UNL     1      -2.816  10.491  17.323  0.00  0.00    +0.000 A 
ATOM     23  C   UNL     1      -1.466  10.155  17.555  0.00  0.00    +0.000 A 
BRANCH  21  24
ATOM     24  O   UNL     1      -4.746  11.852  18.003  0.00  0.00    +0.000 OA
BRANCH  24  25
ATOM     25  C   UNL     1      -5.651  11.339  18.916  0.00  0.00    +0.000 A 
ATOM     26  N   UNL     1      -6.165  10.098  18.762  0.00  0.00    +0.000 NA
ATOM     27  C   UNL     1      -7.075   9.687  19.658  0.00  0.00    +0.000 A 
ATOM     28  N   UNL     1      -7.554  10.364  20.707  0.00  0.00    +0.000 NA
ATOM     29  C   UNL     1      -7.035  11.599  20.801  0.00  0.00    +0.000 A 
ATOM     30  S   UNL     1      -7.501  12.656  22.056  0.00  0.00    +0.000 S 
ATOM     31  C   UNL     1      -6.482  13.901  21.471  0.00  0.00    +0.000 A 
ATOM     32  C   UNL     1      -5.796  13.512  20.341  0.00  0.00    +0.000 A 
ATOM     33  C   UNL     1      -6.100  12.164  19.952  0.00  0.00    +0.000 A 
ENDBRANCH  24  25
ENDBRANCH  21  24
ENDBRANCH   2  18
TORSDOF 4
ENDMDL
MODEL 4
REMARK VINA RESULT:      -9.0      3.661     10.422
REMARK  Name = 
REMARK  5 active torsions:
REMARK  status: ('A' for Active; 'I' for Inactive)
REMARK    1  A    between atoms: C_1  and  N_2
REMARK    2  A    between atoms: N_2  and  C_3
REMARK    3  A    between atoms: C_6  and  O_7
REMARK    4  A    between atoms: O_7  and  C_8
REMARK    5  A    between atoms: C_23  and  N_24
REMARK                            x       y       z     vdW  Elec       q    Type
REMARK                         _______ _______ _______ _____ _____    ______ ____
ROOT
ATOM      1  C   UNL     1      -0.788   9.503  22.322  0.00  0.00    +0.000 C 
ATOM      2  N   UNL     1      -0.013  10.047  21.214  0.00  0.00    +0.000 N 
ATOM      3  C   UNL     1      -0.492  11.312  20.801  0.00  0.00    +0.000 A 
ATOM      4  N   UNL     1       0.420  12.279  20.601  0.00  0.00    +0.000 NA
ATOM      5  C   UNL     1      -0.028  13.481  20.202  0.00  0.00    +0.000 A 
ATOM      6  C   UNL     1      -1.349  13.763  19.969  0.00  0.00    +0.000 A 
ATOM      7  C   UNL     1      -2.243  12.736  20.193  0.00  0.00    +0.000 A 
ATOM      8  N   UNL     1      -1.812  11.519  20.618  0.00  0.00    +0.000 NA
ENDROOT
BRANCH   7   9
ATOM      9  N   UNL     1      -3.646  13.077  20.189  0.00  0.00    +0.000 N 
ATOM     10  C   UNL     1      -4.096  12.990  21.616  0.00  0.00    +0.000 C 
ATOM     11  C   UNL     1      -5.606  12.837  21.611  0.00  0.00    +0.000 C 
ATOM     12  C   UNL     1      -5.732  11.983  20.408  0.00  0.00    +0.000 A 
ATOM     13  C   UNL     1      -6.734  11.082  20.095  0.00  0.00    +0.000 A 
ATOM     14  C   UNL     1      -6.783  10.626  18.785  0.00  0.00    +0.000 A 
ATOM     15  C   UNL     1      -5.882  11.130  17.832  0.00  0.00    +0.000 A 
ATOM     16  C   UNL     1      -4.800  11.950  18.207  0.00  0.00    +0.000 A 
ATOM     17  C   UNL     1      -4.673  12.294  19.542  0.00  0.00    +0.000 A 
ENDBRANCH   7   9
BRANCH   2  18
ATOM     18  C   UNL     1       0.801   9.208  20.424  0.00  0.00    +0.000 A 
ATOM     19  C   UNL     1       1.042   9.526  19.075  0.00  0.00    +0.000 A 
ATOM     20  C   UNL     1       1.827   8.723  18.243  0.00  0.00    +0.000 A 
ATOM     21  C   UNL     1       2.420   7.568  18.738  0.00  0.00    +0.000 A 
ATOM     22  C   UNL     1       2.206   7.216  20.067  0.00  0.00    +0.000 A 
ATOM     23  C   UNL     1       1.419   8.037  20.900  0.00  0.00    +0.000 A 
BRANCH  21  24
ATOM     24  O   UNL     1       3.082   6.812  17.807  0.00  0.00    +0.000 OA
BRANCH  24  25
ATOM     25  C   UNL     1       3.860   5.739  18.203  0.00  0.00    +0.000 A 
ATOM     26  N   UNL     1       5.175   5.897  18.474  0.00  0.00    +0.000 NA
ATOM     27  C   UNL     1       5.877   4.802  18.804  0.00  0.00    +0.000 A 
ATOM     28  N   UNL     1       5.434   3.544  18.898  0.00  0.00    +0.000 NA
ATOM     29  C   UNL     1       4.131   3.434  18.593  0.00  0.00    +0.000 A 
ATOM     30  S   UNL     1       3.342   1.923  18.633  0.00  0.00    +0.000 S 
ATOM     31  C   UNL     1       1.858   2.613  18.135  0.00  0.00    +0.000 A 
ATOM     32  C   UNL     1       1.964   3.974  17.947  0.00  0.00    +0.000 A 
ATOM     33  C   UNL     1       3.284   4.465  18.228  0.00  0.00    +0.000 A 
ENDBRANCH  24  25
ENDBRANCH  21  24
ENDBRANCH   2  18
TORSDOF 4
ENDMDL
MODEL 5
REMARK VINA RESULT:      -9.0      3.654     10.550
REMARK  Name = 
REMARK  5 active torsions:
REMARK  status: ('A' for Active; 'I' for Inactive)
REMARK    1  A    between atoms: C_1  and  N_2
REMARK    2  A    between atoms: N_2  and  C_3
REMARK    3  A    between atoms: C_6  and  O_7
REMARK    4  A    between atoms: O_7  and  C_8
REMARK    5  A    between atoms: C_23  and  N_24
REMARK                            x       y       z     vdW  Elec       q    Type
REMARK                         _______ _______ _______ _____ _____    ______ ____
ROOT
ATOM      1  C   UNL     1       0.571  12.344  18.815  0.00  0.00    +0.000 C 
ATOM      2  N   UNL     1       0.033  11.012  18.571  0.00  0.00    +0.000 N 
ATOM      3  C   UNL     1      -1.355  11.040  18.304  0.00  0.00    +0.000 A 
ATOM      4  N   UNL     1      -1.795  10.318  17.259  0.00  0.00    +0.000 NA
ATOM      5  C   UNL     1      -3.114  10.335  17.004  0.00  0.00    +0.000 A 
ATOM      6  C   UNL     1      -4.027  11.026  17.758  0.00  0.00    +0.000 A 
ATOM      7  C   UNL     1      -3.522  11.754  18.815  0.00  0.00    +0.000 A 
ATOM      8  N   UNL     1      -2.188  11.767  19.077  0.00  0.00    +0.000 NA
ENDROOT
BRANCH   7   9
ATOM      9  N   UNL     1      -4.425  12.673  19.468  0.00  0.00    +0.000 N 
ATOM     10  C   UNL     1      -3.653  13.273  20.604  0.00  0.00    +0.000 C 
ATOM     11  C   UNL     1      -4.658  13.831  21.595  0.00  0.00    +0.000 C 
ATOM     12  C   UNL     1      -5.698  12.787  21.458  0.00  0.00    +0.000 A 
ATOM     13  C   UNL     1      -6.648  12.393  22.384  0.00  0.00    +0.000 A 
ATOM     14  C   UNL     1      -7.694  11.608  21.918  0.00  0.00    +0.000 A 
ATOM     15  C   UNL     1      -7.787  11.304  20.549  0.00  0.00    +0.000 A 
ATOM     16  C   UNL     1      -6.744  11.615  19.656  0.00  0.00    +0.000 A 
ATOM     17  C   UNL     1      -5.635  12.279  20.152  0.00  0.00    +0.000 A 
ENDBRANCH   7   9
BRANCH   2  18
ATOM     18  C   UNL     1       0.740   9.863  18.984  0.00  0.00    +0.000 A 
ATOM     19  C   UNL     1       1.558   9.173  18.071  0.00  0.00    +0.000 A 
ATOM     20  C   UNL     1       2.268   8.021  18.422  0.00  0.00    +0.000 A 
ATOM     21  C   UNL     1       2.199   7.521  19.716  0.00  0.00    +0.000 A 
ATOM     22  C   UNL     1       1.400   8.173  20.650  0.00  0.00    +0.000 A 
ATOM     23  C   UNL     1       0.694   9.338  20.289  0.00  0.00    +0.000 A 
BRANCH  21  24
ATOM     24  O   UNL     1       2.856   6.335  19.914  0.00  0.00    +0.000 OA
BRANCH  24  25
ATOM     25  C   UNL     1       2.817   5.345  18.949  0.00  0.00    +0.000 A 
ATOM     26  N   UNL     1       1.761   4.506  18.857  0.00  0.00    +0.000 NA
ATOM     27  C   UNL     1       1.815   3.539  17.929  0.00  0.00    +0.000 A 
ATOM     28  N   UNL     1       2.804   3.287  17.066  0.00  0.00    +0.000 NA
ATOM     29  C   UNL     1       3.841   4.128  17.215  0.00  0.00    +0.000 A 
ATOM     30  S   UNL     1       5.228   3.998  16.230  0.00  0.00    +0.000 S 
ATOM     31  C   UNL     1       5.992   5.306  17.025  0.00  0.00    +0.000 A 
ATOM     32  C   UNL     1       5.199   5.834  18.021  0.00  0.00    +0.000 A 
ATOM     33  C   UNL     1       3.934   5.163  18.129  0.00  0.00    +0.000 A 
ENDBRANCH  24  25
ENDBRANCH  21  24
ENDBRANCH   2  18
TORSDOF 4
ENDMDL
MODEL 6
REMARK VINA RESULT:      -8.9      3.790     10.432
REMARK  Name = 
REMARK  5 active torsions:
REMARK  status: ('A' for Active; 'I' for Inactive)
REMARK    1  A    between atoms: C_1  and  N_2
REMARK    2  A    between atoms: N_2  and  C_3
REMARK    3  A    between atoms: C_6  and  O_7
REMARK    4  A    between atoms: O_7  and  C_8
REMARK    5  A    between atoms: C_23  and  N_24
REMARK                            x       y       z     vdW  Elec       q    Type
REMARK                         _______ _______ _______ _____ _____    ______ ____
ROOT
ATOM      1  C   UNL     1       0.841  12.575  19.062  0.00  0.00    +0.000 C 
ATOM      2  N   UNL     1       0.175  11.311  18.779  0.00  0.00    +0.000 N 
ATOM      3  C   UNL     1      -1.228  11.459  18.677  0.00  0.00    +0.000 A 
ATOM      4  N   UNL     1      -1.836  10.864  17.638  0.00  0.00    +0.000 NA
ATOM      5  C   UNL     1      -3.169  10.996  17.539  0.00  0.00    +0.000 A 
ATOM      6  C   UNL     1      -3.936  11.681  18.446  0.00  0.00    +0.000 A 
ATOM      7  C   UNL     1      -3.261  12.276  19.492  0.00  0.00    +0.000 A 
ATOM      8  N   UNL     1      -1.910  12.173  19.597  0.00  0.00    +0.000 NA
ENDROOT
BRANCH   7   9
ATOM      9  N   UNL     1      -4.011  13.197  20.315  0.00  0.00    +0.000 N 
ATOM     10  C   UNL     1      -3.129  13.517  21.483  0.00  0.00    +0.000 C 
ATOM     11  C   UNL     1      -4.017  14.045  22.595  0.00  0.00    +0.000 C 
ATOM     12  C   UNL     1      -5.192  13.176  22.364  0.00  0.00    +0.000 A 
ATOM     13  C   UNL     1      -6.155  12.774  23.272  0.00  0.00    +0.000 A 
ATOM     14  C   UNL     1      -7.312  12.208  22.753  0.00  0.00    +0.000 A 
ATOM     15  C   UNL     1      -7.490  12.125  21.362  0.00  0.00    +0.000 A 
ATOM     16  C   UNL     1      -6.444  12.428  20.469  0.00  0.00    +0.000 A 
ATOM     17  C   UNL     1      -5.240  12.864  20.997  0.00  0.00    +0.000 A 
ENDBRANCH   7   9
BRANCH   2  18
ATOM     18  C   UNL     1       0.829  10.083  19.015  0.00  0.00    +0.000 A 
ATOM     19  C   UNL     1       0.848   9.532  20.310  0.00  0.00    +0.000 A 
ATOM     20  C   UNL     1       1.494   8.327  20.602  0.00  0.00    +0.000 A 
ATOM     21  C   UNL     1       2.137   7.614  19.600  0.00  0.00    +0.000 A 
ATOM     22  C   UNL     1       2.143   8.124  18.305  0.00  0.00    +0.000 A 
ATOM     23  C   UNL     1       1.482   9.336  18.018  0.00  0.00    +0.000 A 
BRANCH  21  24
ATOM     24  O   UNL     1       2.817   6.503  20.024  0.00  0.00    +0.000 OA
BRANCH  24  25
ATOM     25  C   UNL     1       2.276   5.242  19.845  0.00  0.00    +0.000 A 
ATOM     26  N   UNL     1       1.292   4.787  20.651  0.00  0.00    +0.000 NA
ATOM     27  C   UNL     1       0.851   3.537  20.450  0.00  0.00    +0.000 A 
ATOM     28  N   UNL     1       1.274   2.658  19.535  0.00  0.00    +0.000 NA
ATOM     29  C   UNL     1       2.271   3.145  18.777  0.00  0.00    +0.000 A 
ATOM     30  S   UNL     1       2.982   2.202  17.546  0.00  0.00    +0.000 S 
ATOM     31  C   UNL     1       4.076   3.452  17.135  0.00  0.00    +0.000 A 
ATOM     32  C   UNL     1       3.896   4.569  17.922  0.00  0.00    +0.000 A 
ATOM     33  C   UNL     1       2.834   4.405  18.873  0.00  0.00    +0.000 A 
ENDBRANCH  24  25
ENDBRANCH  21  24
ENDBRANCH   2  18
TORSDOF 4
ENDMDL
MODEL 7
REMARK VINA RESULT:      -8.9      3.454     10.487
REMARK  Name = 
REMARK  5 active torsions:
REMARK  status: ('A' for Active; 'I' for Inactive)
REMARK    1  A    between atoms: C_1  and  N_2
REMARK    2  A    between atoms: N_2  and  C_3
REMARK    3  A    between atoms: C_6  and  O_7
REMARK    4  A    between atoms: O_7  and  C_8
REMARK    5  A    between atoms: C_23  and  N_24
REMARK                            x       y       z     vdW  Elec       q    Type
REMARK                         _______ _______ _______ _____ _____    ______ ____
ROOT
ATOM      1  C   UNL     1       0.173  12.631  18.544  0.00  0.00    +0.000 C 
ATOM      2  N   UNL     1      -0.374  11.285  18.428  0.00  0.00    +0.000 N 
ATOM      3  C   UNL     1      -1.786  11.289  18.359  0.00  0.00    +0.000 A 
ATOM      4  N   UNL     1      -2.358  10.524  17.414  0.00  0.00    +0.000 NA
ATOM      5  C   UNL     1      -3.700  10.518  17.347  0.00  0.00    +0.000 A 
ATOM      6  C   UNL     1      -4.508  11.228  18.198  0.00  0.00    +0.000 A 
ATOM      7  C   UNL     1      -3.870  12.000  19.146  0.00  0.00    +0.000 A 
ATOM      8  N   UNL     1      -2.512  12.037  19.216  0.00  0.00    +0.000 NA
ENDROOT
BRANCH   7   9
ATOM      9  N   UNL     1      -4.685  12.935  19.886  0.00  0.00    +0.000 N 
ATOM     10  C   UNL     1      -3.781  13.548  20.912  0.00  0.00    +0.000 C 
ATOM     11  C   UNL     1      -4.659  14.128  22.007  0.00  0.00    +0.000 C 
ATOM     12  C   UNL     1      -5.712  13.087  22.012  0.00  0.00    +0.000 A 
ATOM     13  C   UNL     1      -6.546  12.714  23.050  0.00  0.00    +0.000 A 
ATOM     14  C   UNL     1      -7.643  11.928  22.725  0.00  0.00    +0.000 A 
ATOM     15  C   UNL     1      -7.900  11.602  21.382  0.00  0.00    +0.000 A 
ATOM     16  C   UNL     1      -6.969  11.892  20.366  0.00  0.00    +0.000 A 
ATOM     17  C   UNL     1      -5.807  12.558  20.716  0.00  0.00    +0.000 A 
ENDBRANCH   7   9
BRANCH   2  18
ATOM     18  C   UNL     1       0.401  10.159  18.778  0.00  0.00    +0.000 A 
ATOM     19  C   UNL     1       0.369   9.662  20.094  0.00  0.00    +0.000 A 
ATOM     20  C   UNL     1       1.128   8.560  20.498  0.00  0.00    +0.000 A 
ATOM     21  C   UNL     1       1.944   7.898  19.589  0.00  0.00    +0.000 A 
ATOM     22  C   UNL     1       2.006   8.358  18.278  0.00  0.00    +0.000 A 
ATOM     23  C   UNL     1       1.231   9.465  17.877  0.00  0.00    +0.000 A 
BRANCH  21  24
ATOM     24  O   UNL     1       2.713   6.898  20.123  0.00  0.00    +0.000 OA
BRANCH  24  25
ATOM     25  C   UNL     1       3.073   5.806  19.353  0.00  0.00    +0.000 A 
ATOM     26  N   UNL     1       4.085   5.888  18.462  0.00  0.00    +0.000 NA
ATOM     27  C   UNL     1       4.345   4.804  17.715  0.00  0.00    +0.000 A 
ATOM     28  N   UNL     1       3.713   3.626  17.736  0.00  0.00    +0.000 NA
ATOM     29  C   UNL     1       2.698   3.603  18.616  0.00  0.00    +0.000 A 
ATOM     30  S   UNL     1       1.737   2.208  18.815  0.00  0.00    +0.000 S 
ATOM     31  C   UNL     1       0.760   2.973  19.993  0.00  0.00    +0.000 A 
ATOM     32  C   UNL     1       1.165   4.268  20.232  0.00  0.00    +0.000 A 
ATOM     33  C   UNL     1       2.306   4.640  19.444  0.00  0.00    +0.000 A 
ENDBRANCH  24  25
ENDBRANCH  21  24
ENDBRANCH   2  18
TORSDOF 4
ENDMDL
MODEL 8
REMARK VINA RESULT:      -8.8      3.753     10.658
REMARK  Name = 
REMARK  5 active torsions:
REMARK  status: ('A' for Active; 'I' for Inactive)
REMARK    1  A    between atoms: C_1  and  N_2
REMARK    2  A    between atoms: N_2  and  C_3
REMARK    3  A    between atoms: C_6  and  O_7
REMARK    4  A    between atoms: O_7  and  C_8
REMARK    5  A    between atoms: C_23  and  N_24
REMARK                            x       y       z     vdW  Elec       q    Type
REMARK                         _______ _______ _______ _____ _____    ______ ____
ROOT
ATOM      1  C   UNL     1       0.828  12.692  19.105  0.00  0.00    +0.000 C 
ATOM      2  N   UNL     1       0.128  11.441  18.844  0.00  0.00    +0.000 N 
ATOM      3  C   UNL     1      -1.277  11.599  18.889  0.00  0.00    +0.000 A 
ATOM      4  N   UNL     1      -1.990  11.044  17.895  0.00  0.00    +0.000 NA
ATOM      5  C   UNL     1      -3.325  11.184  17.935  0.00  0.00    +0.000 A 
ATOM      6  C   UNL     1      -3.993  11.837  18.938  0.00  0.00    +0.000 A 
ATOM      7  C   UNL     1      -3.213  12.392  19.932  0.00  0.00    +0.000 A 
ATOM      8  N   UNL     1      -1.858  12.280  19.898  0.00  0.00    +0.000 NA
ENDROOT
BRANCH   7   9
ATOM      9  N   UNL     1      -3.870  13.283  20.860  0.00  0.00    +0.000 N 
ATOM     10  C   UNL     1      -2.951  13.402  22.038  0.00  0.00    +0.000 C 
ATOM     11  C   UNL     1      -3.778  13.888  23.214  0.00  0.00    +0.000 C 
ATOM     12  C   UNL     1      -5.028  13.153  22.917  0.00  0.00    +0.000 A 
ATOM     13  C   UNL     1      -6.015  12.745  23.797  0.00  0.00    +0.000 A 
ATOM     14  C   UNL     1      -7.222  12.338  23.245  0.00  0.00    +0.000 A 
ATOM     15  C   UNL     1      -7.420  12.416  21.856  0.00  0.00    +0.000 A 
ATOM     16  C   UNL     1      -6.359  12.718  20.980  0.00  0.00    +0.000 A 
ATOM     17  C   UNL     1      -5.117  12.990  21.527  0.00  0.00    +0.000 A 
ENDBRANCH   7   9
BRANCH   2  18
ATOM     18  C   UNL     1       0.794  10.204  18.969  0.00  0.00    +0.000 A 
ATOM     19  C   UNL     1       0.816   9.536  20.207  0.00  0.00    +0.000 A 
ATOM     20  C   UNL     1       1.472   8.316  20.390  0.00  0.00    +0.000 A 
ATOM     21  C   UNL     1       2.125   7.704  19.328  0.00  0.00    +0.000 A 
ATOM     22  C   UNL     1       2.129   8.331  18.086  0.00  0.00    +0.000 A 
ATOM     23  C   UNL     1       1.457   9.558  17.909  0.00  0.00    +0.000 A 
BRANCH  21  24
ATOM     24  O   UNL     1       2.815   6.565  19.651  0.00  0.00    +0.000 OA
BRANCH  24  25
ATOM     25  C   UNL     1       2.848   5.496  18.774  0.00  0.00    +0.000 A 
ATOM     26  N   UNL     1       1.865   4.568  18.772  0.00  0.00    +0.000 NA
ATOM     27  C   UNL     1       1.989   3.533  17.929  0.00  0.00    +0.000 A 
ATOM     28  N   UNL     1       2.987   3.291  17.072  0.00  0.00    +0.000 NA
ATOM     29  C   UNL     1       3.952   4.223  17.130  0.00  0.00    +0.000 A 
ATOM     30  S   UNL     1       5.333   4.124  16.135  0.00  0.00    +0.000 S 
ATOM     31  C   UNL     1       5.994   5.554  16.803  0.00  0.00    +0.000 A 
ATOM     32  C   UNL     1       5.171   6.098  17.765  0.00  0.00    +0.000 A 
ATOM     33  C   UNL     1       3.968   5.337  17.952  0.00  0.00    +0.000 A 
ENDBRANCH  24  25
ENDBRANCH  21  24
ENDBRANCH   2  18
TORSDOF 4
ENDMDL
MODEL 9
REMARK VINA RESULT:      -8.8      0.941      1.606
REMARK  Name = 
REMARK  5 active torsions:
REMARK  status: ('A' for Active; 'I' for Inactive)
REMARK    1  A    between atoms: C_1  and  N_2
REMARK    2  A    between atoms: N_2  and  C_3
REMARK    3  A    between atoms: C_6  and  O_7
REMARK    4  A    between atoms: O_7  and  C_8
REMARK    5  A    between atoms: C_23  and  N_24
REMARK                            x       y       z     vdW  Elec       q    Type
REMARK                         _______ _______ _______ _____ _____    ______ ____
ROOT
ATOM      1  C   UNL     1       2.177  10.822  17.904  0.00  0.00    +0.000 C 
ATOM      2  N   UNL     1       1.143  10.156  18.685  0.00  0.00    +0.000 N 
ATOM      3  C   UNL     1       1.536   8.860  19.092  0.00  0.00    +0.000 A 
ATOM      4  N   UNL     1       1.317   8.524  20.374  0.00  0.00    +0.000 NA
ATOM      5  C   UNL     1       1.681   7.292  20.765  0.00  0.00    +0.000 A 
ATOM      6  C   UNL     1       2.240   6.361  19.928  0.00  0.00    +0.000 A 
ATOM      7  C   UNL     1       2.448   6.759  18.623  0.00  0.00    +0.000 A 
ATOM      8  N   UNL     1       2.106   8.009  18.213  0.00  0.00    +0.000 NA
ENDROOT
BRANCH   7   9
ATOM      9  N   UNL     1       3.249   5.889  17.793  0.00  0.00    +0.000 N 
ATOM     10  C   UNL     1       3.106   4.516  18.376  0.00  0.00    +0.000 C 
ATOM     11  C   UNL     1       4.280   3.687  17.887  0.00  0.00    +0.000 C 
ATOM     12  C   UNL     1       5.316   4.744  17.912  0.00  0.00    +0.000 A 
ATOM     13  C   UNL     1       6.684   4.602  18.056  0.00  0.00    +0.000 A 
ATOM     14  C   UNL     1       7.467   5.708  17.751  0.00  0.00    +0.000 A 
ATOM     15  C   UNL     1       6.866   6.879  17.257  0.00  0.00    +0.000 A 
ATOM     16  C   UNL     1       5.466   7.033  17.238  0.00  0.00    +0.000 A 
ATOM     17  C   UNL     1       4.687   5.975  17.673  0.00  0.00    +0.000 A 
ENDBRANCH   7   9
BRANCH   2  18
ATOM     18  C   UNL     1      -0.194  10.604  18.642  0.00  0.00    +0.000 A 
ATOM     19  C   UNL     1      -1.076  10.098  17.670  0.00  0.00    +0.000 A 
ATOM     20  C   UNL     1      -2.406  10.518  17.573  0.00  0.00    +0.000 A 
ATOM     21  C   UNL     1      -2.912  11.457  18.462  0.00  0.00    +0.000 A 
ATOM     22  C   UNL     1      -2.073  11.984  19.437  0.00  0.00    +0.000 A 
ATOM     23  C   UNL     1      -0.735  11.549  19.533  0.00  0.00    +0.000 A 
BRANCH  21  24
ATOM     24  O   UNL     1      -4.196  11.863  18.206  0.00  0.00    +0.000 OA
BRANCH  24  25
ATOM     25  C   UNL     1      -5.056  12.159  19.249  0.00  0.00    +0.000 A 
ATOM     26  N   UNL     1      -4.944  13.319  19.933  0.00  0.00    +0.000 NA
ATOM     27  C   UNL     1      -5.780  13.516  20.963  0.00  0.00    +0.000 A 
ATOM     28  N   UNL     1      -6.731  12.690  21.415  0.00  0.00    +0.000 NA
ATOM     29  C   UNL     1      -6.784  11.541  20.721  0.00  0.00    +0.000 A 
ATOM     30  S   UNL     1      -7.913  10.325  21.118  0.00  0.00    +0.000 S 
ATOM     31  C   UNL     1      -7.337   9.298  19.878  0.00  0.00    +0.000 A 
ATOM     32  C   UNL     1      -6.304   9.876  19.172  0.00  0.00    +0.000 A 
ATOM     33  C   UNL     1      -5.985  11.193  19.646  0.00  0.00    +0.000 A 
ENDBRANCH  24  25
ENDBRANCH  21  24
ENDBRANCH   2  18
TORSDOF 4
ENDMDL
