MODEL 1
REMARK VINA RESULT:      -9.3      0.000      0.000
REMARK  Name = 
REMARK  5 active torsions:
REMARK  status: ('A' for Active; 'I' for Inactive)
REMARK    1  A    between atoms: C_5  and  S_6
REMARK    2  A    between atoms: S_6  and  N_9
REMARK    3  A    between atoms: N_9  and  C_10
REMARK    4  A    between atoms: C_15  and  C_16
REMARK    5  A    between atoms: N_18  and  C_19
REMARK                            x       y       z     vdW  Elec       q    Type
REMARK                         _______ _______ _______ _____ _____    ______ ____
ROOT
ATOM      1  C   UNL     1       3.371   4.085  18.037  0.00  0.00    +0.000 A 
ATOM      2  C   UNL     1       3.402   2.716  17.738  0.00  0.00    +0.000 A 
ATOM      3  C   UNL     1       2.423   1.856  18.241  0.00  0.00    +0.000 A 
ATOM      4  C   UNL     1       1.421   2.351  19.065  0.00  0.00    +0.000 A 
ATOM      5  C   UNL     1       1.394   3.709  19.383  0.00  0.00    +0.000 A 
ATOM      6  C   UNL     1       2.357   4.605  18.872  0.00  0.00    +0.000 A 
ENDROOT
BRANCH   6   7
ATOM      7  C   UNL     1       2.237   6.027  19.166  0.00  0.00    +0.000 A 
ATOM      8  C   UNL     1       1.827   6.578  20.361  0.00  0.00    +0.000 A 
ATOM      9  N   UNL     1       1.675   7.918  20.098  0.00  0.00    +0.000 N 
ATOM     10  N   UNL     1       2.164   8.191  18.866  0.00  0.00    +0.000 NA
ATOM     11  N   UNL     1       2.474   7.044  18.282  0.00  0.00    +0.000 NA
BRANCH   9  12
ATOM     12  C   UNL     1       1.042   8.898  20.901  0.00  0.00    +0.000 A 
ATOM     13  C   UNL     1       0.435   8.543  22.118  0.00  0.00    +0.000 A 
ATOM     14  C   UNL     1      -0.251   9.505  22.859  0.00  0.00    +0.000 A 
ATOM     15  C   UNL     1      -0.331  10.808  22.387  0.00  0.00    +0.000 A 
ATOM     16  F   UNL     1      -1.007  11.722  23.094  0.00  0.00    +0.000 F 
ATOM     17  C   UNL     1       0.270  11.175  21.188  0.00  0.00    +0.000 A 
ATOM     18  C   UNL     1       0.965  10.221  20.442  0.00  0.00    +0.000 A 
ENDBRANCH   9  12
ENDBRANCH   6   7
BRANCH   1  19
ATOM     19  N   UNL     1       4.378   4.924  17.451  0.00  0.00    +0.000 N 
ATOM     20  H   UNL     1       4.314   4.981  16.434  0.00  0.00    +0.000 HD
BRANCH  19  21
ATOM     21  S   UNL     1       6.011   4.647  17.849  0.00  0.00    +0.000 S 
ATOM     22  O   UNL     1       6.506   3.910  16.695  0.00  0.00    +0.000 OA
ATOM     23  O   UNL     1       6.025   3.962  19.127  0.00  0.00    +0.000 OA
BRANCH  21  28
ATOM     24  O   UNL     1       8.941   9.604  18.251  0.00  0.00    +0.000 OA
ATOM     25  C   UNL     1       8.304   8.559  18.153  0.00  0.00    +0.000 A 
ATOM     26  N   UNL     1       8.503   7.497  18.989  0.00  0.00    +0.000 N 
ATOM     27  C   UNL     1       7.816   6.313  18.885  0.00  0.00    +0.000 A 
ATOM     28  C   UNL     1       6.863   6.139  17.956  0.00  0.00    +0.000 A 
ATOM     29  C   UNL     1       6.544   7.269  17.072  0.00  0.00    +0.000 A 
ATOM     30  O   UNL     1       5.641   7.256  16.245  0.00  0.00    +0.000 OA
ATOM     31  N   UNL     1       7.337   8.382  17.205  0.00  0.00    +0.000 N 
ATOM     32  H   UNL     1       9.223   7.615  19.695  0.00  0.00    +0.000 HD
ATOM     33  H   UNL     1       7.139   9.163  16.599  0.00  0.00    +0.000 HD
ENDBRANCH  21  28
ENDBRANCH  19  21
ENDBRANCH   1  19
TORSDOF 5
ENDMDL
MODEL 2
REMARK VINA RESULT:      -9.3      0.696      1.251
REMARK  Name = 
REMARK  5 active torsions:
REMARK  status: ('A' for Active; 'I' for Inactive)
REMARK    1  A    between atoms: C_5  and  S_6
REMARK    2  A    between atoms: S_6  and  N_9
REMARK    3  A    between atoms: N_9  and  C_10
REMARK    4  A    between atoms: C_15  and  C_16
REMARK    5  A    between atoms: N_18  and  C_19
REMARK                            x       y       z     vdW  Elec       q    Type
REMARK                         _______ _______ _______ _____ _____    ______ ____
ROOT
ATOM      1  C   UNL     1       3.294   4.148  17.833  0.00  0.00    +0.000 A 
ATOM      2  C   UNL     1       3.285   2.792  17.473  0.00  0.00    +0.000 A 
ATOM      3  C   UNL     1       2.270   1.944  17.920  0.00  0.00    +0.000 A 
ATOM      4  C   UNL     1       1.269   2.436  18.749  0.00  0.00    +0.000 A 
ATOM      5  C   UNL     1       1.282   3.778  19.128  0.00  0.00    +0.000 A 
ATOM      6  C   UNL     1       2.283   4.663  18.674  0.00  0.00    +0.000 A 
ENDROOT
BRANCH   6   7
ATOM      7  C   UNL     1       2.203   6.074  19.030  0.00  0.00    +0.000 A 
ATOM      8  C   UNL     1       1.721   6.588  20.214  0.00  0.00    +0.000 A 
ATOM      9  N   UNL     1       1.653   7.944  20.009  0.00  0.00    +0.000 N 
ATOM     10  N   UNL     1       2.255   8.251  18.837  0.00  0.00    +0.000 NA
ATOM     11  N   UNL     1       2.560   7.118  18.222  0.00  0.00    +0.000 NA
BRANCH   9  12
ATOM     12  C   UNL     1       1.000   8.915  20.807  0.00  0.00    +0.000 A 
ATOM     13  C   UNL     1       0.981   8.795  22.207  0.00  0.00    +0.000 A 
ATOM     14  C   UNL     1       0.269   9.717  22.974  0.00  0.00    +0.000 A 
ATOM     15  C   UNL     1      -0.418  10.747  22.347  0.00  0.00    +0.000 A 
ATOM     16  F   UNL     1      -1.115  11.619  23.088  0.00  0.00    +0.000 F 
ATOM     17  C   UNL     1      -0.402  10.883  20.964  0.00  0.00    +0.000 A 
ATOM     18  C   UNL     1       0.313   9.970  20.187  0.00  0.00    +0.000 A 
ENDBRANCH   9  12
ENDBRANCH   6   7
BRANCH   1  19
ATOM     19  N   UNL     1       4.338   4.978  17.303  0.00  0.00    +0.000 N 
ATOM     20  H   UNL     1       4.314   5.055  16.285  0.00  0.00    +0.000 HD
BRANCH  19  21
ATOM     21  S   UNL     1       5.950   4.661  17.756  0.00  0.00    +0.000 S 
ATOM     22  O   UNL     1       6.472   3.928  16.611  0.00  0.00    +0.000 OA
ATOM     23  O   UNL     1       5.902   3.960  19.025  0.00  0.00    +0.000 OA
BRANCH  21  28
ATOM     24  O   UNL     1       8.821   9.643  18.252  0.00  0.00    +0.000 OA
ATOM     25  C   UNL     1       8.225   8.574  18.158  0.00  0.00    +0.000 A 
ATOM     26  N   UNL     1       7.235   8.364  17.240  0.00  0.00    +0.000 N 
ATOM     27  C   UNL     1       6.542   7.184  17.131  0.00  0.00    +0.000 A 
ATOM     28  C   UNL     1       6.828   6.133  17.915  0.00  0.00    +0.000 A 
ATOM     29  C   UNL     1       7.935   6.265  18.873  0.00  0.00    +0.000 A 
ATOM     30  O   UNL     1       8.340   5.350  19.580  0.00  0.00    +0.000 OA
ATOM     31  N   UNL     1       8.515   7.506  18.958  0.00  0.00    +0.000 N 
ATOM     32  H   UNL     1       7.007   9.152  16.643  0.00  0.00    +0.000 HD
ATOM     33  H   UNL     1       9.268   7.618  19.618  0.00  0.00    +0.000 HD
ENDBRANCH  21  28
ENDBRANCH  19  21
ENDBRANCH   1  19
TORSDOF 5
ENDMDL
MODEL 3
REMARK VINA RESULT:      -8.7      4.483      7.719
REMARK  Name = 
REMARK  5 active torsions:
REMARK  status: ('A' for Active; 'I' for Inactive)
REMARK    1  A    between atoms: C_5  and  S_6
REMARK    2  A    between atoms: S_6  and  N_9
REMARK    3  A    between atoms: N_9  and  C_10
REMARK    4  A    between atoms: C_15  and  C_16
REMARK    5  A    between atoms: N_18  and  C_19
REMARK                            x       y       z     vdW  Elec       q    Type
REMARK                         _______ _______ _______ _____ _____    ______ ____
ROOT
ATOM      1  C   UNL     1       2.860   4.985  19.960  0.00  0.00    +0.000 A 
ATOM      2  C   UNL     1       1.851   4.653  20.875  0.00  0.00    +0.000 A 
ATOM      3  C   UNL     1       1.516   3.317  21.110  0.00  0.00    +0.000 A 
ATOM      4  C   UNL     1       2.169   2.306  20.417  0.00  0.00    +0.000 A 
ATOM      5  C   UNL     1       3.160   2.629  19.492  0.00  0.00    +0.000 A 
ATOM      6  C   UNL     1       3.534   3.968  19.249  0.00  0.00    +0.000 A 
ENDROOT
BRANCH   6   7
ATOM      7  C   UNL     1       4.634   4.248  18.334  0.00  0.00    +0.000 A 
ATOM      8  C   UNL     1       4.531   4.444  16.975  0.00  0.00    +0.000 A 
ATOM      9  N   UNL     1       5.827   4.464  16.521  0.00  0.00    +0.000 N 
ATOM     10  N   UNL     1       6.671   4.486  17.578  0.00  0.00    +0.000 NA
ATOM     11  N   UNL     1       5.955   4.319  18.680  0.00  0.00    +0.000 NA
BRANCH   9  12
ATOM     12  C   UNL     1       6.284   4.391  15.183  0.00  0.00    +0.000 A 
ATOM     13  C   UNL     1       7.387   5.153  14.761  0.00  0.00    +0.000 A 
ATOM     14  C   UNL     1       7.777   5.129  13.421  0.00  0.00    +0.000 A 
ATOM     15  C   UNL     1       7.070   4.353  12.514  0.00  0.00    +0.000 A 
ATOM     16  F   UNL     1       7.439   4.348  11.227  0.00  0.00    +0.000 F 
ATOM     17  C   UNL     1       5.982   3.588  12.918  0.00  0.00    +0.000 A 
ATOM     18  C   UNL     1       5.587   3.600  14.257  0.00  0.00    +0.000 A 
ENDBRANCH   9  12
ENDBRANCH   6   7
BRANCH   1  19
ATOM     19  N   UNL     1       3.190   6.373  19.798  0.00  0.00    +0.000 N 
ATOM     20  H   UNL     1       2.951   6.942  20.611  0.00  0.00    +0.000 HD
BRANCH  19  21
ATOM     21  S   UNL     1       2.631   7.194  18.414  0.00  0.00    +0.000 S 
ATOM     22  O   UNL     1       1.654   6.268  17.858  0.00  0.00    +0.000 OA
ATOM     23  O   UNL     1       3.794   7.494  17.601  0.00  0.00    +0.000 OA
BRANCH  21  28
ATOM     24  O   UNL     1      -0.099  12.078  19.831  0.00  0.00    +0.000 OA
ATOM     25  C   UNL     1       0.481  11.033  19.549  0.00  0.00    +0.000 A 
ATOM     26  N   UNL     1       1.114  10.844  18.353  0.00  0.00    +0.000 N 
ATOM     27  C   UNL     1       1.751   9.678  18.010  0.00  0.00    +0.000 A 
ATOM     28  C   UNL     1       1.822   8.645  18.863  0.00  0.00    +0.000 A 
ATOM     29  C   UNL     1       1.228   8.808  20.198  0.00  0.00    +0.000 A 
ATOM     30  O   UNL     1       1.302   7.969  21.088  0.00  0.00    +0.000 OA
ATOM     31  N   UNL     1       0.550   9.982  20.418  0.00  0.00    +0.000 N 
ATOM     32  H   UNL     1       1.066  11.617  17.697  0.00  0.00    +0.000 HD
ATOM     33  H   UNL     1       0.127  10.106  21.324  0.00  0.00    +0.000 HD
ENDBRANCH  21  28
ENDBRANCH  19  21
ENDBRANCH   1  19
TORSDOF 5
ENDMDL
MODEL 4
REMARK VINA RESULT:      -8.7      3.021      5.214
REMARK  Name = 
REMARK  5 active torsions:
REMARK  status: ('A' for Active; 'I' for Inactive)
REMARK    1  A    between atoms: C_5  and  S_6
REMARK    2  A    between atoms: S_6  and  N_9
REMARK    3  A    between atoms: N_9  and  C_10
REMARK    4  A    between atoms: C_15  and  C_16
REMARK    5  A    between atoms: N_18  and  C_19
REMARK                            x       y       z     vdW  Elec       q    Type
REMARK                         _______ _______ _______ _____ _____    ______ ____
ROOT
ATOM      1  C   UNL     1       5.164   4.310  16.842  0.00  0.00    +0.000 A 
ATOM      2  C   UNL     1       5.995   3.964  15.767  0.00  0.00    +0.000 A 
ATOM      3  C   UNL     1       6.304   4.901  14.778  0.00  0.00    +0.000 A 
ATOM      4  C   UNL     1       5.769   6.180  14.842  0.00  0.00    +0.000 A 
ATOM      5  C   UNL     1       4.925   6.526  15.897  0.00  0.00    +0.000 A 
ATOM      6  C   UNL     1       4.612   5.607  16.922  0.00  0.00    +0.000 A 
ENDROOT
BRANCH   6   7
ATOM      7  C   UNL     1       3.794   6.043  18.047  0.00  0.00    +0.000 A 
ATOM      8  C   UNL     1       2.789   6.984  18.004  0.00  0.00    +0.000 A 
ATOM      9  N   UNL     1       2.458   7.207  19.318  0.00  0.00    +0.000 N 
ATOM     10  N   UNL     1       3.086   6.298  20.099  0.00  0.00    +0.000 NA
ATOM     11  N   UNL     1       3.926   5.612  19.338  0.00  0.00    +0.000 NA
BRANCH   9  12
ATOM     12  C   UNL     1       1.662   8.250  19.853  0.00  0.00    +0.000 A 
ATOM     13  C   UNL     1       1.291   8.243  21.208  0.00  0.00    +0.000 A 
ATOM     14  C   UNL     1       0.443   9.235  21.702  0.00  0.00    +0.000 A 
ATOM     15  C   UNL     1      -0.029  10.222  20.848  0.00  0.00    +0.000 A 
ATOM     16  F   UNL     1      -0.857  11.161  21.324  0.00  0.00    +0.000 F 
ATOM     17  C   UNL     1       0.336  10.246  19.507  0.00  0.00    +0.000 A 
ATOM     18  C   UNL     1       1.189   9.261  19.004  0.00  0.00    +0.000 A 
ENDBRANCH   9  12
ENDBRANCH   6   7
BRANCH   1  19
ATOM     19  N   UNL     1       4.922   3.317  17.850  0.00  0.00    +0.000 N 
ATOM     20  H   UNL     1       5.680   2.639  17.940  0.00  0.00    +0.000 HD
BRANCH  19  21
ATOM     21  S   UNL     1       3.458   2.446  17.811  0.00  0.00    +0.000 S 
ATOM     22  O   UNL     1       3.897   1.083  17.547  0.00  0.00    +0.000 OA
ATOM     23  O   UNL     1       2.617   3.075  16.810  0.00  0.00    +0.000 OA
BRANCH  21  28
ATOM     24  O   UNL     1       0.810   2.570  22.939  0.00  0.00    +0.000 OA
ATOM     25  C   UNL     1       1.392   2.545  21.858  0.00  0.00    +0.000 A 
ATOM     26  N   UNL     1       0.747   2.761  20.672  0.00  0.00    +0.000 N 
ATOM     27  C   UNL     1       1.374   2.717  19.452  0.00  0.00    +0.000 A 
ATOM     28  C   UNL     1       2.693   2.490  19.352  0.00  0.00    +0.000 A 
ATOM     29  C   UNL     1       3.462   2.325  20.594  0.00  0.00    +0.000 A 
ATOM     30  O   UNL     1       4.680   2.196  20.632  0.00  0.00    +0.000 OA
ATOM     31  N   UNL     1       2.733   2.310  21.758  0.00  0.00    +0.000 N 
ATOM     32  H   UNL     1      -0.251   2.931  20.733  0.00  0.00    +0.000 HD
ATOM     33  H   UNL     1       3.244   2.187  22.619  0.00  0.00    +0.000 HD
ENDBRANCH  21  28
ENDBRANCH  19  21
ENDBRANCH   1  19
TORSDOF 5
ENDMDL
MODEL 5
REMARK VINA RESULT:      -8.7      1.989      2.808
REMARK  Name = 
REMARK  5 active torsions:
REMARK  status: ('A' for Active; 'I' for Inactive)
REMARK    1  A    between atoms: C_5  and  S_6
REMARK    2  A    between atoms: S_6  and  N_9
REMARK    3  A    between atoms: N_9  and  C_10
REMARK    4  A    between atoms: C_15  and  C_16
REMARK    5  A    between atoms: N_18  and  C_19
REMARK                            x       y       z     vdW  Elec       q    Type
REMARK                         _______ _______ _______ _____ _____    ______ ____
ROOT
ATOM      1  C   UNL     1       2.658   4.272  18.515  0.00  0.00    +0.000 A 
ATOM      2  C   UNL     1       2.653   2.880  18.343  0.00  0.00    +0.000 A 
ATOM      3  C   UNL     1       1.988   2.054  19.251  0.00  0.00    +0.000 A 
ATOM      4  C   UNL     1       1.342   2.607  20.349  0.00  0.00    +0.000 A 
ATOM      5  C   UNL     1       1.359   3.988  20.538  0.00  0.00    +0.000 A 
ATOM      6  C   UNL     1       2.005   4.849  19.626  0.00  0.00    +0.000 A 
ENDROOT
BRANCH   6   7
ATOM      7  C   UNL     1       1.922   6.291  19.823  0.00  0.00    +0.000 A 
ATOM      8  C   UNL     1       1.455   6.932  20.950  0.00  0.00    +0.000 A 
ATOM      9  N   UNL     1       1.375   8.256  20.596  0.00  0.00    +0.000 N 
ATOM     10  N   UNL     1       1.957   8.433  19.387  0.00  0.00    +0.000 NA
ATOM     11  N   UNL     1       2.260   7.240  18.898  0.00  0.00    +0.000 NA
BRANCH   9  12
ATOM     12  C   UNL     1       0.729   9.308  21.291  0.00  0.00    +0.000 A 
ATOM     13  C   UNL     1       0.038   9.055  22.489  0.00  0.00    +0.000 A 
ATOM     14  C   UNL     1      -0.658  10.087  23.120  0.00  0.00    +0.000 A 
ATOM     15  C   UNL     1      -0.665  11.355  22.558  0.00  0.00    +0.000 A 
ATOM     16  F   UNL     1      -1.350  12.336  23.159  0.00  0.00    +0.000 F 
ATOM     17  C   UNL     1       0.020  11.622  21.378  0.00  0.00    +0.000 A 
ATOM     18  C   UNL     1       0.725  10.598  20.741  0.00  0.00    +0.000 A 
ENDBRANCH   9  12
ENDBRANCH   6   7
BRANCH   1  19
ATOM     19  N   UNL     1       3.320   5.070  17.522  0.00  0.00    +0.000 N 
ATOM     20  H   UNL     1       3.094   4.793  16.566  0.00  0.00    +0.000 HD
BRANCH  19  21
ATOM     21  S   UNL     1       5.011   5.261  17.615  0.00  0.00    +0.000 S 
ATOM     22  O   UNL     1       5.412   4.184  18.510  0.00  0.00    +0.000 OA
ATOM     23  O   UNL     1       5.259   6.618  18.062  0.00  0.00    +0.000 OA
BRANCH  21  28
ATOM     24  O   UNL     1       7.337   4.344  12.413  0.00  0.00    +0.000 OA
ATOM     25  C   UNL     1       6.860   4.547  13.526  0.00  0.00    +0.000 A 
ATOM     26  N   UNL     1       5.696   3.965  13.944  0.00  0.00    +0.000 N 
ATOM     27  C   UNL     1       5.136   4.194  15.175  0.00  0.00    +0.000 A 
ATOM     28  C   UNL     1       5.730   4.993  16.075  0.00  0.00    +0.000 A 
ATOM     29  C   UNL     1       7.025   5.592  15.719  0.00  0.00    +0.000 A 
ATOM     30  O   UNL     1       7.699   6.269  16.486  0.00  0.00    +0.000 OA
ATOM     31  N   UNL     1       7.465   5.363  14.439  0.00  0.00    +0.000 N 
ATOM     32  H   UNL     1       5.235   3.361  13.272  0.00  0.00    +0.000 HD
ATOM     33  H   UNL     1       8.346   5.775  14.174  0.00  0.00    +0.000 HD
ENDBRANCH  21  28
ENDBRANCH  19  21
ENDBRANCH   1  19
TORSDOF 5
ENDMDL
MODEL 6
REMARK VINA RESULT:      -8.6      4.419      7.679
REMARK  Name = 
REMARK  5 active torsions:
REMARK  status: ('A' for Active; 'I' for Inactive)
REMARK    1  A    between atoms: C_5  and  S_6
REMARK    2  A    between atoms: S_6  and  N_9
REMARK    3  A    between atoms: N_9  and  C_10
REMARK    4  A    between atoms: C_15  and  C_16
REMARK    5  A    between atoms: N_18  and  C_19
REMARK                            x       y       z     vdW  Elec       q    Type
REMARK                         _______ _______ _______ _____ _____    ______ ____
ROOT
ATOM      1  C   UNL     1       2.842   4.591  19.907  0.00  0.00    +0.000 A 
ATOM      2  C   UNL     1       1.832   4.167  20.783  0.00  0.00    +0.000 A 
ATOM      3  C   UNL     1       1.433   2.829  20.812  0.00  0.00    +0.000 A 
ATOM      4  C   UNL     1       2.021   1.910  19.953  0.00  0.00    +0.000 A 
ATOM      5  C   UNL     1       3.012   2.327  19.066  0.00  0.00    +0.000 A 
ATOM      6  C   UNL     1       3.451   3.668  19.029  0.00  0.00    +0.000 A 
ENDROOT
BRANCH   6   7
ATOM      7  C   UNL     1       4.548   4.036  18.143  0.00  0.00    +0.000 A 
ATOM      8  C   UNL     1       4.462   4.241  16.783  0.00  0.00    +0.000 A 
ATOM      9  N   UNL     1       5.763   4.359  16.360  0.00  0.00    +0.000 N 
ATOM     10  N   UNL     1       6.580   4.427  17.436  0.00  0.00    +0.000 NA
ATOM     11  N   UNL     1       5.853   4.197  18.520  0.00  0.00    +0.000 NA
BRANCH   9  12
ATOM     12  C   UNL     1       6.254   4.334  15.032  0.00  0.00    +0.000 A 
ATOM     13  C   UNL     1       7.348   5.134  14.659  0.00  0.00    +0.000 A 
ATOM     14  C   UNL     1       7.771   5.157  13.329  0.00  0.00    +0.000 A 
ATOM     15  C   UNL     1       7.105   4.390  12.384  0.00  0.00    +0.000 A 
ATOM     16  F   UNL     1       7.504   4.431  11.106  0.00  0.00    +0.000 F 
ATOM     17  C   UNL     1       6.026   3.588  12.739  0.00  0.00    +0.000 A 
ATOM     18  C   UNL     1       5.599   3.553  14.068  0.00  0.00    +0.000 A 
ENDBRANCH   9  12
ENDBRANCH   6   7
BRANCH   1  19
ATOM     19  N   UNL     1       3.241   5.969  19.958  0.00  0.00    +0.000 N 
ATOM     20  H   UNL     1       3.048   6.413  20.857  0.00  0.00    +0.000 HD
BRANCH  19  21
ATOM     21  S   UNL     1       2.698   7.027  18.737  0.00  0.00    +0.000 S 
ATOM     22  O   UNL     1       1.757   6.206  17.990  0.00  0.00    +0.000 OA
ATOM     23  O   UNL     1       3.875   7.495  18.029  0.00  0.00    +0.000 OA
BRANCH  21  28
ATOM     24  O   UNL     1      -0.133  11.446  21.140  0.00  0.00    +0.000 OA
ATOM     25  C   UNL     1       0.466  10.514  20.610  0.00  0.00    +0.000 A 
ATOM     26  N   UNL     1       0.737   9.347  21.267  0.00  0.00    +0.000 N 
ATOM     27  C   UNL     1       1.423   8.302  20.701  0.00  0.00    +0.000 A 
ATOM     28  C   UNL     1       1.846   8.353  19.428  0.00  0.00    +0.000 A 
ATOM     29  C   UNL     1       1.520   9.550  18.639  0.00  0.00    +0.000 A 
ATOM     30  O   UNL     1       1.780   9.674  17.448  0.00  0.00    +0.000 OA
ATOM     31  N   UNL     1       0.898  10.569  19.316  0.00  0.00    +0.000 N 
ATOM     32  H   UNL     1       0.426   9.296  22.232  0.00  0.00    +0.000 HD
ATOM     33  H   UNL     1       0.677  11.402  18.793  0.00  0.00    +0.000 HD
ENDBRANCH  21  28
ENDBRANCH  19  21
ENDBRANCH   1  19
TORSDOF 5
ENDMDL
MODEL 7
REMARK VINA RESULT:      -8.6      2.178      2.824
REMARK  Name = 
REMARK  5 active torsions:
REMARK  status: ('A' for Active; 'I' for Inactive)
REMARK    1  A    between atoms: C_5  and  S_6
REMARK    2  A    between atoms: S_6  and  N_9
REMARK    3  A    between atoms: N_9  and  C_10
REMARK    4  A    between atoms: C_15  and  C_16
REMARK    5  A    between atoms: N_18  and  C_19
REMARK                            x       y       z     vdW  Elec       q    Type
REMARK                         _______ _______ _______ _____ _____    ______ ____
ROOT
ATOM      1  C   UNL     1       3.153   4.712  19.757  0.00  0.00    +0.000 A 
ATOM      2  C   UNL     1       3.253   3.315  19.688  0.00  0.00    +0.000 A 
ATOM      3  C   UNL     1       2.161   2.508  20.016  0.00  0.00    +0.000 A 
ATOM      4  C   UNL     1       0.971   3.086  20.437  0.00  0.00    +0.000 A 
ATOM      5  C   UNL     1       0.871   4.474  20.527  0.00  0.00    +0.000 A 
ATOM      6  C   UNL     1       1.950   5.316  20.182  0.00  0.00    +0.000 A 
ENDROOT
BRANCH   6   7
ATOM      7  C   UNL     1       1.766   6.761  20.213  0.00  0.00    +0.000 A 
ATOM      8  C   UNL     1       1.297   7.499  21.277  0.00  0.00    +0.000 A 
ATOM      9  N   UNL     1       1.103   8.762  20.775  0.00  0.00    +0.000 N 
ATOM     10  N   UNL     1       1.623   8.832  19.527  0.00  0.00    +0.000 NA
ATOM     11  N   UNL     1       1.995   7.613  19.167  0.00  0.00    +0.000 NA
BRANCH   9  12
ATOM     12  C   UNL     1       0.408   9.842  21.371  0.00  0.00    +0.000 A 
ATOM     13  C   UNL     1       0.598  11.156  20.912  0.00  0.00    +0.000 A 
ATOM     14  C   UNL     1      -0.035  12.218  21.561  0.00  0.00    +0.000 A 
ATOM     15  C   UNL     1      -0.847  11.966  22.657  0.00  0.00    +0.000 A 
ATOM     16  F   UNL     1      -1.437  12.990  23.286  0.00  0.00    +0.000 F 
ATOM     17  C   UNL     1      -1.051  10.670  23.118  0.00  0.00    +0.000 A 
ATOM     18  C   UNL     1      -0.428   9.600  22.472  0.00  0.00    +0.000 A 
ENDBRANCH   9  12
ENDBRANCH   6   7
BRANCH   1  19
ATOM     19  N   UNL     1       4.295   5.487  19.362  0.00  0.00    +0.000 N 
ATOM     20  H   UNL     1       4.111   6.102  18.568  0.00  0.00    +0.000 HD
BRANCH  19  21
ATOM     21  S   UNL     1       5.768   4.685  19.059  0.00  0.00    +0.000 S 
ATOM     22  O   UNL     1       5.495   3.325  19.502  0.00  0.00    +0.000 OA
ATOM     23  O   UNL     1       6.801   5.417  19.767  0.00  0.00    +0.000 OA
BRANCH  21  28
ATOM     24  O   UNL     1       6.971   4.582  13.415  0.00  0.00    +0.000 OA
ATOM     25  C   UNL     1       6.695   4.603  14.611  0.00  0.00    +0.000 A 
ATOM     26  N   UNL     1       7.601   4.963  15.568  0.00  0.00    +0.000 N 
ATOM     27  C   UNL     1       7.320   4.974  16.910  0.00  0.00    +0.000 A 
ATOM     28  C   UNL     1       6.099   4.659  17.370  0.00  0.00    +0.000 A 
ATOM     29  C   UNL     1       5.053   4.335  16.389  0.00  0.00    +0.000 A 
ATOM     30  O   UNL     1       3.885   4.113  16.684  0.00  0.00    +0.000 OA
ATOM     31  N   UNL     1       5.453   4.278  15.077  0.00  0.00    +0.000 N 
ATOM     32  H   UNL     1       8.530   5.201  15.234  0.00  0.00    +0.000 HD
ATOM     33  H   UNL     1       4.751   4.047  14.392  0.00  0.00    +0.000 HD
ENDBRANCH  21  28
ENDBRANCH  19  21
ENDBRANCH   1  19
TORSDOF 5
ENDMDL
MODEL 8
REMARK VINA RESULT:      -8.6      1.836      2.123
REMARK  Name = 
REMARK  5 active torsions:
REMARK  status: ('A' for Active; 'I' for Inactive)
REMARK    1  A    between atoms: C_5  and  S_6
REMARK    2  A    between atoms: S_6  and  N_9
REMARK    3  A    between atoms: N_9  and  C_10
REMARK    4  A    between atoms: C_15  and  C_16
REMARK    5  A    between atoms: N_18  and  C_19
REMARK                            x       y       z     vdW  Elec       q    Type
REMARK                         _______ _______ _______ _____ _____    ______ ____
ROOT
ATOM      1  C   UNL     1       3.217   4.537  18.871  0.00  0.00    +0.000 A 
ATOM      2  C   UNL     1       3.174   3.228  19.375  0.00  0.00    +0.000 A 
ATOM      3  C   UNL     1       2.349   2.910  20.455  0.00  0.00    +0.000 A 
ATOM      4  C   UNL     1       1.579   3.898  21.056  0.00  0.00    +0.000 A 
ATOM      5  C   UNL     1       1.631   5.205  20.574  0.00  0.00    +0.000 A 
ATOM      6  C   UNL     1       2.439   5.552  19.470  0.00  0.00    +0.000 A 
ENDROOT
BRANCH   6   7
ATOM      7  C   UNL     1       2.394   6.913  18.951  0.00  0.00    +0.000 A 
ATOM      8  C   UNL     1       1.843   8.006  19.584  0.00  0.00    +0.000 A 
ATOM      9  N   UNL     1       1.851   9.003  18.639  0.00  0.00    +0.000 N 
ATOM     10  N   UNL     1       2.557   8.592  17.560  0.00  0.00    +0.000 NA
ATOM     11  N   UNL     1       2.859   7.313  17.729  0.00  0.00    +0.000 NA
BRANCH   9  12
ATOM     12  C   UNL     1       1.181  10.250  18.681  0.00  0.00    +0.000 A 
ATOM     13  C   UNL     1      -0.222  10.307  18.742  0.00  0.00    +0.000 A 
ATOM     14  C   UNL     1      -0.870  11.542  18.704  0.00  0.00    +0.000 A 
ATOM     15  C   UNL     1      -0.122  12.707  18.604  0.00  0.00    +0.000 A 
ATOM     16  F   UNL     1      -0.750  13.888  18.550  0.00  0.00    +0.000 F 
ATOM     17  C   UNL     1       1.267  12.667  18.550  0.00  0.00    +0.000 A 
ATOM     18  C   UNL     1       1.925  11.436  18.594  0.00  0.00    +0.000 A 
ENDBRANCH   9  12
ENDBRANCH   6   7
BRANCH   1  19
ATOM     19  N   UNL     1       4.049   4.790  17.729  0.00  0.00    +0.000 N 
ATOM     20  H   UNL     1       3.702   4.356  16.872  0.00  0.00    +0.000 HD
BRANCH  19  21
ATOM     21  S   UNL     1       5.716   4.453  17.836  0.00  0.00    +0.000 S 
ATOM     22  O   UNL     1       5.994   3.783  16.574  0.00  0.00    +0.000 OA
ATOM     23  O   UNL     1       5.915   3.686  19.051  0.00  0.00    +0.000 OA
BRANCH  21  28
ATOM     24  O   UNL     1       8.818   9.315  18.075  0.00  0.00    +0.000 OA
ATOM     25  C   UNL     1       8.145   8.290  18.011  0.00  0.00    +0.000 A 
ATOM     26  N   UNL     1       8.274   7.269  18.910  0.00  0.00    +0.000 N 
ATOM     27  C   UNL     1       7.547   6.107  18.845  0.00  0.00    +0.000 A 
ATOM     28  C   UNL     1       6.620   5.916  17.894  0.00  0.00    +0.000 A 
ATOM     29  C   UNL     1       6.375   7.007  16.939  0.00  0.00    +0.000 A 
ATOM     30  O   UNL     1       5.501   6.981  16.081  0.00  0.00    +0.000 OA
ATOM     31  N   UNL     1       7.205   8.096  17.040  0.00  0.00    +0.000 N 
ATOM     32  H   UNL     1       8.974   7.399  19.634  0.00  0.00    +0.000 HD
ATOM     33  H   UNL     1       7.058   8.849  16.386  0.00  0.00    +0.000 HD
ENDBRANCH  21  28
ENDBRANCH  19  21
ENDBRANCH   1  19
TORSDOF 5
ENDMDL
MODEL 9
REMARK VINA RESULT:      -8.5      1.948      2.541
REMARK  Name = 
REMARK  5 active torsions:
REMARK  status: ('A' for Active; 'I' for Inactive)
REMARK    1  A    between atoms: C_5  and  S_6
REMARK    2  A    between atoms: S_6  and  N_9
REMARK    3  A    between atoms: N_9  and  C_10
REMARK    4  A    between atoms: C_15  and  C_16
REMARK    5  A    between atoms: N_18  and  C_19
REMARK                            x       y       z     vdW  Elec       q    Type
REMARK                         _______ _______ _______ _____ _____    ______ ____
ROOT
ATOM      1  C   UNL     1       3.279   4.670  18.872  0.00  0.00    +0.000 A 
ATOM      2  C   UNL     1       3.252   3.370  19.399  0.00  0.00    +0.000 A 
ATOM      3  C   UNL     1       2.418   3.057  20.474  0.00  0.00    +0.000 A 
ATOM      4  C   UNL     1       1.623   4.041  21.047  0.00  0.00    +0.000 A 
ATOM      5  C   UNL     1       1.659   5.340  20.542  0.00  0.00    +0.000 A 
ATOM      6  C   UNL     1       2.476   5.681  19.442  0.00  0.00    +0.000 A 
ENDROOT
BRANCH   6   7
ATOM      7  C   UNL     1       2.414   7.033  18.899  0.00  0.00    +0.000 A 
ATOM      8  C   UNL     1       1.828   8.125  19.501  0.00  0.00    +0.000 A 
ATOM      9  N   UNL     1       1.835   9.105  18.539  0.00  0.00    +0.000 N 
ATOM     10  N   UNL     1       2.571   8.690  17.482  0.00  0.00    +0.000 NA
ATOM     11  N   UNL     1       2.895   7.421  17.680  0.00  0.00    +0.000 NA
BRANCH   9  12
ATOM     12  C   UNL     1       1.139  10.338  18.545  0.00  0.00    +0.000 A 
ATOM     13  C   UNL     1       1.842  11.555  18.565  0.00  0.00    +0.000 A 
ATOM     14  C   UNL     1       1.143  12.760  18.649  0.00  0.00    +0.000 A 
ATOM     15  C   UNL     1      -0.244  12.746  18.714  0.00  0.00    +0.000 A 
ATOM     16  F   UNL     1      -0.908  13.905  18.812  0.00  0.00    +0.000 F 
ATOM     17  C   UNL     1      -0.952  11.551  18.687  0.00  0.00    +0.000 A 
ATOM     18  C   UNL     1      -0.263  10.340  18.597  0.00  0.00    +0.000 A 
ENDBRANCH   9  12
ENDBRANCH   6   7
BRANCH   1  19
ATOM     19  N   UNL     1       4.121   4.918  17.737  0.00  0.00    +0.000 N 
ATOM     20  H   UNL     1       3.782   4.480  16.879  0.00  0.00    +0.000 HD
BRANCH  19  21
ATOM     21  S   UNL     1       5.787   4.580  17.860  0.00  0.00    +0.000 S 
ATOM     22  O   UNL     1       6.080   3.921  16.595  0.00  0.00    +0.000 OA
ATOM     23  O   UNL     1       5.972   3.802  19.070  0.00  0.00    +0.000 OA
BRANCH  21  28
ATOM     24  O   UNL     1       8.743   9.532  18.099  0.00  0.00    +0.000 OA
ATOM     25  C   UNL     1       8.129   8.469  18.059  0.00  0.00    +0.000 A 
ATOM     26  N   UNL     1       7.106   8.244  17.182  0.00  0.00    +0.000 N 
ATOM     27  C   UNL     1       6.394   7.073  17.135  0.00  0.00    +0.000 A 
ATOM     28  C   UNL     1       6.691   6.042  17.942  0.00  0.00    +0.000 A 
ATOM     29  C   UNL     1       7.831   6.188  18.858  0.00  0.00    +0.000 A 
ATOM     30  O   UNL     1       8.247   5.290  19.580  0.00  0.00    +0.000 OA
ATOM     31  N   UNL     1       8.431   7.423  18.883  0.00  0.00    +0.000 N 
ATOM     32  H   UNL     1       6.869   9.017  16.568  0.00  0.00    +0.000 HD
ATOM     33  H   UNL     1       9.208   7.544  19.514  0.00  0.00    +0.000 HD
ENDBRANCH  21  28
ENDBRANCH  19  21
ENDBRANCH   1  19
TORSDOF 5
ENDMDL
