MODEL 1
REMARK VINA RESULT:      -7.3      0.000      0.000
REMARK  Name = 
REMARK  4 active torsions:
REMARK  status: ('A' for Active; 'I' for Inactive)
REMARK    1  A    between atoms: C_6  and  C_7
REMARK    2  A    between atoms: C_7  and  S_8
REMARK    3  A    between atoms: S_8  and  C_9
REMARK    4  A    between atoms: C_12  and  C_13
REMARK                            x       y       z     vdW  Elec       q    Type
REMARK                         _______ _______ _______ _____ _____    ______ ____
ROOT
ATOM      1  C   UNL     1       2.524   6.798  19.376  0.00  0.00    +0.000 A 
ATOM      2  C   UNL     1       2.649   7.347  18.111  0.00  0.00    +0.000 A 
ATOM      3  C   UNL     1       2.059   8.585  17.846  0.00  0.00    +0.000 A 
ATOM      4  C   UNL     1       1.368   9.245  18.857  0.00  0.00    +0.000 A 
ATOM      5  N   UNL     1       1.288   8.688  20.085  0.00  0.00    +0.000 NA
ATOM      6  N   UNL     1       1.866   7.461  20.345  0.00  0.00    +0.000 NA
ENDROOT
BRANCH   4   7
ATOM      7  C   UNL     1       0.696  10.540  18.685  0.00  0.00    +0.000 A 
ATOM      8  C   UNL     1      -0.690  10.666  18.499  0.00  0.00    +0.000 A 
ATOM      9  C   UNL     1      -1.277  11.922  18.348  0.00  0.00    +0.000 A 
ATOM     10  C   UNL     1      -0.461  13.039  18.384  0.00  0.00    +0.000 A 
ATOM     11  N   UNL     1       0.872  12.976  18.562  0.00  0.00    +0.000 NA
ATOM     12  C   UNL     1       1.412  11.741  18.714  0.00  0.00    +0.000 A 
ENDBRANCH   4   7
BRANCH   1  13
ATOM     13  S   UNL     1       3.258   5.222  19.748  0.00  0.00    +0.000 S 
BRANCH  13  14
ATOM     14  C   UNL     1       3.268   4.485  18.081  0.00  0.00    +0.000 C 
BRANCH  14  20
ATOM     15 CL   UNL     1       6.349   3.881  13.894  0.00  0.00    +0.000 Cl
ATOM     16  C   UNL     1       6.128   4.217  15.568  0.00  0.00    +0.000 A 
ATOM     17  C   UNL     1       7.237   4.473  16.372  0.00  0.00    +0.000 A 
ATOM     18  C   UNL     1       7.058   4.743  17.728  0.00  0.00    +0.000 A 
ATOM     19  C   UNL     1       5.773   4.752  18.276  0.00  0.00    +0.000 A 
ATOM     20  C   UNL     1       4.651   4.485  17.475  0.00  0.00    +0.000 A 
ATOM     21  C   UNL     1       4.840   4.223  16.109  0.00  0.00    +0.000 A 
ENDBRANCH  14  20
ENDBRANCH  13  14
ENDBRANCH   1  13
TORSDOF 4
ENDMDL
MODEL 2
REMARK VINA RESULT:      -7.3      3.498      8.340
REMARK  Name = 
REMARK  4 active torsions:
REMARK  status: ('A' for Active; 'I' for Inactive)
REMARK    1  A    between atoms: C_6  and  C_7
REMARK    2  A    between atoms: C_7  and  S_8
REMARK    3  A    between atoms: S_8  and  C_9
REMARK    4  A    between atoms: C_12  and  C_13
REMARK                            x       y       z     vdW  Elec       q    Type
REMARK                         _______ _______ _______ _____ _____    ______ ____
ROOT
ATOM      1  C   UNL     1       1.460   9.211  18.879  0.00  0.00    +0.000 A 
ATOM      2  C   UNL     1       2.075   8.665  17.766  0.00  0.00    +0.000 A 
ATOM      3  C   UNL     1       2.681   7.410  17.871  0.00  0.00    +0.000 A 
ATOM      4  C   UNL     1       2.644   6.732  19.084  0.00  0.00    +0.000 A 
ATOM      5  N   UNL     1       2.012   7.287  20.141  0.00  0.00    +0.000 NA
ATOM      6  N   UNL     1       1.421   8.530  20.039  0.00  0.00    +0.000 NA
ENDROOT
BRANCH   4   7
ATOM      7  C   UNL     1       3.261   5.417  19.311  0.00  0.00    +0.000 A 
ATOM      8  C   UNL     1       2.532   4.289  19.719  0.00  0.00    +0.000 A 
ATOM      9  C   UNL     1       3.168   3.063  19.913  0.00  0.00    +0.000 A 
ATOM     10  C   UNL     1       4.532   2.987  19.695  0.00  0.00    +0.000 A 
ATOM     11  N   UNL     1       5.279   4.035  19.300  0.00  0.00    +0.000 NA
ATOM     12  C   UNL     1       4.630   5.212  19.112  0.00  0.00    +0.000 A 
ENDBRANCH   4   7
BRANCH   1  13
ATOM     13  S   UNL     1       0.683  10.808  18.784  0.00  0.00    +0.000 S 
BRANCH  13  14
ATOM     14  C   UNL     1      -0.984  10.375  19.381  0.00  0.00    +0.000 C 
BRANCH  14  20
ATOM     15 CL   UNL     1      -2.726   9.904  14.468  0.00  0.00    +0.000 Cl
ATOM     16  C   UNL     1      -2.900  10.478  16.082  0.00  0.00    +0.000 A 
ATOM     17  C   UNL     1      -4.020  11.232  16.428  0.00  0.00    +0.000 A 
ATOM     18  C   UNL     1      -4.161  11.698  17.733  0.00  0.00    +0.000 A 
ATOM     19  C   UNL     1      -3.181  11.414  18.687  0.00  0.00    +0.000 A 
ATOM     20  C   UNL     1      -2.044  10.665  18.345  0.00  0.00    +0.000 A 
ATOM     21  C   UNL     1      -1.916  10.192  17.030  0.00  0.00    +0.000 A 
ENDBRANCH  14  20
ENDBRANCH  13  14
ENDBRANCH   1  13
TORSDOF 4
ENDMDL
MODEL 3
REMARK VINA RESULT:      -7.2      5.565      6.861
REMARK  Name = 
REMARK  4 active torsions:
REMARK  status: ('A' for Active; 'I' for Inactive)
REMARK    1  A    between atoms: C_6  and  C_7
REMARK    2  A    between atoms: C_7  and  S_8
REMARK    3  A    between atoms: S_8  and  C_9
REMARK    4  A    between atoms: C_12  and  C_13
REMARK                            x       y       z     vdW  Elec       q    Type
REMARK                         _______ _______ _______ _____ _____    ______ ____
ROOT
ATOM      1  C   UNL     1       7.097   6.411  17.478  0.00  0.00    +0.000 A 
ATOM      2  C   UNL     1       7.896   6.414  18.609  0.00  0.00    +0.000 A 
ATOM      3  C   UNL     1       8.498   7.608  19.012  0.00  0.00    +0.000 A 
ATOM      4  C   UNL     1       8.275   8.769  18.280  0.00  0.00    +0.000 A 
ATOM      5  N   UNL     1       7.469   8.731  17.196  0.00  0.00    +0.000 NA
ATOM      6  N   UNL     1       6.880   7.549  16.793  0.00  0.00    +0.000 NA
ENDROOT
BRANCH   4   7
ATOM      7  C   UNL     1       8.869  10.074  18.604  0.00  0.00    +0.000 A 
ATOM      8  C   UNL     1       9.602  10.312  19.777  0.00  0.00    +0.000 A 
ATOM      9  C   UNL     1      10.151  11.569  20.030  0.00  0.00    +0.000 A 
ATOM     10  C   UNL     1       9.954  12.573  19.100  0.00  0.00    +0.000 A 
ATOM     11  N   UNL     1       9.263  12.399  17.957  0.00  0.00    +0.000 NA
ATOM     12  C   UNL     1       8.749  11.163  17.736  0.00  0.00    +0.000 A 
ENDBRANCH   4   7
BRANCH   1  13
ATOM     13  S   UNL     1       6.319   4.908  16.932  0.00  0.00    +0.000 S 
BRANCH  13  14
ATOM     14  C   UNL     1       5.748   4.257  18.536  0.00  0.00    +0.000 C 
BRANCH  14  20
ATOM     15 CL   UNL     1       0.935   4.498  20.577  0.00  0.00    +0.000 Cl
ATOM     16  C   UNL     1       2.044   3.921  19.393  0.00  0.00    +0.000 A 
ATOM     17  C   UNL     1       1.600   3.054  18.397  0.00  0.00    +0.000 A 
ATOM     18  C   UNL     1       2.498   2.585  17.439  0.00  0.00    +0.000 A 
ATOM     19  C   UNL     1       3.837   2.981  17.484  0.00  0.00    +0.000 A 
ATOM     20  C   UNL     1       4.295   3.846  18.490  0.00  0.00    +0.000 A 
ATOM     21  C   UNL     1       3.382   4.320  19.444  0.00  0.00    +0.000 A 
ENDBRANCH  14  20
ENDBRANCH  13  14
ENDBRANCH   1  13
TORSDOF 4
ENDMDL
MODEL 4
REMARK VINA RESULT:      -7.1      0.618      1.061
REMARK  Name = 
REMARK  4 active torsions:
REMARK  status: ('A' for Active; 'I' for Inactive)
REMARK    1  A    between atoms: C_6  and  C_7
REMARK    2  A    between atoms: C_7  and  S_8
REMARK    3  A    between atoms: S_8  and  C_9
REMARK    4  A    between atoms: C_12  and  C_13
REMARK                            x       y       z     vdW  Elec       q    Type
REMARK                         _______ _______ _______ _____ _____    ______ ____
ROOT
ATOM      1  C   UNL     1       2.470   6.976  19.351  0.00  0.00    +0.000 A 
ATOM      2  C   UNL     1       2.651   7.577  18.117  0.00  0.00    +0.000 A 
ATOM      3  C   UNL     1       2.115   8.849  17.896  0.00  0.00    +0.000 A 
ATOM      4  C   UNL     1       1.423   9.488  18.919  0.00  0.00    +0.000 A 
ATOM      5  N   UNL     1       1.289   8.878  20.118  0.00  0.00    +0.000 NA
ATOM      6  N   UNL     1       1.813   7.618  20.333  0.00  0.00    +0.000 NA
ENDROOT
BRANCH   4   7
ATOM      7  C   UNL     1       0.806  10.816  18.792  0.00  0.00    +0.000 A 
ATOM      8  C   UNL     1       1.551  11.993  18.620  0.00  0.00    +0.000 A 
ATOM      9  C   UNL     1       0.912  13.227  18.497  0.00  0.00    +0.000 A 
ATOM     10  C   UNL     1      -0.469  13.262  18.550  0.00  0.00    +0.000 A 
ATOM     11  N   UNL     1      -1.232  12.164  18.709  0.00  0.00    +0.000 NA
ATOM     12  C   UNL     1      -0.582  10.978  18.817  0.00  0.00    +0.000 A 
ENDBRANCH   4   7
BRANCH   1  13
ATOM     13  S   UNL     1       3.133   5.356  19.666  0.00  0.00    +0.000 S 
BRANCH  13  14
ATOM     14  C   UNL     1       3.173   4.703  17.965  0.00  0.00    +0.000 C 
BRANCH  14  20
ATOM     15 CL   UNL     1       6.417   3.906  13.936  0.00  0.00    +0.000 Cl
ATOM     16  C   UNL     1       6.133   4.258  15.597  0.00  0.00    +0.000 A 
ATOM     17  C   UNL     1       7.214   4.448  16.456  0.00  0.00    +0.000 A 
ATOM     18  C   UNL     1       6.985   4.731  17.801  0.00  0.00    +0.000 A 
ATOM     19  C   UNL     1       5.677   4.819  18.284  0.00  0.00    +0.000 A 
ATOM     20  C   UNL     1       4.582   4.619  17.428  0.00  0.00    +0.000 A 
ATOM     21  C   UNL     1       4.823   4.343  16.074  0.00  0.00    +0.000 A 
ENDBRANCH  14  20
ENDBRANCH  13  14
ENDBRANCH   1  13
TORSDOF 4
ENDMDL
MODEL 5
REMARK VINA RESULT:      -7.1      2.238      3.427
REMARK  Name = 
REMARK  4 active torsions:
REMARK  status: ('A' for Active; 'I' for Inactive)
REMARK    1  A    between atoms: C_6  and  C_7
REMARK    2  A    between atoms: C_7  and  S_8
REMARK    3  A    between atoms: S_8  and  C_9
REMARK    4  A    between atoms: C_12  and  C_13
REMARK                            x       y       z     vdW  Elec       q    Type
REMARK                         _______ _______ _______ _____ _____    ______ ____
ROOT
ATOM      1  C   UNL     1       4.134   5.179  17.286  0.00  0.00    +0.000 A 
ATOM      2  C   UNL     1       4.506   6.463  16.928  0.00  0.00    +0.000 A 
ATOM      3  C   UNL     1       3.773   7.545  17.424  0.00  0.00    +0.000 A 
ATOM      4  C   UNL     1       2.696   7.311  18.272  0.00  0.00    +0.000 A 
ATOM      5  N   UNL     1       2.380   6.044  18.617  0.00  0.00    +0.000 NA
ATOM      6  N   UNL     1       3.100   4.975  18.121  0.00  0.00    +0.000 NA
ENDROOT
BRANCH   4   7
ATOM      7  C   UNL     1       1.848   8.370  18.837  0.00  0.00    +0.000 A 
ATOM      8  C   UNL     1       1.332   9.428  18.072  0.00  0.00    +0.000 A 
ATOM      9  C   UNL     1       0.526  10.403  18.659  0.00  0.00    +0.000 A 
ATOM     10  C   UNL     1       0.248  10.302  20.010  0.00  0.00    +0.000 A 
ATOM     11  N   UNL     1       0.713   9.308  20.790  0.00  0.00    +0.000 NA
ATOM     12  C   UNL     1       1.488   8.371  20.188  0.00  0.00    +0.000 A 
ENDBRANCH   4   7
BRANCH   1  13
ATOM     13  S   UNL     1       5.041   3.777  16.670  0.00  0.00    +0.000 S 
BRANCH  13  14
ATOM     14  C   UNL     1       6.560   4.616  16.111  0.00  0.00    +0.000 C 
BRANCH  14  20
ATOM     15 CL   UNL     1       5.240   2.394  11.561  0.00  0.00    +0.000 Cl
ATOM     16  C   UNL     1       6.168   3.518  12.477  0.00  0.00    +0.000 A 
ATOM     17  C   UNL     1       7.104   4.325  11.835  0.00  0.00    +0.000 A 
ATOM     18  C   UNL     1       7.856   5.234  12.576  0.00  0.00    +0.000 A 
ATOM     19  C   UNL     1       7.674   5.330  13.958  0.00  0.00    +0.000 A 
ATOM     20  C   UNL     1       6.740   4.513  14.615  0.00  0.00    +0.000 A 
ATOM     21  C   UNL     1       5.981   3.607  13.858  0.00  0.00    +0.000 A 
ENDBRANCH  14  20
ENDBRANCH  13  14
ENDBRANCH   1  13
TORSDOF 4
ENDMDL
MODEL 6
REMARK VINA RESULT:      -7.1      2.955      3.926
REMARK  Name = 
REMARK  4 active torsions:
REMARK  status: ('A' for Active; 'I' for Inactive)
REMARK    1  A    between atoms: C_6  and  C_7
REMARK    2  A    between atoms: C_7  and  S_8
REMARK    3  A    between atoms: S_8  and  C_9
REMARK    4  A    between atoms: C_12  and  C_13
REMARK                            x       y       z     vdW  Elec       q    Type
REMARK                         _______ _______ _______ _____ _____    ______ ____
ROOT
ATOM      1  C   UNL     1       2.330   7.616  18.725  0.00  0.00    +0.000 A 
ATOM      2  C   UNL     1       1.797   8.650  17.976  0.00  0.00    +0.000 A 
ATOM      3  C   UNL     1       0.984   9.596  18.607  0.00  0.00    +0.000 A 
ATOM      4  C   UNL     1       0.737   9.487  19.971  0.00  0.00    +0.000 A 
ATOM      5  N   UNL     1       1.297   8.477  20.672  0.00  0.00    +0.000 NA
ATOM      6  N   UNL     1       2.094   7.538  20.048  0.00  0.00    +0.000 NA
ENDROOT
BRANCH   4   7
ATOM      7  C   UNL     1      -0.113  10.414  20.730  0.00  0.00    +0.000 A 
ATOM      8  C   UNL     1      -0.188  10.411  22.132  0.00  0.00    +0.000 A 
ATOM      9  C   UNL     1      -1.008  11.320  22.802  0.00  0.00    +0.000 A 
ATOM     10  C   UNL     1      -1.743  12.220  22.053  0.00  0.00    +0.000 A 
ATOM     11  N   UNL     1      -1.707  12.269  20.709  0.00  0.00    +0.000 NA
ATOM     12  C   UNL     1      -0.894  11.378  20.086  0.00  0.00    +0.000 A 
ENDBRANCH   4   7
BRANCH   1  13
ATOM     13  S   UNL     1       3.365   6.390  17.956  0.00  0.00    +0.000 S 
BRANCH  13  14
ATOM     14  C   UNL     1       2.187   5.001  17.874  0.00  0.00    +0.000 C 
BRANCH  14  20
ATOM     15 CL   UNL     1       4.911   1.651  20.832  0.00  0.00    +0.000 Cl
ATOM     16  C   UNL     1       3.488   2.564  20.508  0.00  0.00    +0.000 A 
ATOM     17  C   UNL     1       2.400   2.475  21.373  0.00  0.00    +0.000 A 
ATOM     18  C   UNL     1       1.247   3.213  21.111  0.00  0.00    +0.000 A 
ATOM     19  C   UNL     1       1.183   4.033  19.982  0.00  0.00    +0.000 A 
ATOM     20  C   UNL     1       2.271   4.121  19.099  0.00  0.00    +0.000 A 
ATOM     21  C   UNL     1       3.431   3.381  19.377  0.00  0.00    +0.000 A 
ENDBRANCH  14  20
ENDBRANCH  13  14
ENDBRANCH   1  13
TORSDOF 4
ENDMDL
MODEL 7
REMARK VINA RESULT:      -7.0      1.383      1.654
REMARK  Name = 
REMARK  4 active torsions:
REMARK  status: ('A' for Active; 'I' for Inactive)
REMARK    1  A    between atoms: C_6  and  C_7
REMARK    2  A    between atoms: C_7  and  S_8
REMARK    3  A    between atoms: S_8  and  C_9
REMARK    4  A    between atoms: C_12  and  C_13
REMARK                            x       y       z     vdW  Elec       q    Type
REMARK                         _______ _______ _______ _____ _____    ______ ____
ROOT
ATOM      1  C   UNL     1       2.298   7.183  19.356  0.00  0.00    +0.000 A 
ATOM      2  C   UNL     1       2.286   7.817  18.126  0.00  0.00    +0.000 A 
ATOM      3  C   UNL     1       1.663   9.062  18.010  0.00  0.00    +0.000 A 
ATOM      4  C   UNL     1       1.079   9.643  19.130  0.00  0.00    +0.000 A 
ATOM      5  N   UNL     1       1.133   9.003  20.319  0.00  0.00    +0.000 NA
ATOM      6  N   UNL     1       1.743   7.769  20.432  0.00  0.00    +0.000 NA
ENDROOT
BRANCH   4   7
ATOM      7  C   UNL     1       0.384  10.938  19.118  0.00  0.00    +0.000 A 
ATOM      8  C   UNL     1      -0.972  11.083  19.452  0.00  0.00    +0.000 A 
ATOM      9  C   UNL     1      -1.579  12.338  19.431  0.00  0.00    +0.000 A 
ATOM     10  C   UNL     1      -0.815  13.434  19.074  0.00  0.00    +0.000 A 
ATOM     11  N   UNL     1       0.489  13.353  18.748  0.00  0.00    +0.000 NA
ATOM     12  C   UNL     1       1.053  12.119  18.786  0.00  0.00    +0.000 A 
ENDBRANCH   4   7
BRANCH   1  13
ATOM     13  S   UNL     1       3.078   5.595  19.541  0.00  0.00    +0.000 S 
BRANCH  13  14
ATOM     14  C   UNL     1       3.085   5.051  17.800  0.00  0.00    +0.000 C 
BRANCH  14  20
ATOM     15 CL   UNL     1       7.736   7.423  17.437  0.00  0.00    +0.000 Cl
ATOM     16  C   UNL     1       6.642   6.171  16.991  0.00  0.00    +0.000 A 
ATOM     17  C   UNL     1       7.033   5.217  16.052  0.00  0.00    +0.000 A 
ATOM     18  C   UNL     1       6.148   4.204  15.688  0.00  0.00    +0.000 A 
ATOM     19  C   UNL     1       4.874   4.150  16.260  0.00  0.00    +0.000 A 
ATOM     20  C   UNL     1       4.469   5.112  17.198  0.00  0.00    +0.000 A 
ATOM     21  C   UNL     1       5.370   6.123  17.565  0.00  0.00    +0.000 A 
ENDBRANCH  14  20
ENDBRANCH  13  14
ENDBRANCH   1  13
TORSDOF 4
ENDMDL
MODEL 8
REMARK VINA RESULT:      -7.0      3.603      8.319
REMARK  Name = 
REMARK  4 active torsions:
REMARK  status: ('A' for Active; 'I' for Inactive)
REMARK    1  A    between atoms: C_6  and  C_7
REMARK    2  A    between atoms: C_7  and  S_8
REMARK    3  A    between atoms: S_8  and  C_9
REMARK    4  A    between atoms: C_12  and  C_13
REMARK                            x       y       z     vdW  Elec       q    Type
REMARK                         _______ _______ _______ _____ _____    ______ ____
ROOT
ATOM      1  C   UNL     1       1.854   8.847  18.761  0.00  0.00    +0.000 A 
ATOM      2  C   UNL     1       2.460   8.006  17.844  0.00  0.00    +0.000 A 
ATOM      3  C   UNL     1       2.770   6.697  18.224  0.00  0.00    +0.000 A 
ATOM      4  C   UNL     1       2.454   6.264  19.507  0.00  0.00    +0.000 A 
ATOM      5  N   UNL     1       1.840   7.108  20.365  0.00  0.00    +0.000 NA
ATOM      6  N   UNL     1       1.541   8.403  19.991  0.00  0.00    +0.000 NA
ENDROOT
BRANCH   4   7
ATOM      7  C   UNL     1       2.748   4.917  20.016  0.00  0.00    +0.000 A 
ATOM      8  C   UNL     1       2.017   4.313  21.051  0.00  0.00    +0.000 A 
ATOM      9  C   UNL     1       2.335   3.028  21.491  0.00  0.00    +0.000 A 
ATOM     10  C   UNL     1       3.388   2.366  20.884  0.00  0.00    +0.000 A 
ATOM     11  N   UNL     1       4.120   2.897  19.887  0.00  0.00    +0.000 NA
ATOM     12  C   UNL     1       3.781   4.145  19.476  0.00  0.00    +0.000 A 
ENDBRANCH   4   7
BRANCH   1  13
ATOM     13  S   UNL     1       1.450  10.521  18.314  0.00  0.00    +0.000 S 
BRANCH  13  14
ATOM     14  C   UNL     1       0.065  10.819  19.462  0.00  0.00    +0.000 C 
BRANCH  14  20
ATOM     15 CL   UNL     1      -2.902   9.634  15.316  0.00  0.00    +0.000 Cl
ATOM     16  C   UNL     1      -2.674  10.411  16.835  0.00  0.00    +0.000 A 
ATOM     17  C   UNL     1      -3.710  11.163  17.387  0.00  0.00    +0.000 A 
ATOM     18  C   UNL     1      -3.526  11.794  18.616  0.00  0.00    +0.000 A 
ATOM     19  C   UNL     1      -2.306  11.676  19.287  0.00  0.00    +0.000 A 
ATOM     20  C   UNL     1      -1.254  10.929  18.734  0.00  0.00    +0.000 A 
ATOM     21  C   UNL     1      -1.452  10.290  17.500  0.00  0.00    +0.000 A 
ENDBRANCH  14  20
ENDBRANCH  13  14
ENDBRANCH   1  13
TORSDOF 4
ENDMDL
MODEL 9
REMARK VINA RESULT:      -7.0      5.945      8.301
REMARK  Name = 
REMARK  4 active torsions:
REMARK  status: ('A' for Active; 'I' for Inactive)
REMARK    1  A    between atoms: C_6  and  C_7
REMARK    2  A    between atoms: C_7  and  S_8
REMARK    3  A    between atoms: S_8  and  C_9
REMARK    4  A    between atoms: C_12  and  C_13
REMARK                            x       y       z     vdW  Elec       q    Type
REMARK                         _______ _______ _______ _____ _____    ______ ____
ROOT
ATOM      1  C   UNL     1       7.212   7.486  17.703  0.00  0.00    +0.000 A 
ATOM      2  C   UNL     1       7.647   6.513  18.586  0.00  0.00    +0.000 A 
ATOM      3  C   UNL     1       6.856   5.380  18.792  0.00  0.00    +0.000 A 
ATOM      4  C   UNL     1       5.657   5.247  18.100  0.00  0.00    +0.000 A 
ATOM      5  N   UNL     1       5.279   6.207  17.228  0.00  0.00    +0.000 NA
ATOM      6  N   UNL     1       6.057   7.330  17.031  0.00  0.00    +0.000 NA
ENDROOT
BRANCH   4   7
ATOM      7  C   UNL     1       4.741   4.108  18.252  0.00  0.00    +0.000 A 
ATOM      8  C   UNL     1       3.818   3.730  17.264  0.00  0.00    +0.000 A 
ATOM      9  C   UNL     1       2.977   2.634  17.457  0.00  0.00    +0.000 A 
ATOM     10  C   UNL     1       3.073   1.932  18.645  0.00  0.00    +0.000 A 
ATOM     11  N   UNL     1       3.942   2.248  19.624  0.00  0.00    +0.000 NA
ATOM     12  C   UNL     1       4.752   3.314  19.402  0.00  0.00    +0.000 A 
ENDBRANCH   4   7
BRANCH   1  13
ATOM     13  S   UNL     1       8.191   8.944  17.419  0.00  0.00    +0.000 S 
BRANCH  13  14
ATOM     14  C   UNL     1       8.831   9.217  19.105  0.00  0.00    +0.000 C 
BRANCH  14  20
ATOM     15 CL   UNL     1      11.238  13.249  16.794  0.00  0.00    +0.000 Cl
ATOM     16  C   UNL     1      10.689  12.427  18.203  0.00  0.00    +0.000 A 
ATOM     17  C   UNL     1      10.938  12.973  19.460  0.00  0.00    +0.000 A 
ATOM     18  C   UNL     1      10.495  12.307  20.602  0.00  0.00    +0.000 A 
ATOM     19  C   UNL     1       9.809  11.096  20.483  0.00  0.00    +0.000 A 
ATOM     20  C   UNL     1       9.563  10.533  19.221  0.00  0.00    +0.000 A 
ATOM     21  C   UNL     1      10.004  11.216  18.077  0.00  0.00    +0.000 A 
ENDBRANCH  14  20
ENDBRANCH  13  14
ENDBRANCH   1  13
TORSDOF 4
ENDMDL
