MODEL 1
REMARK VINA RESULT:      -6.2      0.000      0.000
REMARK  Name = 
REMARK  10 active torsions:
REMARK  status: ('A' for Active; 'I' for Inactive)
REMARK    1  A    between atoms: C_1  and  C_2
REMARK    2  A    between atoms: C_7  and  O_8
REMARK    3  A    between atoms: C_13  and  O_14
REMARK    4  A    between atoms: C_15  and  O_16
REMARK    5  A    between atoms: C_17  and  O_18
REMARK    6  A    between atoms: C_19  and  C_20
REMARK    7  A    between atoms: C_25  and  N_26
REMARK    8  A    between atoms: N_26  and  C_27
REMARK    9  A    between atoms: N_26  and  C_28
REMARK   10  A    between atoms: C_30  and  O_31
REMARK                            x       y       z     vdW  Elec       q    Type
REMARK                         _______ _______ _______ _____ _____    ______ ____
ROOT
ATOM      1  C   UNL     1      -5.682  13.295  19.018  0.00  0.00    +0.000 C 
ATOM      2  C   UNL     1      -4.511  12.832  19.911  0.00  0.00    +0.000 C 
ATOM      3  C   UNL     1      -3.536  11.894  19.191  0.00  0.00    +0.000 A 
ATOM      4  C   UNL     1      -4.039  10.911  18.325  0.00  0.00    +0.000 A 
ATOM      5  C   UNL     1      -3.180  10.065  17.631  0.00  0.00    +0.000 A 
ATOM      6  C   UNL     1      -1.806  10.177  17.797  0.00  0.00    +0.000 A 
ATOM      7  C   UNL     1      -1.281  11.109  18.696  0.00  0.00    +0.000 A 
ATOM      8  C   UNL     1      -2.133  11.952  19.421  0.00  0.00    +0.000 A 
ATOM      9  C   UNL     1      -1.581  12.845  20.499  0.00  0.00    +0.000 C 
ATOM     10  O   UNL     1      -0.406  12.999  20.794  0.00  0.00    +0.000 OA
ATOM     11  C   UNL     1      -2.614  13.541  21.302  0.00  0.00    +0.000 C 
ATOM     12  C   UNL     1      -2.549  13.608  22.641  0.00  0.00    +0.000 C 
ATOM     13  C   UNL     1      -3.685  14.215  23.472  0.00  0.00    +0.000 C 
ATOM     14  C   UNL     1      -4.777  13.198  23.750  0.00  0.00    +0.000 C 
ATOM     15  C   UNL     1      -6.086  13.516  23.742  0.00  0.00    +0.000 C 
ATOM     16  C   UNL     1      -6.514  14.958  23.712  0.00  0.00    +0.000 C 
ATOM     17  O   UNL     1      -7.706  15.225  23.911  0.00  0.00    +0.000 OA
ATOM     18  C   UNL     1      -5.506  16.060  23.301  0.00  0.00    +0.000 C 
ATOM     19  C   UNL     1      -4.236  15.416  22.679  0.00  0.00    +0.000 C 
ATOM     20  C   UNL     1      -4.657  15.011  21.244  0.00  0.00    +0.000 C 
ATOM     21  C   UNL     1      -3.741  14.056  20.478  0.00  0.00    +0.000 C 
ENDROOT
BRANCH  15  22
ATOM     22  C   UNL     1      -7.099  12.421  23.601  0.00  0.00    +0.000 C 
ATOM     23  N   UNL     1      -7.916  12.479  22.516  0.00  0.00    +0.000 N 
ATOM     24  O   UNL     1      -7.123  11.427  24.323  0.00  0.00    +0.000 OA
ATOM     25  H   UNL     1      -8.448  11.647  22.297  0.00  0.00    +0.000 HD
ATOM     26  H   UNL     1      -7.711  13.131  21.760  0.00  0.00    +0.000 HD
ENDBRANCH  15  22
BRANCH  18  27
ATOM     27  N   UNL     1      -5.358  17.125  24.343  0.00  0.00    +0.000 NA
ATOM     28  C   UNL     1      -6.378  18.175  24.121  0.00  0.00    +0.000 C 
ATOM     29  C   UNL     1      -4.043  17.779  24.250  0.00  0.00    +0.000 C 
ENDBRANCH  18  27
BRANCH   7  30
ATOM     30  O   UNL     1       0.073  11.168  18.855  0.00  0.00    +0.000 OA
ATOM     31  H   UNL     1       0.476  10.329  18.584  0.00  0.00    +0.000 HD
ENDBRANCH   7  30
BRANCH  12  32
ATOM     32  O   UNL     1      -1.492  13.068  23.371  0.00  0.00    +0.000 OA
ATOM     33  H   UNL     1      -1.613  13.338  24.314  0.00  0.00    +0.000 HD
ENDBRANCH  12  32
BRANCH  13  34
ATOM     34  O   UNL     1      -3.158  14.627  24.726  0.00  0.00    +0.000 OA
ATOM     35  H   UNL     1      -2.571  13.907  25.028  0.00  0.00    +0.000 HD
ENDBRANCH  13  34
BRANCH  14  36
ATOM     36  O   UNL     1      -4.367  11.878  23.948  0.00  0.00    +0.000 OA
ATOM     37  H   UNL     1      -4.833  11.486  24.710  0.00  0.00    +0.000 HD
ENDBRANCH  14  36
BRANCH  20  38
ATOM     38  O   UNL     1      -4.830  16.200  20.459  0.00  0.00    +0.000 OA
ATOM     39  H   UNL     1      -5.750  16.237  20.141  0.00  0.00    +0.000 HD
ENDBRANCH  20  38
TORSDOF 7
ENDMDL
MODEL 2
REMARK VINA RESULT:      -6.2      4.291      7.388
REMARK  Name = 
REMARK  10 active torsions:
REMARK  status: ('A' for Active; 'I' for Inactive)
REMARK    1  A    between atoms: C_1  and  C_2
REMARK    2  A    between atoms: C_7  and  O_8
REMARK    3  A    between atoms: C_13  and  O_14
REMARK    4  A    between atoms: C_15  and  O_16
REMARK    5  A    between atoms: C_17  and  O_18
REMARK    6  A    between atoms: C_19  and  C_20
REMARK    7  A    between atoms: C_25  and  N_26
REMARK    8  A    between atoms: N_26  and  C_27
REMARK    9  A    between atoms: N_26  and  C_28
REMARK   10  A    between atoms: C_30  and  O_31
REMARK                            x       y       z     vdW  Elec       q    Type
REMARK                         _______ _______ _______ _____ _____    ______ ____
ROOT
ATOM      1  C   UNL     1       2.551  14.087  18.069  0.00  0.00    +0.000 C 
ATOM      2  C   UNL     1       2.223  13.869  19.562  0.00  0.00    +0.000 C 
ATOM      3  C   UNL     1       3.168  14.622  20.505  0.00  0.00    +0.000 A 
ATOM      4  C   UNL     1       4.538  14.680  20.206  0.00  0.00    +0.000 A 
ATOM      5  C   UNL     1       5.417  15.383  21.022  0.00  0.00    +0.000 A 
ATOM      6  C   UNL     1       4.948  16.032  22.157  0.00  0.00    +0.000 A 
ATOM      7  C   UNL     1       3.599  15.943  22.509  0.00  0.00    +0.000 A 
ATOM      8  C   UNL     1       2.705  15.219  21.710  0.00  0.00    +0.000 A 
ATOM      9  C   UNL     1       1.289  14.994  22.168  0.00  0.00    +0.000 C 
ATOM     10  O   UNL     1       0.759  15.450  23.170  0.00  0.00    +0.000 OA
ATOM     11  C   UNL     1       0.514  14.061  21.316  0.00  0.00    +0.000 C 
ATOM     12  C   UNL     1      -0.250  13.088  21.837  0.00  0.00    +0.000 C 
ATOM     13  C   UNL     1      -0.944  12.048  20.950  0.00  0.00    +0.000 C 
ATOM     14  C   UNL     1      -0.014  10.897  20.611  0.00  0.00    +0.000 C 
ATOM     15  C   UNL     1       0.003  10.310  19.398  0.00  0.00    +0.000 C 
ATOM     16  C   UNL     1      -1.085  10.601  18.401  0.00  0.00    +0.000 C 
ATOM     17  O   UNL     1      -1.158   9.900  17.384  0.00  0.00    +0.000 OA
ATOM     18  C   UNL     1      -1.999  11.839  18.585  0.00  0.00    +0.000 C 
ATOM     19  C   UNL     1      -1.411  12.777  19.676  0.00  0.00    +0.000 C 
ATOM     20  C   UNL     1      -0.242  13.517  18.977  0.00  0.00    +0.000 C 
ATOM     21  C   UNL     1       0.753  14.268  19.862  0.00  0.00    +0.000 C 
ENDROOT
BRANCH  15  22
ATOM     22  C   UNL     1       1.197   9.496  19.002  0.00  0.00    +0.000 C 
ATOM     23  N   UNL     1       1.879   9.908  17.900  0.00  0.00    +0.000 N 
ATOM     24  O   UNL     1       1.657   8.590  19.693  0.00  0.00    +0.000 OA
ATOM     25  H   UNL     1       2.794   9.505  17.749  0.00  0.00    +0.000 HD
ATOM     26  H   UNL     1       1.684  10.821  17.493  0.00  0.00    +0.000 HD
ENDBRANCH  15  22
BRANCH  18  27
ATOM     27  N   UNL     1      -3.452  11.483  18.624  0.00  0.00    +0.000 NA
ATOM     28  C   UNL     1      -4.006  11.526  17.251  0.00  0.00    +0.000 C 
ATOM     29  C   UNL     1      -4.215  12.456  19.423  0.00  0.00    +0.000 C 
ENDBRANCH  18  27
BRANCH   7  30
ATOM     30  O   UNL     1       3.181  16.569  23.648  0.00  0.00    +0.000 OA
ATOM     31  H   UNL     1       3.850  17.206  23.940  0.00  0.00    +0.000 HD
ENDBRANCH   7  30
BRANCH  12  32
ATOM     32  O   UNL     1      -0.405  12.907  23.210  0.00  0.00    +0.000 OA
ATOM     33  H   UNL     1      -1.048  12.168  23.342  0.00  0.00    +0.000 HD
ENDBRANCH  12  32
BRANCH  13  34
ATOM     34  O   UNL     1      -2.047  11.508  21.665  0.00  0.00    +0.000 OA
ATOM     35  H   UNL     1      -2.831  11.632  21.097  0.00  0.00    +0.000 HD
ENDBRANCH  13  34
BRANCH  14  36
ATOM     36  O   UNL     1       0.890  10.509  21.601  0.00  0.00    +0.000 OA
ATOM     37  H   UNL     1       0.556   9.729  22.083  0.00  0.00    +0.000 HD
ENDBRANCH  14  36
BRANCH  20  38
ATOM     38  O   UNL     1      -0.783  14.438  18.019  0.00  0.00    +0.000 OA
ATOM     39  H   UNL     1      -0.091  14.662  17.371  0.00  0.00    +0.000 HD
ENDBRANCH  20  38
TORSDOF 7
ENDMDL
MODEL 3
REMARK VINA RESULT:      -6.2      2.932      5.156
REMARK  Name = 
REMARK  10 active torsions:
REMARK  status: ('A' for Active; 'I' for Inactive)
REMARK    1  A    between atoms: C_1  and  C_2
REMARK    2  A    between atoms: C_7  and  O_8
REMARK    3  A    between atoms: C_13  and  O_14
REMARK    4  A    between atoms: C_15  and  O_16
REMARK    5  A    between atoms: C_17  and  O_18
REMARK    6  A    between atoms: C_19  and  C_20
REMARK    7  A    between atoms: C_25  and  N_26
REMARK    8  A    between atoms: N_26  and  C_27
REMARK    9  A    between atoms: N_26  and  C_28
REMARK   10  A    between atoms: C_30  and  O_31
REMARK                            x       y       z     vdW  Elec       q    Type
REMARK                         _______ _______ _______ _____ _____    ______ ____
ROOT
ATOM      1  C   UNL     1      -0.458  11.167  20.618  0.00  0.00    +0.000 C 
ATOM      2  C   UNL     1      -1.563  12.066  20.022  0.00  0.00    +0.000 C 
ATOM      3  C   UNL     1      -2.275  11.433  18.821  0.00  0.00    +0.000 A 
ATOM      4  C   UNL     1      -1.526  10.716  17.876  0.00  0.00    +0.000 A 
ATOM      5  C   UNL     1      -2.146  10.102  16.793  0.00  0.00    +0.000 A 
ATOM      6  C   UNL     1      -3.521  10.201  16.628  0.00  0.00    +0.000 A 
ATOM      7  C   UNL     1      -4.283  10.956  17.523  0.00  0.00    +0.000 A 
ATOM      8  C   UNL     1      -3.671  11.601  18.605  0.00  0.00    +0.000 A 
ATOM      9  C   UNL     1      -4.463  12.537  19.478  0.00  0.00    +0.000 C 
ATOM     10  O   UNL     1      -5.660  12.767  19.412  0.00  0.00    +0.000 OA
ATOM     11  C   UNL     1      -3.648  13.285  20.465  0.00  0.00    +0.000 C 
ATOM     12  C   UNL     1      -3.810  14.602  20.670  0.00  0.00    +0.000 C 
ATOM     13  C   UNL     1      -2.878  15.392  21.596  0.00  0.00    +0.000 C 
ATOM     14  C   UNL     1      -1.620  15.836  20.873  0.00  0.00    +0.000 C 
ATOM     15  C   UNL     1      -0.407  15.837  21.460  0.00  0.00    +0.000 C 
ATOM     16  C   UNL     1      -0.285  15.643  22.946  0.00  0.00    +0.000 C 
ATOM     17  O   UNL     1       0.810  15.851  23.482  0.00  0.00    +0.000 OA
ATOM     18  C   UNL     1      -1.471  15.060  23.754  0.00  0.00    +0.000 C 
ATOM     19  C   UNL     1      -2.539  14.476  22.788  0.00  0.00    +0.000 C 
ATOM     20  C   UNL     1      -1.954  13.119  22.320  0.00  0.00    +0.000 C 
ATOM     21  C   UNL     1      -2.603  12.446  21.111  0.00  0.00    +0.000 C 
ENDROOT
BRANCH  15  22
ATOM     22  C   UNL     1       0.818  15.873  20.596  0.00  0.00    +0.000 C 
ATOM     23  N   UNL     1       1.597  14.759  20.594  0.00  0.00    +0.000 N 
ATOM     24  O   UNL     1       1.059  16.781  19.804  0.00  0.00    +0.000 OA
ATOM     25  H   UNL     1       2.294  14.688  19.865  0.00  0.00    +0.000 HD
ATOM     26  H   UNL     1       1.252  13.896  21.013  0.00  0.00    +0.000 HD
ENDBRANCH  15  22
BRANCH  18  27
ATOM     27  N   UNL     1      -1.901  15.954  24.875  0.00  0.00    +0.000 NA
ATOM     28  C   UNL     1      -1.117  15.632  26.090  0.00  0.00    +0.000 C 
ATOM     29  C   UNL     1      -3.319  15.739  25.212  0.00  0.00    +0.000 C 
ENDBRANCH  18  27
BRANCH   7  30
ATOM     30  O   UNL     1      -5.628  11.055  17.311  0.00  0.00    +0.000 OA
ATOM     31  H   UNL     1      -6.026  10.172  17.293  0.00  0.00    +0.000 HD
ENDBRANCH   7  30
BRANCH  12  32
ATOM     32  O   UNL     1      -4.777  15.353  20.005  0.00  0.00    +0.000 OA
ATOM     33  H   UNL     1      -4.386  16.243  19.819  0.00  0.00    +0.000 HD
ENDBRANCH  12  32
BRANCH  13  34
ATOM     34  O   UNL     1      -3.557  16.564  22.027  0.00  0.00    +0.000 OA
ATOM     35  H   UNL     1      -2.897  17.107  22.499  0.00  0.00    +0.000 HD
ENDBRANCH  13  34
BRANCH  14  36
ATOM     36  O   UNL     1      -1.759  16.182  19.528  0.00  0.00    +0.000 OA
ATOM     37  H   UNL     1      -1.586  17.133  19.399  0.00  0.00    +0.000 HD
ENDBRANCH  14  36
BRANCH  20  38
ATOM     38  O   UNL     1      -1.981  12.199  23.421  0.00  0.00    +0.000 OA
ATOM     39  H   UNL     1      -2.339  12.656  24.204  0.00  0.00    +0.000 HD
ENDBRANCH  20  38
TORSDOF 7
ENDMDL
MODEL 4
REMARK VINA RESULT:      -6.2      1.067      1.199
REMARK  Name = 
REMARK  10 active torsions:
REMARK  status: ('A' for Active; 'I' for Inactive)
REMARK    1  A    between atoms: C_1  and  C_2
REMARK    2  A    between atoms: C_7  and  O_8
REMARK    3  A    between atoms: C_13  and  O_14
REMARK    4  A    between atoms: C_15  and  O_16
REMARK    5  A    between atoms: C_17  and  O_18
REMARK    6  A    between atoms: C_19  and  C_20
REMARK    7  A    between atoms: C_25  and  N_26
REMARK    8  A    between atoms: N_26  and  C_27
REMARK    9  A    between atoms: N_26  and  C_28
REMARK   10  A    between atoms: C_30  and  O_31
REMARK                            x       y       z     vdW  Elec       q    Type
REMARK                         _______ _______ _______ _____ _____    ______ ____
ROOT
ATOM      1  C   UNL     1      -5.248  13.269  19.063  0.00  0.00    +0.000 C 
ATOM      2  C   UNL     1      -3.985  12.698  19.743  0.00  0.00    +0.000 C 
ATOM      3  C   UNL     1      -3.252  11.662  18.884  0.00  0.00    +0.000 A 
ATOM      4  C   UNL     1      -3.996  10.728  18.147  0.00  0.00    +0.000 A 
ATOM      5  C   UNL     1      -3.363   9.796  17.332  0.00  0.00    +0.000 A 
ATOM      6  C   UNL     1      -1.977   9.771  17.246  0.00  0.00    +0.000 A 
ATOM      7  C   UNL     1      -1.211  10.652  18.013  0.00  0.00    +0.000 A 
ATOM      8  C   UNL     1      -1.832  11.581  18.857  0.00  0.00    +0.000 A 
ATOM      9  C   UNL     1      -1.010  12.422  19.796  0.00  0.00    +0.000 C 
ATOM     10  O   UNL     1       0.208  12.461  19.872  0.00  0.00    +0.000 OA
ATOM     11  C   UNL     1      -1.809  13.223  20.753  0.00  0.00    +0.000 C 
ATOM     12  C   UNL     1      -1.497  13.293  22.057  0.00  0.00    +0.000 C 
ATOM     13  C   UNL     1      -2.400  14.017  23.063  0.00  0.00    +0.000 C 
ATOM     14  C   UNL     1      -3.517  13.116  23.557  0.00  0.00    +0.000 C 
ATOM     15  C   UNL     1      -4.769  13.563  23.775  0.00  0.00    +0.000 C 
ATOM     16  C   UNL     1      -5.053  15.040  23.786  0.00  0.00    +0.000 C 
ATOM     17  O   UNL     1      -6.158  15.426  24.189  0.00  0.00    +0.000 OA
ATOM     18  C   UNL     1      -4.034  16.034  23.174  0.00  0.00    +0.000 C 
ATOM     19  C   UNL     1      -2.965  15.262  22.351  0.00  0.00    +0.000 C 
ATOM     20  C   UNL     1      -3.676  14.890  21.025  0.00  0.00    +0.000 C 
ATOM     21  C   UNL     1      -3.010  13.843  20.132  0.00  0.00    +0.000 C 
ENDROOT
BRANCH  15  22
ATOM     22  C   UNL     1      -5.892  12.574  23.846  0.00  0.00    +0.000 C 
ATOM     23  N   UNL     1      -6.724  12.516  22.773  0.00  0.00    +0.000 N 
ATOM     24  O   UNL     1      -6.000  11.738  24.741  0.00  0.00    +0.000 OA
ATOM     25  H   UNL     1      -7.344  11.719  22.714  0.00  0.00    +0.000 HD
ATOM     26  H   UNL     1      -6.472  12.991  21.907  0.00  0.00    +0.000 HD
ENDBRANCH  15  22
BRANCH  18  27
ATOM     27  N   UNL     1      -3.598  17.085  24.145  0.00  0.00    +0.000 NA
ATOM     28  C   UNL     1      -4.565  18.206  24.124  0.00  0.00    +0.000 C 
ATOM     29  C   UNL     1      -2.288  17.644  23.771  0.00  0.00    +0.000 C 
ENDBRANCH  18  27
BRANCH   7  30
ATOM     30  O   UNL     1       0.149  10.577  17.925  0.00  0.00    +0.000 OA
ATOM     31  H   UNL     1       0.546  10.706  18.800  0.00  0.00    +0.000 HD
ENDBRANCH   7  30
BRANCH  12  32
ATOM     32  O   UNL     1      -0.382  12.656  22.599  0.00  0.00    +0.000 OA
ATOM     33  H   UNL     1       0.328  12.662  21.911  0.00  0.00    +0.000 HD
ENDBRANCH  12  32
BRANCH  13  34
ATOM     34  O   UNL     1      -1.617  14.383  24.191  0.00  0.00    +0.000 OA
ATOM     35  H   UNL     1      -1.907  15.280  24.448  0.00  0.00    +0.000 HD
ENDBRANCH  13  34
BRANCH  14  36
ATOM     36  O   UNL     1      -3.208  11.763  23.711  0.00  0.00    +0.000 OA
ATOM     37  H   UNL     1      -2.275  11.596  23.478  0.00  0.00    +0.000 HD
ENDBRANCH  14  36
BRANCH  20  38
ATOM     38  O   UNL     1      -3.872  16.085  20.255  0.00  0.00    +0.000 OA
ATOM     39  H   UNL     1      -4.285  16.761  20.822  0.00  0.00    +0.000 HD
ENDBRANCH  20  38
TORSDOF 7
ENDMDL
MODEL 5
REMARK VINA RESULT:      -6.1      3.330      7.188
REMARK  Name = 
REMARK  10 active torsions:
REMARK  status: ('A' for Active; 'I' for Inactive)
REMARK    1  A    between atoms: C_1  and  C_2
REMARK    2  A    between atoms: C_7  and  O_8
REMARK    3  A    between atoms: C_13  and  O_14
REMARK    4  A    between atoms: C_15  and  O_16
REMARK    5  A    between atoms: C_17  and  O_18
REMARK    6  A    between atoms: C_19  and  C_20
REMARK    7  A    between atoms: C_25  and  N_26
REMARK    8  A    between atoms: N_26  and  C_27
REMARK    9  A    between atoms: N_26  and  C_28
REMARK   10  A    between atoms: C_30  and  O_31
REMARK                            x       y       z     vdW  Elec       q    Type
REMARK                         _______ _______ _______ _____ _____    ______ ____
ROOT
ATOM      1  C   UNL     1      -3.636  12.299  23.511  0.00  0.00    +0.000 C 
ATOM      2  C   UNL     1      -2.740  13.450  23.004  0.00  0.00    +0.000 C 
ATOM      3  C   UNL     1      -2.995  14.778  23.726  0.00  0.00    +0.000 A 
ATOM      4  C   UNL     1      -4.311  15.151  24.037  0.00  0.00    +0.000 A 
ATOM      5  C   UNL     1      -4.574  16.333  24.721  0.00  0.00    +0.000 A 
ATOM      6  C   UNL     1      -3.531  17.169  25.096  0.00  0.00    +0.000 A 
ATOM      7  C   UNL     1      -2.216  16.849  24.749  0.00  0.00    +0.000 A 
ATOM      8  C   UNL     1      -1.936  15.675  24.040  0.00  0.00    +0.000 A 
ATOM      9  C   UNL     1      -0.545  15.407  23.532  0.00  0.00    +0.000 C 
ATOM     10  O   UNL     1       0.453  16.083  23.733  0.00  0.00    +0.000 OA
ATOM     11  C   UNL     1      -0.437  14.224  22.646  0.00  0.00    +0.000 C 
ATOM     12  C   UNL     1       0.257  14.256  21.497  0.00  0.00    +0.000 C 
ATOM     13  C   UNL     1       0.257  13.071  20.525  0.00  0.00    +0.000 C 
ATOM     14  C   UNL     1      -0.944  13.111  19.598  0.00  0.00    +0.000 C 
ATOM     15  C   UNL     1      -1.614  12.002  19.228  0.00  0.00    +0.000 C 
ATOM     16  C   UNL     1      -1.039  10.641  19.512  0.00  0.00    +0.000 C 
ATOM     17  O   UNL     1      -1.568   9.655  18.984  0.00  0.00    +0.000 OA
ATOM     18  C   UNL     1       0.098  10.478  20.551  0.00  0.00    +0.000 C 
ATOM     19  C   UNL     1       0.259  11.786  21.375  0.00  0.00    +0.000 C 
ATOM     20  C   UNL     1      -0.915  11.766  22.386  0.00  0.00    +0.000 C 
ATOM     21  C   UNL     1      -1.240  13.066  23.123  0.00  0.00    +0.000 C 
ENDROOT
BRANCH  15  22
ATOM     22  C   UNL     1      -3.001  12.141  18.679  0.00  0.00    +0.000 C 
ATOM     23  N   UNL     1      -3.178  11.811  17.372  0.00  0.00    +0.000 N 
ATOM     24  O   UNL     1      -3.982  12.391  19.377  0.00  0.00    +0.000 OA
ATOM     25  H   UNL     1      -4.130  11.694  17.053  0.00  0.00    +0.000 HD
ATOM     26  H   UNL     1      -2.439  11.324  16.866  0.00  0.00    +0.000 HD
ENDBRANCH  15  22
BRANCH  18  27
ATOM     27  N   UNL     1       1.311   9.813  19.980  0.00  0.00    +0.000 NA
ATOM     28  C   UNL     1       1.247   9.859  18.501  0.00  0.00    +0.000 C 
ATOM     29  C   UNL     1       1.366   8.392  20.361  0.00  0.00    +0.000 C 
ENDBRANCH  18  27
BRANCH   7  30
ATOM     30  O   UNL     1      -1.220  17.711  25.109  0.00  0.00    +0.000 OA
ATOM     31  H   UNL     1      -0.570  17.253  25.663  0.00  0.00    +0.000 HD
ENDBRANCH   7  30
BRANCH  12  32
ATOM     32  O   UNL     1       0.957  15.384  21.072  0.00  0.00    +0.000 OA
ATOM     33  H   UNL     1       0.458  16.178  21.383  0.00  0.00    +0.000 HD
ENDBRANCH  12  32
BRANCH  13  34
ATOM     34  O   UNL     1       1.422  13.151  19.715  0.00  0.00    +0.000 OA
ATOM     35  H   UNL     1       2.061  13.705  20.205  0.00  0.00    +0.000 HD
ENDBRANCH  13  34
BRANCH  14  36
ATOM     36  O   UNL     1      -1.381  14.374  19.193  0.00  0.00    +0.000 OA
ATOM     37  H   UNL     1      -1.327  14.460  18.223  0.00  0.00    +0.000 HD
ENDBRANCH  14  36
BRANCH  20  38
ATOM     38  O   UNL     1      -0.670  10.741  23.360  0.00  0.00    +0.000 OA
ATOM     39  H   UNL     1      -1.081  11.004  24.204  0.00  0.00    +0.000 HD
ENDBRANCH  20  38
TORSDOF 7
ENDMDL
MODEL 6
REMARK VINA RESULT:      -6.1      2.530      3.672
REMARK  Name = 
REMARK  10 active torsions:
REMARK  status: ('A' for Active; 'I' for Inactive)
REMARK    1  A    between atoms: C_1  and  C_2
REMARK    2  A    between atoms: C_7  and  O_8
REMARK    3  A    between atoms: C_13  and  O_14
REMARK    4  A    between atoms: C_15  and  O_16
REMARK    5  A    between atoms: C_17  and  O_18
REMARK    6  A    between atoms: C_19  and  C_20
REMARK    7  A    between atoms: C_25  and  N_26
REMARK    8  A    between atoms: N_26  and  C_27
REMARK    9  A    between atoms: N_26  and  C_28
REMARK   10  A    between atoms: C_30  and  O_31
REMARK                            x       y       z     vdW  Elec       q    Type
REMARK                         _______ _______ _______ _____ _____    ______ ____
ROOT
ATOM      1  C   UNL     1      -1.399  12.990  18.507  0.00  0.00    +0.000 C 
ATOM      2  C   UNL     1      -1.950  12.350  19.799  0.00  0.00    +0.000 C 
ATOM      3  C   UNL     1      -1.044  11.250  20.364  0.00  0.00    +0.000 A 
ATOM      4  C   UNL     1      -0.417  10.354  19.484  0.00  0.00    +0.000 A 
ATOM      5  C   UNL     1       0.437   9.367  19.962  0.00  0.00    +0.000 A 
ATOM      6  C   UNL     1       0.674   9.248  21.325  0.00  0.00    +0.000 A 
ATOM      7  C   UNL     1       0.020  10.091  22.227  0.00  0.00    +0.000 A 
ATOM      8  C   UNL     1      -0.862  11.075  21.764  0.00  0.00    +0.000 A 
ATOM      9  C   UNL     1      -1.682  11.878  22.738  0.00  0.00    +0.000 C 
ATOM     10  O   UNL     1      -1.623  11.837  23.957  0.00  0.00    +0.000 OA
ATOM     11  C   UNL     1      -2.701  12.749  22.103  0.00  0.00    +0.000 C 
ATOM     12  C   UNL     1      -3.960  12.822  22.563  0.00  0.00    +0.000 C 
ATOM     13  C   UNL     1      -5.039  13.624  21.826  0.00  0.00    +0.000 C 
ATOM     14  C   UNL     1      -5.677  12.808  20.716  0.00  0.00    +0.000 C 
ATOM     15  C   UNL     1      -6.020  13.342  19.527  0.00  0.00    +0.000 C 
ATOM     16  C   UNL     1      -6.023  14.835  19.340  0.00  0.00    +0.000 C 
ATOM     17  O   UNL     1      -6.535  15.301  18.315  0.00  0.00    +0.000 OA
ATOM     18  C   UNL     1      -5.277  15.746  20.346  0.00  0.00    +0.000 C 
ATOM     19  C   UNL     1      -4.362  14.889  21.265  0.00  0.00    +0.000 C 
ATOM     20  C   UNL     1      -3.132  14.541  20.389  0.00  0.00    +0.000 C 
ATOM     21  C   UNL     1      -2.199  13.434  20.882  0.00  0.00    +0.000 C 
ENDROOT
BRANCH  15  22
ATOM     22  C   UNL     1      -6.240  12.431  18.358  0.00  0.00    +0.000 C 
ATOM     23  N   UNL     1      -5.333  12.503  17.348  0.00  0.00    +0.000 N 
ATOM     24  O   UNL     1      -7.094  11.547  18.342  0.00  0.00    +0.000 OA
ATOM     25  H   UNL     1      -5.346  11.756  16.665  0.00  0.00    +0.000 HD
ATOM     26  H   UNL     1      -4.463  13.016  17.481  0.00  0.00    +0.000 HD
ENDBRANCH  15  22
BRANCH  18  27
ATOM     27  N   UNL     1      -6.166  16.785  20.955  0.00  0.00    +0.000 NA
ATOM     28  C   UNL     1      -6.230  17.963  20.060  0.00  0.00    +0.000 C 
ATOM     29  C   UNL     1      -5.630  17.255  22.243  0.00  0.00    +0.000 C 
ENDBRANCH  18  27
BRANCH   7  30
ATOM     30  O   UNL     1       0.255   9.924  23.561  0.00  0.00    +0.000 OA
ATOM     31  H   UNL     1      -0.405   9.325  23.941  0.00  0.00    +0.000 HD
ENDBRANCH   7  30
BRANCH  12  32
ATOM     32  O   UNL     1      -4.393  12.123  23.688  0.00  0.00    +0.000 OA
ATOM     33  H   UNL     1      -5.330  11.853  23.528  0.00  0.00    +0.000 HD
ENDBRANCH  12  32
BRANCH  13  34
ATOM     34  O   UNL     1      -6.064  13.959  22.751  0.00  0.00    +0.000 OA
ATOM     35  H   UNL     1      -6.525  14.738  22.383  0.00  0.00    +0.000 HD
ENDBRANCH  13  34
BRANCH  14  36
ATOM     36  O   UNL     1      -5.832  11.441  20.953  0.00  0.00    +0.000 OA
ATOM     37  H   UNL     1      -6.564  11.082  20.417  0.00  0.00    +0.000 HD
ENDBRANCH  14  36
BRANCH  20  38
ATOM     38  O   UNL     1      -2.357  15.731  20.185  0.00  0.00    +0.000 OA
ATOM     39  H   UNL     1      -2.190  16.150  21.049  0.00  0.00    +0.000 HD
ENDBRANCH  20  38
TORSDOF 7
ENDMDL
MODEL 7
REMARK VINA RESULT:      -6.0      3.911      5.854
REMARK  Name = 
REMARK  10 active torsions:
REMARK  status: ('A' for Active; 'I' for Inactive)
REMARK    1  A    between atoms: C_1  and  C_2
REMARK    2  A    between atoms: C_7  and  O_8
REMARK    3  A    between atoms: C_13  and  O_14
REMARK    4  A    between atoms: C_15  and  O_16
REMARK    5  A    between atoms: C_17  and  O_18
REMARK    6  A    between atoms: C_19  and  C_20
REMARK    7  A    between atoms: C_25  and  N_26
REMARK    8  A    between atoms: N_26  and  C_27
REMARK    9  A    between atoms: N_26  and  C_28
REMARK   10  A    between atoms: C_30  and  O_31
REMARK                            x       y       z     vdW  Elec       q    Type
REMARK                         _______ _______ _______ _____ _____    ______ ____
ROOT
ATOM      1  C   UNL     1      -0.419  16.135  18.466  0.00  0.00    +0.000 C 
ATOM      2  C   UNL     1       0.449  14.968  18.984  0.00  0.00    +0.000 C 
ATOM      3  C   UNL     1       1.949  15.179  18.749  0.00  0.00    +0.000 A 
ATOM      4  C   UNL     1       2.383  15.745  17.540  0.00  0.00    +0.000 A 
ATOM      5  C   UNL     1       3.734  15.981  17.309  0.00  0.00    +0.000 A 
ATOM      6  C   UNL     1       4.676  15.647  18.273  0.00  0.00    +0.000 A 
ATOM      7  C   UNL     1       4.275  15.031  19.462  0.00  0.00    +0.000 A 
ATOM      8  C   UNL     1       2.922  14.765  19.700  0.00  0.00    +0.000 A 
ATOM      9  C   UNL     1       2.506  13.965  20.906  0.00  0.00    +0.000 C 
ATOM     10  O   UNL     1       3.229  13.556  21.801  0.00  0.00    +0.000 OA
ATOM     11  C   UNL     1       1.068  13.606  20.932  0.00  0.00    +0.000 C 
ATOM     12  C   UNL     1       0.649  12.369  21.244  0.00  0.00    +0.000 C 
ATOM     13  C   UNL     1      -0.828  11.971  21.143  0.00  0.00    +0.000 C 
ATOM     14  C   UNL     1      -1.196  11.551  19.732  0.00  0.00    +0.000 C 
ATOM     15  C   UNL     1      -2.376  11.867  19.164  0.00  0.00    +0.000 C 
ATOM     16  C   UNL     1      -3.491  12.434  20.000  0.00  0.00    +0.000 C 
ATOM     17  O   UNL     1      -4.619  12.522  19.500  0.00  0.00    +0.000 OA
ATOM     18  C   UNL     1      -3.191  13.019  21.403  0.00  0.00    +0.000 C 
ATOM     19  C   UNL     1      -1.658  13.189  21.594  0.00  0.00    +0.000 C 
ATOM     20  C   UNL     1      -1.295  14.460  20.785  0.00  0.00    +0.000 C 
ATOM     21  C   UNL     1       0.183  14.719  20.494  0.00  0.00    +0.000 C 
ENDROOT
BRANCH  15  22
ATOM     22  C   UNL     1      -2.506  11.799  17.673  0.00  0.00    +0.000 C 
ATOM     23  N   UNL     1      -1.495  12.346  16.945  0.00  0.00    +0.000 N 
ATOM     24  O   UNL     1      -3.386  11.161  17.100  0.00  0.00    +0.000 OA
ATOM     25  H   UNL     1      -1.464  12.120  15.960  0.00  0.00    +0.000 HD
ATOM     26  H   UNL     1      -0.625  12.613  17.404  0.00  0.00    +0.000 HD
ENDBRANCH  15  22
BRANCH  18  27
ATOM     27  N   UNL     1      -4.000  12.372  22.483  0.00  0.00    +0.000 NA
ATOM     28  C   UNL     1      -5.321  13.037  22.574  0.00  0.00    +0.000 C 
ATOM     29  C   UNL     1      -3.353  12.527  23.797  0.00  0.00    +0.000 C 
ENDBRANCH  18  27
BRANCH   7  30
ATOM     30  O   UNL     1       5.233  14.691  20.373  0.00  0.00    +0.000 OA
ATOM     31  H   UNL     1       5.414  15.441  20.960  0.00  0.00    +0.000 HD
ENDBRANCH   7  30
BRANCH  12  32
ATOM     32  O   UNL     1       1.525  11.347  21.605  0.00  0.00    +0.000 OA
ATOM     33  H   UNL     1       1.046  10.490  21.487  0.00  0.00    +0.000 HD
ENDBRANCH  12  32
BRANCH  13  34
ATOM     34  O   UNL     1      -1.054  10.855  21.993  0.00  0.00    +0.000 OA
ATOM     35  H   UNL     1      -2.006  10.646  21.926  0.00  0.00    +0.000 HD
ENDBRANCH  13  34
BRANCH  14  36
ATOM     36  O   UNL     1      -0.216  10.871  19.006  0.00  0.00    +0.000 OA
ATOM     37  H   UNL     1       0.029  11.375  18.207  0.00  0.00    +0.000 HD
ENDBRANCH  14  36
BRANCH  20  38
ATOM     38  O   UNL     1      -1.831  15.607  21.461  0.00  0.00    +0.000 OA
ATOM     39  H   UNL     1      -1.121  16.264  21.579  0.00  0.00    +0.000 HD
ENDBRANCH  20  38
TORSDOF 7
ENDMDL
MODEL 8
REMARK VINA RESULT:      -6.0      3.382      6.762
REMARK  Name = 
REMARK  10 active torsions:
REMARK  status: ('A' for Active; 'I' for Inactive)
REMARK    1  A    between atoms: C_1  and  C_2
REMARK    2  A    between atoms: C_7  and  O_8
REMARK    3  A    between atoms: C_13  and  O_14
REMARK    4  A    between atoms: C_15  and  O_16
REMARK    5  A    between atoms: C_17  and  O_18
REMARK    6  A    between atoms: C_19  and  C_20
REMARK    7  A    between atoms: C_25  and  N_26
REMARK    8  A    between atoms: N_26  and  C_27
REMARK    9  A    between atoms: N_26  and  C_28
REMARK   10  A    between atoms: C_30  and  O_31
REMARK                            x       y       z     vdW  Elec       q    Type
REMARK                         _______ _______ _______ _____ _____    ______ ____
ROOT
ATOM      1  C   UNL     1      -3.104  14.102  22.474  0.00  0.00    +0.000 C 
ATOM      2  C   UNL     1      -3.481  12.983  21.480  0.00  0.00    +0.000 C 
ATOM      3  C   UNL     1      -4.970  12.621  21.513  0.00  0.00    +0.000 A 
ATOM      4  C   UNL     1      -5.637  12.561  22.746  0.00  0.00    +0.000 A 
ATOM      5  C   UNL     1      -6.995  12.268  22.809  0.00  0.00    +0.000 A 
ATOM      6  C   UNL     1      -7.709  12.019  21.645  0.00  0.00    +0.000 A 
ATOM      7  C   UNL     1      -7.058  12.016  20.409  0.00  0.00    +0.000 A 
ATOM      8  C   UNL     1      -5.686  12.285  20.331  0.00  0.00    +0.000 A 
ATOM      9  C   UNL     1      -4.955  12.131  19.024  0.00  0.00    +0.000 C 
ATOM     10  O   UNL     1      -5.442  11.858  17.938  0.00  0.00    +0.000 OA
ATOM     11  C   UNL     1      -3.483  12.269  19.130  0.00  0.00    +0.000 C 
ATOM     12  C   UNL     1      -2.642  11.417  18.523  0.00  0.00    +0.000 C 
ATOM     13  C   UNL     1      -1.126  11.489  18.742  0.00  0.00    +0.000 C 
ATOM     14  C   UNL     1      -0.708  10.738  19.992  0.00  0.00    +0.000 C 
ATOM     15  C   UNL     1       0.256  11.186  20.821  0.00  0.00    +0.000 C 
ATOM     16  C   UNL     1       1.143  12.326  20.403  0.00  0.00    +0.000 C 
ATOM     17  O   UNL     1       2.142  12.579  21.088  0.00  0.00    +0.000 OA
ATOM     18  C   UNL     1       0.731  13.241  19.223  0.00  0.00    +0.000 C 
ATOM     19  C   UNL     1      -0.753  12.981  18.840  0.00  0.00    +0.000 C 
ATOM     20  C   UNL     1      -1.579  13.709  19.931  0.00  0.00    +0.000 C 
ATOM     21  C   UNL     1      -3.067  13.374  20.035  0.00  0.00    +0.000 C 
ENDROOT
BRANCH  15  22
ATOM     22  C   UNL     1       0.323  10.644  22.216  0.00  0.00    +0.000 C 
ATOM     23  N   UNL     1      -0.742  10.895  23.023  0.00  0.00    +0.000 N 
ATOM     24  O   UNL     1       1.207   9.881  22.602  0.00  0.00    +0.000 OA
ATOM     25  H   UNL     1      -0.805  10.362  23.879  0.00  0.00    +0.000 HD
ATOM     26  H   UNL     1      -1.603  11.269  22.626  0.00  0.00    +0.000 HD
ENDBRANCH  15  22
BRANCH  18  27
ATOM     27  N   UNL     1       1.770  13.300  18.147  0.00  0.00    +0.000 NA
ATOM     28  C   UNL     1       2.536  12.033  18.133  0.00  0.00    +0.000 C 
ATOM     29  C   UNL     1       2.736  14.382  18.402  0.00  0.00    +0.000 C 
ENDBRANCH  18  27
BRANCH   7  30
ATOM     30  O   UNL     1      -7.787  11.736  19.289  0.00  0.00    +0.000 OA
ATOM     31  H   UNL     1      -8.729  11.678  19.513  0.00  0.00    +0.000 HD
ENDBRANCH   7  30
BRANCH  12  32
ATOM     32  O   UNL     1      -3.085  10.368  17.719  0.00  0.00    +0.000 OA
ATOM     33  H   UNL     1      -2.285   9.912  17.358  0.00  0.00    +0.000 HD
ENDBRANCH  12  32
BRANCH  13  34
ATOM     34  O   UNL     1      -0.480  10.871  17.637  0.00  0.00    +0.000 OA
ATOM     35  H   UNL     1      -0.179   9.996  17.949  0.00  0.00    +0.000 HD
ENDBRANCH  13  34
BRANCH  14  36
ATOM     36  O   UNL     1      -1.424   9.579  20.295  0.00  0.00    +0.000 OA
ATOM     37  H   UNL     1      -0.995   9.092  21.024  0.00  0.00    +0.000 HD
ENDBRANCH  14  36
BRANCH  20  38
ATOM     38  O   UNL     1      -1.444  15.125  19.746  0.00  0.00    +0.000 OA
ATOM     39  H   UNL     1      -1.665  15.345  18.823  0.00  0.00    +0.000 HD
ENDBRANCH  20  38
TORSDOF 7
ENDMDL
MODEL 9
REMARK VINA RESULT:      -6.0      2.879      3.827
REMARK  Name = 
REMARK  10 active torsions:
REMARK  status: ('A' for Active; 'I' for Inactive)
REMARK    1  A    between atoms: C_1  and  C_2
REMARK    2  A    between atoms: C_7  and  O_8
REMARK    3  A    between atoms: C_13  and  O_14
REMARK    4  A    between atoms: C_15  and  O_16
REMARK    5  A    between atoms: C_17  and  O_18
REMARK    6  A    between atoms: C_19  and  C_20
REMARK    7  A    between atoms: C_25  and  N_26
REMARK    8  A    between atoms: N_26  and  C_27
REMARK    9  A    between atoms: N_26  and  C_28
REMARK   10  A    between atoms: C_30  and  O_31
REMARK                            x       y       z     vdW  Elec       q    Type
REMARK                         _______ _______ _______ _____ _____    ______ ____
ROOT
ATOM      1  C   UNL     1       0.379  14.767  20.318  0.00  0.00    +0.000 C 
ATOM      2  C   UNL     1      -0.538  13.666  20.891  0.00  0.00    +0.000 C 
ATOM      3  C   UNL     1      -0.166  12.258  20.414  0.00  0.00    +0.000 A 
ATOM      4  C   UNL     1       0.223  12.064  19.079  0.00  0.00    +0.000 A 
ATOM      5  C   UNL     1       0.600  10.806  18.622  0.00  0.00    +0.000 A 
ATOM      6  C   UNL     1       0.585   9.717  19.484  0.00  0.00    +0.000 A 
ATOM      7  C   UNL     1       0.148   9.872  20.802  0.00  0.00    +0.000 A 
ATOM      8  C   UNL     1      -0.257  11.127  21.271  0.00  0.00    +0.000 A 
ATOM      9  C   UNL     1      -0.871  11.265  22.638  0.00  0.00    +0.000 C 
ATOM     10  O   UNL     1      -1.003  10.386  23.476  0.00  0.00    +0.000 OA
ATOM     11  C   UNL     1      -1.418  12.612  22.928  0.00  0.00    +0.000 C 
ATOM     12  C   UNL     1      -2.623  12.784  23.495  0.00  0.00    +0.000 C 
ATOM     13  C   UNL     1      -3.236  14.178  23.672  0.00  0.00    +0.000 C 
ATOM     14  C   UNL     1      -3.956  14.633  22.416  0.00  0.00    +0.000 C 
ATOM     15  C   UNL     1      -3.919  15.907  21.978  0.00  0.00    +0.000 C 
ATOM     16  C   UNL     1      -3.370  16.995  22.860  0.00  0.00    +0.000 C 
ATOM     17  O   UNL     1      -3.535  18.172  22.518  0.00  0.00    +0.000 OA
ATOM     18  C   UNL     1      -2.501  16.634  24.091  0.00  0.00    +0.000 C 
ATOM     19  C   UNL     1      -2.085  15.138  24.031  0.00  0.00    +0.000 C 
ATOM     20  C   UNL     1      -0.946  15.084  22.981  0.00  0.00    +0.000 C 
ATOM     21  C   UNL     1      -0.541  13.711  22.444  0.00  0.00    +0.000 C 
ENDROOT
BRANCH  15  22
ATOM     22  C   UNL     1      -4.277  16.195  20.552  0.00  0.00    +0.000 C 
ATOM     23  N   UNL     1      -3.305  16.743  19.775  0.00  0.00    +0.000 N 
ATOM     24  O   UNL     1      -5.331  15.832  20.034  0.00  0.00    +0.000 OA
ATOM     25  H   UNL     1      -3.460  16.742  18.776  0.00  0.00    +0.000 HD
ATOM     26  H   UNL     1      -2.344  16.774  20.111  0.00  0.00    +0.000 HD
ENDBRANCH  15  22
BRANCH  18  27
ATOM     27  N   UNL     1      -3.045  17.197  25.367  0.00  0.00    +0.000 NA
ATOM     28  C   UNL     1      -4.496  17.450  25.214  0.00  0.00    +0.000 C 
ATOM     29  C   UNL     1      -2.417  18.490  25.687  0.00  0.00    +0.000 C 
ENDBRANCH  18  27
BRANCH   7  30
ATOM     30  O   UNL     1       0.119   8.772  21.611  0.00  0.00    +0.000 OA
ATOM     31  H   UNL     1       0.910   8.752  22.171  0.00  0.00    +0.000 HD
ENDBRANCH   7  30
BRANCH  12  32
ATOM     32  O   UNL     1      -3.428  11.718  23.891  0.00  0.00    +0.000 OA
ATOM     33  H   UNL     1      -4.347  12.065  24.004  0.00  0.00    +0.000 HD
ENDBRANCH  12  32
BRANCH  13  34
ATOM     34  O   UNL     1      -4.198  14.119  24.717  0.00  0.00    +0.000 OA
ATOM     35  H   UNL     1      -5.051  13.901  24.294  0.00  0.00    +0.000 HD
ENDBRANCH  13  34
BRANCH  14  36
ATOM     36  O   UNL     1      -4.613  13.646  21.679  0.00  0.00    +0.000 OA
ATOM     37  H   UNL     1      -4.388  12.759  22.017  0.00  0.00    +0.000 HD
ENDBRANCH  14  36
BRANCH  20  38
ATOM     38  O   UNL     1       0.219  15.718  23.529  0.00  0.00    +0.000 OA
ATOM     39  H   UNL     1      -0.063  16.374  24.193  0.00  0.00    +0.000 HD
ENDBRANCH  20  38
TORSDOF 7
ENDMDL
