MODEL 1
REMARK VINA RESULT:      -7.6      0.000      0.000
REMARK  Name = 
REMARK  1 active torsions:
REMARK  status: ('A' for Active; 'I' for Inactive)
REMARK    1  A    between atoms: C_1  and  N_2
REMARK                            x       y       z     vdW  Elec       q    Type
REMARK                         _______ _______ _______ _____ _____    ______ ____
ROOT
ATOM      1  C   UNL     1      -0.550  11.068  19.700  0.00  0.00    +0.000 C 
ATOM      2  N   UNL     1       0.655  10.254  19.589  0.00  0.00    +0.000 NA
ATOM      3  C   UNL     1       0.838   9.780  18.204  0.00  0.00    +0.000 C 
ATOM      4  C   UNL     1       2.111   8.925  18.046  0.00  0.00    +0.000 C 
ATOM      5  N   UNL     1       2.114   7.806  18.989  0.00  0.00    +0.000 N 
ATOM      6  C   UNL     1       2.595   6.541  18.686  0.00  0.00    +0.000 A 
ATOM      7  N   UNL     1       2.062   5.522  19.308  0.00  0.00    +0.000 NA
ATOM      8  C   UNL     1       2.448   4.210  18.990  0.00  0.00    +0.000 A 
ATOM      9  N   UNL     1       1.782   3.249  19.666  0.00  0.00    +0.000 NA
ATOM     10  C   UNL     1       2.093   1.965  19.383  0.00  0.00    +0.000 A 
ATOM     11  C   UNL     1       3.051   1.581  18.456  0.00  0.00    +0.000 A 
ATOM     12  C   UNL     1       3.735   2.574  17.765  0.00  0.00    +0.000 A 
ATOM     13  C   UNL     1       3.415   3.902  18.039  0.00  0.00    +0.000 A 
ATOM     14  N   UNL     1       4.018   4.993  17.406  0.00  0.00    +0.000 N 
ATOM     15  C   UNL     1       5.010   5.009  16.456  0.00  0.00    +0.000 A 
ATOM     16  C   UNL     1       5.321   6.321  16.182  0.00  0.00    +0.000 A 
ATOM     17  C   UNL     1       4.483   7.124  16.989  0.00  0.00    +0.000 A 
ATOM     18  C   UNL     1       3.650   6.284  17.709  0.00  0.00    +0.000 A 
ATOM     19  C   UNL     1       1.842   8.188  20.383  0.00  0.00    +0.000 C 
ATOM     20  C   UNL     1       0.582   9.074  20.483  0.00  0.00    +0.000 C 
ENDROOT
TORSDOF 0
ENDMDL
MODEL 2
REMARK VINA RESULT:      -7.2      1.409      3.438
REMARK  Name = 
REMARK  1 active torsions:
REMARK  status: ('A' for Active; 'I' for Inactive)
REMARK    1  A    between atoms: C_1  and  N_2
REMARK                            x       y       z     vdW  Elec       q    Type
REMARK                         _______ _______ _______ _____ _____    ______ ____
ROOT
ATOM      1  C   UNL     1       0.668  12.188  20.900  0.00  0.00    +0.000 C 
ATOM      2  N   UNL     1       0.582  10.806  20.441  0.00  0.00    +0.000 NA
ATOM      3  C   UNL     1       1.350   9.913  21.331  0.00  0.00    +0.000 C 
ATOM      4  C   UNL     1       1.271   8.440  20.882  0.00  0.00    +0.000 C 
ATOM      5  N   UNL     1       1.699   8.290  19.491  0.00  0.00    +0.000 N 
ATOM      6  C   UNL     1       2.433   7.212  19.021  0.00  0.00    +0.000 A 
ATOM      7  N   UNL     1       3.230   7.415  18.003  0.00  0.00    +0.000 NA
ATOM      8  C   UNL     1       4.058   6.386  17.529  0.00  0.00    +0.000 A 
ATOM      9  N   UNL     1       4.871   6.744  16.511  0.00  0.00    +0.000 NA
ATOM     10  C   UNL     1       5.711   5.801  16.028  0.00  0.00    +0.000 A 
ATOM     11  C   UNL     1       5.782   4.501  16.509  0.00  0.00    +0.000 A 
ATOM     12  C   UNL     1       4.942   4.138  17.555  0.00  0.00    +0.000 A 
ATOM     13  C   UNL     1       4.079   5.104  18.068  0.00  0.00    +0.000 A 
ATOM     14  N   UNL     1       3.195   4.874  19.126  0.00  0.00    +0.000 N 
ATOM     15  C   UNL     1       2.971   3.719  19.837  0.00  0.00    +0.000 A 
ATOM     16  C   UNL     1       1.961   3.961  20.740  0.00  0.00    +0.000 A 
ATOM     17  C   UNL     1       1.570   5.309  20.575  0.00  0.00    +0.000 A 
ATOM     18  C   UNL     1       2.376   5.872  19.601  0.00  0.00    +0.000 A 
ATOM     19  C   UNL     1       1.046   9.216  18.553  0.00  0.00    +0.000 C 
ATOM     20  C   UNL     1       1.117  10.671  19.065  0.00  0.00    +0.000 C 
ENDROOT
TORSDOF 0
ENDMDL
MODEL 3
REMARK VINA RESULT:      -7.2      1.231      1.310
REMARK  Name = 
REMARK  1 active torsions:
REMARK  status: ('A' for Active; 'I' for Inactive)
REMARK    1  A    between atoms: C_1  and  N_2
REMARK                            x       y       z     vdW  Elec       q    Type
REMARK                         _______ _______ _______ _____ _____    ______ ____
ROOT
ATOM      1  C   UNL     1      -1.410  11.401  19.408  0.00  0.00    +0.000 C 
ATOM      2  N   UNL     1      -0.111  10.737  19.398  0.00  0.00    +0.000 NA
ATOM      3  C   UNL     1       0.040   9.907  18.186  0.00  0.00    +0.000 C 
ATOM      4  C   UNL     1       1.408   9.199  18.136  0.00  0.00    +0.000 C 
ATOM      5  N   UNL     1       1.637   8.408  19.345  0.00  0.00    +0.000 N 
ATOM      6  C   UNL     1       2.271   7.175  19.354  0.00  0.00    +0.000 A 
ATOM      7  N   UNL     1       1.934   6.324  20.288  0.00  0.00    +0.000 NA
ATOM      8  C   UNL     1       2.481   5.031  20.306  0.00  0.00    +0.000 A 
ATOM      9  N   UNL     1       2.007   4.235  21.289  0.00  0.00    +0.000 NA
ATOM     10  C   UNL     1       2.478   2.969  21.341  0.00  0.00    +0.000 A 
ATOM     11  C   UNL     1       3.414   2.448  20.459  0.00  0.00    +0.000 A 
ATOM     12  C   UNL     1       3.899   3.273  19.450  0.00  0.00    +0.000 A 
ATOM     13  C   UNL     1       3.413   4.576  19.379  0.00  0.00    +0.000 A 
ATOM     14  N   UNL     1       3.807   5.501  18.408  0.00  0.00    +0.000 N 
ATOM     15  C   UNL     1       4.719   5.357  17.389  0.00  0.00    +0.000 A 
ATOM     16  C   UNL     1       4.818   6.562  16.731  0.00  0.00    +0.000 A 
ATOM     17  C   UNL     1       3.933   7.459  17.369  0.00  0.00    +0.000 A 
ATOM     18  C   UNL     1       3.281   6.772  18.379  0.00  0.00    +0.000 A 
ATOM     19  C   UNL     1       1.411   9.142  20.600  0.00  0.00    +0.000 C 
ATOM     20  C   UNL     1       0.048   9.865  20.586  0.00  0.00    +0.000 C 
ENDROOT
TORSDOF 0
ENDMDL
MODEL 4
REMARK VINA RESULT:      -6.9      1.333      3.530
REMARK  Name = 
REMARK  1 active torsions:
REMARK  status: ('A' for Active; 'I' for Inactive)
REMARK    1  A    between atoms: C_1  and  N_2
REMARK                            x       y       z     vdW  Elec       q    Type
REMARK                         _______ _______ _______ _____ _____    ______ ____
ROOT
ATOM      1  C   UNL     1       0.964  10.690  20.973  0.00  0.00    +0.000 C 
ATOM      2  N   UNL     1       0.945   9.539  20.077  0.00  0.00    +0.000 NA
ATOM      3  C   UNL     1       1.451   8.335  20.766  0.00  0.00    +0.000 C 
ATOM      4  C   UNL     1       1.434   7.094  19.852  0.00  0.00    +0.000 C 
ATOM      5  N   UNL     1       2.174   7.341  18.614  0.00  0.00    +0.000 N 
ATOM      6  C   UNL     1       2.964   6.392  17.983  0.00  0.00    +0.000 A 
ATOM      7  N   UNL     1       3.985   6.817  17.284  0.00  0.00    +0.000 NA
ATOM      8  C   UNL     1       4.868   5.905  16.686  0.00  0.00    +0.000 A 
ATOM      9  N   UNL     1       5.910   6.474  16.041  0.00  0.00    +0.000 NA
ATOM     10  C   UNL     1       6.810   5.645  15.467  0.00  0.00    +0.000 A 
ATOM     11  C   UNL     1       6.723   4.260  15.495  0.00  0.00    +0.000 A 
ATOM     12  C   UNL     1       5.648   3.680  16.159  0.00  0.00    +0.000 A 
ATOM     13  C   UNL     1       4.720   4.524  16.765  0.00  0.00    +0.000 A 
ATOM     14  N   UNL     1       3.603   4.071  17.474  0.00  0.00    +0.000 N 
ATOM     15  C   UNL     1       3.180   2.783  17.699  0.00  0.00    +0.000 A 
ATOM     16  C   UNL     1       1.993   2.838  18.394  0.00  0.00    +0.000 A 
ATOM     17  C   UNL     1       1.696   4.203  18.602  0.00  0.00    +0.000 A 
ATOM     18  C   UNL     1       2.727   4.953  18.064  0.00  0.00    +0.000 A 
ATOM     19  C   UNL     1       1.792   8.579  17.917  0.00  0.00    +0.000 C 
ATOM     20  C   UNL     1       1.786   9.784  18.882  0.00  0.00    +0.000 C 
ENDROOT
TORSDOF 0
ENDMDL
MODEL 5
REMARK VINA RESULT:      -6.6      1.738      6.418
REMARK  Name = 
REMARK  1 active torsions:
REMARK  status: ('A' for Active; 'I' for Inactive)
REMARK    1  A    between atoms: C_1  and  N_2
REMARK                            x       y       z     vdW  Elec       q    Type
REMARK                         _______ _______ _______ _____ _____    ______ ____
ROOT
ATOM      1  C   UNL     1       6.388   3.746  13.702  0.00  0.00    +0.000 C 
ATOM      2  N   UNL     1       6.125   4.203  15.063  0.00  0.00    +0.000 NA
ATOM      3  C   UNL     1       4.826   3.691  15.542  0.00  0.00    +0.000 C 
ATOM      4  C   UNL     1       4.520   4.145  16.983  0.00  0.00    +0.000 C 
ATOM      5  N   UNL     1       4.587   5.601  17.102  0.00  0.00    +0.000 N 
ATOM      6  C   UNL     1       3.729   6.352  17.892  0.00  0.00    +0.000 A 
ATOM      7  N   UNL     1       3.474   7.579  17.517  0.00  0.00    +0.000 NA
ATOM      8  C   UNL     1       2.554   8.365  18.228  0.00  0.00    +0.000 A 
ATOM      9  N   UNL     1       2.340   9.592  17.704  0.00  0.00    +0.000 NA
ATOM     10  C   UNL     1       1.444  10.386  18.332  0.00  0.00    +0.000 A 
ATOM     11  C   UNL     1       0.745  10.021  19.473  0.00  0.00    +0.000 A 
ATOM     12  C   UNL     1       0.970   8.758  20.009  0.00  0.00    +0.000 A 
ATOM     13  C   UNL     1       1.883   7.926  19.365  0.00  0.00    +0.000 A 
ATOM     14  N   UNL     1       2.190   6.631  19.792  0.00  0.00    +0.000 N 
ATOM     15  C   UNL     1       1.716   5.939  20.881  0.00  0.00    +0.000 A 
ATOM     16  C   UNL     1       2.357   4.721  20.926  0.00  0.00    +0.000 A 
ATOM     17  C   UNL     1       3.240   4.675  19.824  0.00  0.00    +0.000 A 
ATOM     18  C   UNL     1       3.091   5.849  19.106  0.00  0.00    +0.000 A 
ATOM     19  C   UNL     1       5.815   6.198  16.556  0.00  0.00    +0.000 C 
ATOM     20  C   UNL     1       6.099   5.683  15.129  0.00  0.00    +0.000 C 
ENDROOT
TORSDOF 0
ENDMDL
MODEL 6
REMARK VINA RESULT:      -6.5      1.975      6.413
REMARK  Name = 
REMARK  1 active torsions:
REMARK  status: ('A' for Active; 'I' for Inactive)
REMARK    1  A    between atoms: C_1  and  N_2
REMARK                            x       y       z     vdW  Elec       q    Type
REMARK                         _______ _______ _______ _____ _____    ______ ____
ROOT
ATOM      1  C   UNL     1       4.395   2.466  20.275  0.00  0.00    +0.000 C 
ATOM      2  N   UNL     1       3.527   3.515  19.751  0.00  0.00    +0.000 NA
ATOM      3  C   UNL     1       4.276   4.777  19.592  0.00  0.00    +0.000 C 
ATOM      4  C   UNL     1       3.392   5.908  19.027  0.00  0.00    +0.000 C 
ATOM      5  N   UNL     1       2.199   6.105  19.850  0.00  0.00    +0.000 N 
ATOM      6  C   UNL     1       1.644   7.346  20.121  0.00  0.00    +0.000 A 
ATOM      7  N   UNL     1       1.002   7.493  21.251  0.00  0.00    +0.000 NA
ATOM      8  C   UNL     1       0.484   8.745  21.620  0.00  0.00    +0.000 A 
ATOM      9  N   UNL     1      -0.107   8.771  22.835  0.00  0.00    +0.000 NA
ATOM     10  C   UNL     1      -0.602   9.956  23.257  0.00  0.00    +0.000 A 
ATOM     11  C   UNL     1      -0.545  11.131  22.520  0.00  0.00    +0.000 A 
ATOM     12  C   UNL     1       0.062  11.097  21.270  0.00  0.00    +0.000 A 
ATOM     13  C   UNL     1       0.586   9.884  20.829  0.00  0.00    +0.000 A 
ATOM     14  N   UNL     1       1.233   9.717  19.601  0.00  0.00    +0.000 N 
ATOM     15  C   UNL     1       1.461  10.637  18.606  0.00  0.00    +0.000 A 
ATOM     16  C   UNL     1       2.078   9.991  17.558  0.00  0.00    +0.000 A 
ATOM     17  C   UNL     1       2.233   8.638  17.937  0.00  0.00    +0.000 A 
ATOM     18  C   UNL     1       1.744   8.496  19.225  0.00  0.00    +0.000 A 
ATOM     19  C   UNL     1       1.450   4.872  20.136  0.00  0.00    +0.000 C 
ATOM     20  C   UNL     1       2.383   3.760  20.660  0.00  0.00    +0.000 C 
ENDROOT
TORSDOF 0
ENDMDL
MODEL 7
REMARK VINA RESULT:      -6.5      3.664      5.532
REMARK  Name = 
REMARK  1 active torsions:
REMARK  status: ('A' for Active; 'I' for Inactive)
REMARK    1  A    between atoms: C_1  and  N_2
REMARK                            x       y       z     vdW  Elec       q    Type
REMARK                         _______ _______ _______ _____ _____    ______ ____
ROOT
ATOM      1  C   UNL     1       1.016   2.956  21.043  0.00  0.00    +0.000 C 
ATOM      2  N   UNL     1       2.393   3.169  20.610  0.00  0.00    +0.000 NA
ATOM      3  C   UNL     1       2.602   4.576  20.215  0.00  0.00    +0.000 C 
ATOM      4  C   UNL     1       4.052   4.841  19.762  0.00  0.00    +0.000 C 
ATOM      5  N   UNL     1       4.444   3.930  18.687  0.00  0.00    +0.000 N 
ATOM      6  C   UNL     1       5.243   4.298  17.615  0.00  0.00    +0.000 A 
ATOM      7  N   UNL     1       5.070   3.667  16.482  0.00  0.00    +0.000 NA
ATOM      8  C   UNL     1       5.791   4.044  15.339  0.00  0.00    +0.000 A 
ATOM      9  N   UNL     1       5.478   3.349  14.223  0.00  0.00    +0.000 NA
ATOM     10  C   UNL     1       6.122   3.685  13.083  0.00  0.00    +0.000 A 
ATOM     11  C   UNL     1       7.080   4.686  12.995  0.00  0.00    +0.000 A 
ATOM     12  C   UNL     1       7.400   5.396  14.147  0.00  0.00    +0.000 A 
ATOM     13  C   UNL     1       6.734   5.066  15.325  0.00  0.00    +0.000 A 
ATOM     14  N   UNL     1       6.952   5.711  16.547  0.00  0.00    +0.000 N 
ATOM     15  C   UNL     1       7.827   6.726  16.851  0.00  0.00    +0.000 A 
ATOM     16  C   UNL     1       7.728   6.986  18.199  0.00  0.00    +0.000 A 
ATOM     17  C   UNL     1       6.757   6.104  18.723  0.00  0.00    +0.000 A 
ATOM     18  C   UNL     1       6.253   5.350  17.677  0.00  0.00    +0.000 A 
ATOM     19  C   UNL     1       4.176   2.512  18.968  0.00  0.00    +0.000 C 
ATOM     20  C   UNL     1       2.726   2.303  19.454  0.00  0.00    +0.000 C 
ENDROOT
TORSDOF 0
ENDMDL
MODEL 8
REMARK VINA RESULT:      -6.3      1.713      6.152
REMARK  Name = 
REMARK  1 active torsions:
REMARK  status: ('A' for Active; 'I' for Inactive)
REMARK    1  A    between atoms: C_1  and  N_2
REMARK                            x       y       z     vdW  Elec       q    Type
REMARK                         _______ _______ _______ _____ _____    ______ ____
ROOT
ATOM      1  C   UNL     1       6.655   4.265  13.821  0.00  0.00    +0.000 C 
ATOM      2  N   UNL     1       6.377   4.331  15.252  0.00  0.00    +0.000 NA
ATOM      3  C   UNL     1       5.139   3.594  15.575  0.00  0.00    +0.000 C 
ATOM      4  C   UNL     1       4.820   3.632  17.083  0.00  0.00    +0.000 C 
ATOM      5  N   UNL     1       4.755   5.009  17.574  0.00  0.00    +0.000 N 
ATOM      6  C   UNL     1       3.847   5.447  18.525  0.00  0.00    +0.000 A 
ATOM      7  N   UNL     1       3.473   6.700  18.478  0.00  0.00    +0.000 NA
ATOM      8  C   UNL     1       2.498   7.188  19.362  0.00  0.00    +0.000 A 
ATOM      9  N   UNL     1       2.164   8.482  19.171  0.00  0.00    +0.000 NA
ATOM     10  C   UNL     1       1.211   9.001  19.976  0.00  0.00    +0.000 A 
ATOM     11  C   UNL     1       0.569   8.292  20.981  0.00  0.00    +0.000 A 
ATOM     12  C   UNL     1       0.919   6.960  21.175  0.00  0.00    +0.000 A 
ATOM     13  C   UNL     1       1.892   6.411  20.344  0.00  0.00    +0.000 A 
ATOM     14  N   UNL     1       2.324   5.084  20.424  0.00  0.00    +0.000 N 
ATOM     15  C   UNL     1       1.937   4.094  21.295  0.00  0.00    +0.000 A 
ATOM     16  C   UNL     1       2.687   2.971  21.029  0.00  0.00    +0.000 A 
ATOM     17  C   UNL     1       3.550   3.292  19.957  0.00  0.00    +0.000 A 
ATOM     18  C   UNL     1       3.280   4.593  19.565  0.00  0.00    +0.000 A 
ATOM     19  C   UNL     1       5.913   5.837  17.207  0.00  0.00    +0.000 C 
ATOM     20  C   UNL     1       6.216   5.736  15.696  0.00  0.00    +0.000 C 
ENDROOT
TORSDOF 0
ENDMDL
MODEL 9
REMARK VINA RESULT:      -6.2      2.007      6.072
REMARK  Name = 
REMARK  1 active torsions:
REMARK  status: ('A' for Active; 'I' for Inactive)
REMARK    1  A    between atoms: C_1  and  N_2
REMARK                            x       y       z     vdW  Elec       q    Type
REMARK                         _______ _______ _______ _____ _____    ______ ____
ROOT
ATOM      1  C   UNL     1       7.824   5.406  13.191  0.00  0.00    +0.000 C 
ATOM      2  N   UNL     1       7.382   4.868  14.473  0.00  0.00    +0.000 NA
ATOM      3  C   UNL     1       6.085   4.179  14.329  0.00  0.00    +0.000 C 
ATOM      4  C   UNL     1       5.592   3.586  15.664  0.00  0.00    +0.000 C 
ATOM      5  N   UNL     1       5.529   4.612  16.705  0.00  0.00    +0.000 N 
ATOM      6  C   UNL     1       4.534   4.674  17.669  0.00  0.00    +0.000 A 
ATOM      7  N   UNL     1       4.223   5.851  18.148  0.00  0.00    +0.000 NA
ATOM      8  C   UNL     1       3.172   5.991  19.068  0.00  0.00    +0.000 A 
ATOM      9  N   UNL     1       2.918   7.265  19.440  0.00  0.00    +0.000 NA
ATOM     10  C   UNL     1       1.900   7.466  20.306  0.00  0.00    +0.000 A 
ATOM     11  C   UNL     1       1.114   6.451  20.833  0.00  0.00    +0.000 A 
ATOM     12  C   UNL     1       1.381   5.143  20.449  0.00  0.00    +0.000 A 
ATOM     13  C   UNL     1       2.421   4.924  19.548  0.00  0.00    +0.000 A 
ATOM     14  N   UNL     1       2.784   3.660  19.072  0.00  0.00    +0.000 N 
ATOM     15  C   UNL     1       2.254   2.430  19.378  0.00  0.00    +0.000 A 
ATOM     16  C   UNL     1       2.982   1.472  18.709  0.00  0.00    +0.000 A 
ATOM     17  C   UNL     1       3.978   2.147  17.969  0.00  0.00    +0.000 A 
ATOM     18  C   UNL     1       3.812   3.507  18.170  0.00  0.00    +0.000 A 
ATOM     19  C   UNL     1       6.756   5.410  16.844  0.00  0.00    +0.000 C 
ATOM     20  C   UNL     1       7.231   5.948  15.477  0.00  0.00    +0.000 C 
ENDROOT
TORSDOF 0
ENDMDL
