MODEL 1
REMARK VINA RESULT:      -7.5      0.000      0.000
REMARK  Name = 
REMARK  7 active torsions:
REMARK  status: ('A' for Active; 'I' for Inactive)
REMARK    1  A    between atoms: C_2  and  C_3
REMARK    2  A    between atoms: C_3  and  C_4
REMARK    3  A    between atoms: C_4  and  N_5
REMARK    4  A    between atoms: C_6  and  C_8
REMARK    5  A    between atoms: N_13  and  C_14
REMARK    6  A    between atoms: C_17  and  O_18
REMARK    7  A    between atoms: O_18  and  C_19
REMARK                            x       y       z     vdW  Elec       q    Type
REMARK                         _______ _______ _______ _____ _____    ______ ____
ROOT
ATOM      1  O   UNL     1       7.485   5.155  20.230  0.00  0.00    +0.000 OA
ATOM      2  C   UNL     1       7.176   5.826  19.247  0.00  0.00    +0.000 C 
ATOM      3  N   UNL     1       5.943   5.815  18.612  0.00  0.00    +0.000 N 
ATOM      4  H   UNL     1       5.893   6.269  17.707  0.00  0.00    +0.000 HD
ENDROOT
BRANCH   3   5
ATOM      5  C   UNL     1       4.816   5.055  19.000  0.00  0.00    +0.000 A 
ATOM      6  C   UNL     1       3.745   5.585  19.715  0.00  0.00    +0.000 A 
ATOM      7  C   UNL     1       2.678   4.770  20.105  0.00  0.00    +0.000 A 
ATOM      8  C   UNL     1       2.649   3.403  19.801  0.00  0.00    +0.000 A 
ATOM      9  C   UNL     1       3.700   2.877  19.043  0.00  0.00    +0.000 A 
ATOM     10 CL   UNL     1       3.763   1.245  18.480  0.00  0.00    +0.000 Cl
ATOM     11  C   UNL     1       4.767   3.705  18.638  0.00  0.00    +0.000 A 
BRANCH   8  12
ATOM     12  O   UNL     1       1.503   2.794  20.228  0.00  0.00    +0.000 OA
BRANCH  12  13
ATOM     13  C   UNL     1       0.450   2.578  19.304  0.00  0.00    +0.000 C 
ATOM     14  F   UNL     1       0.513   3.492  18.306  0.00  0.00    +0.000 F 
ATOM     15  F   UNL     1       0.677   1.366  18.729  0.00  0.00    +0.000 F 
ENDBRANCH  12  13
ENDBRANCH   8  12
ENDBRANCH   3   5
BRANCH   2  16
ATOM     16  C   UNL     1       8.154   6.809  18.635  0.00  0.00    +0.000 C 
BRANCH  16  17
ATOM     17  C   UNL     1       7.582   7.447  17.373  0.00  0.00    +0.000 C 
BRANCH  17  18
ATOM     18  N   UNL     1       7.469   6.480  16.298  0.00  0.00    +0.000 N 
ATOM     19  C   UNL     1       6.291   6.239  15.624  0.00  0.00    +0.000 C 
ATOM     20  O   UNL     1       5.246   6.832  15.904  0.00  0.00    +0.000 OA
ATOM     21  H   UNL     1       8.294   5.996  15.965  0.00  0.00    +0.000 HD
BRANCH  19  22
ATOM     22  C   UNL     1       6.394   5.254  14.573  0.00  0.00    +0.000 A 
ATOM     23  C   UNL     1       5.609   4.154  14.275  0.00  0.00    +0.000 A 
ATOM     24  C   UNL     1       6.174   3.553  13.126  0.00  0.00    +0.000 A 
ATOM     25  C   UNL     1       7.266   4.310  12.794  0.00  0.00    +0.000 A 
ATOM     26  O   UNL     1       7.410   5.350  13.654  0.00  0.00    +0.000 OA
ENDBRANCH  19  22
ENDBRANCH  17  18
ENDBRANCH  16  17
ENDBRANCH   2  16
TORSDOF 7
ENDMDL
MODEL 2
REMARK VINA RESULT:      -7.4      4.387      6.096
REMARK  Name = 
REMARK  7 active torsions:
REMARK  status: ('A' for Active; 'I' for Inactive)
REMARK    1  A    between atoms: C_2  and  C_3
REMARK    2  A    between atoms: C_3  and  C_4
REMARK    3  A    between atoms: C_4  and  N_5
REMARK    4  A    between atoms: C_6  and  C_8
REMARK    5  A    between atoms: N_13  and  C_14
REMARK    6  A    between atoms: C_17  and  O_18
REMARK    7  A    between atoms: O_18  and  C_19
REMARK                            x       y       z     vdW  Elec       q    Type
REMARK                         _______ _______ _______ _____ _____    ______ ____
ROOT
ATOM      1  O   UNL     1       1.289   4.206  19.166  0.00  0.00    +0.000 OA
ATOM      2  C   UNL     1       2.156   4.416  20.013  0.00  0.00    +0.000 C 
ATOM      3  N   UNL     1       2.649   5.660  20.378  0.00  0.00    +0.000 N 
ATOM      4  H   UNL     1       3.491   5.668  20.944  0.00  0.00    +0.000 HD
ENDROOT
BRANCH   3   5
ATOM      5  C   UNL     1       2.224   6.906  19.863  0.00  0.00    +0.000 A 
ATOM      6  C   UNL     1       2.523   7.343  18.575  0.00  0.00    +0.000 A 
ATOM      7  C   UNL     1       2.109   8.605  18.138  0.00  0.00    +0.000 A 
ATOM      8  C   UNL     1       1.391   9.471  18.973  0.00  0.00    +0.000 A 
ATOM      9  C   UNL     1       1.048   9.017  20.251  0.00  0.00    +0.000 A 
ATOM     10 CL   UNL     1       0.067   9.905  21.361  0.00  0.00    +0.000 Cl
ATOM     11  C   UNL     1       1.455   7.738  20.682  0.00  0.00    +0.000 A 
BRANCH   8  12
ATOM     12  O   UNL     1       1.041  10.634  18.347  0.00  0.00    +0.000 OA
BRANCH  12  13
ATOM     13  C   UNL     1       1.770  11.817  18.628  0.00  0.00    +0.000 C 
ATOM     14  F   UNL     1       2.800  11.945  17.758  0.00  0.00    +0.000 F 
ATOM     15  F   UNL     1       0.931  12.860  18.386  0.00  0.00    +0.000 F 
ENDBRANCH  12  13
ENDBRANCH   8  12
ENDBRANCH   3   5
BRANCH   2  16
ATOM     16  C   UNL     1       2.763   3.276  20.807  0.00  0.00    +0.000 C 
BRANCH  16  17
ATOM     17  C   UNL     1       4.006   2.721  20.119  0.00  0.00    +0.000 C 
BRANCH  17  18
ATOM     18  N   UNL     1       4.221   3.353  18.831  0.00  0.00    +0.000 N 
ATOM     19  C   UNL     1       5.328   4.124  18.548  0.00  0.00    +0.000 C 
ATOM     20  O   UNL     1       6.209   4.334  19.386  0.00  0.00    +0.000 OA
ATOM     21  H   UNL     1       3.578   3.179  18.069  0.00  0.00    +0.000 HD
BRANCH  19  22
ATOM     22  C   UNL     1       5.366   4.645  17.201  0.00  0.00    +0.000 A 
ATOM     23  C   UNL     1       5.501   4.006  15.981  0.00  0.00    +0.000 A 
ATOM     24  C   UNL     1       5.462   5.014  14.990  0.00  0.00    +0.000 A 
ATOM     25  C   UNL     1       5.311   6.201  15.655  0.00  0.00    +0.000 A 
ATOM     26  O   UNL     1       5.243   5.996  16.995  0.00  0.00    +0.000 OA
ENDBRANCH  19  22
ENDBRANCH  17  18
ENDBRANCH  16  17
ENDBRANCH   2  16
TORSDOF 7
ENDMDL
MODEL 3
REMARK VINA RESULT:      -7.4      4.057      5.233
REMARK  Name = 
REMARK  7 active torsions:
REMARK  status: ('A' for Active; 'I' for Inactive)
REMARK    1  A    between atoms: C_2  and  C_3
REMARK    2  A    between atoms: C_3  and  C_4
REMARK    3  A    between atoms: C_4  and  N_5
REMARK    4  A    between atoms: C_6  and  C_8
REMARK    5  A    between atoms: N_13  and  C_14
REMARK    6  A    between atoms: C_17  and  O_18
REMARK    7  A    between atoms: O_18  and  C_19
REMARK                            x       y       z     vdW  Elec       q    Type
REMARK                         _______ _______ _______ _____ _____    ______ ____
ROOT
ATOM      1  O   UNL     1       1.333   4.523  17.468  0.00  0.00    +0.000 OA
ATOM      2  C   UNL     1       2.508   4.581  17.826  0.00  0.00    +0.000 C 
ATOM      3  N   UNL     1       3.143   5.700  18.345  0.00  0.00    +0.000 N 
ATOM      4  H   UNL     1       4.154   5.658  18.415  0.00  0.00    +0.000 HD
ENDROOT
BRANCH   3   5
ATOM      5  C   UNL     1       2.547   6.960  18.581  0.00  0.00    +0.000 A 
ATOM      6  C   UNL     1       2.433   7.946  17.604  0.00  0.00    +0.000 A 
ATOM      7  C   UNL     1       1.870   9.189  17.911  0.00  0.00    +0.000 A 
ATOM      8  C   UNL     1       1.411   9.488  19.200  0.00  0.00    +0.000 A 
ATOM      9  C   UNL     1       1.481   8.484  20.171  0.00  0.00    +0.000 A 
ATOM     10 CL   UNL     1       0.852   8.643  21.772  0.00  0.00    +0.000 Cl
ATOM     11  C   UNL     1       2.035   7.227  19.854  0.00  0.00    +0.000 A 
BRANCH   8  12
ATOM     12  O   UNL     1       0.855  10.733  19.284  0.00  0.00    +0.000 OA
BRANCH  12  13
ATOM     13  C   UNL     1      -0.553  10.870  19.180  0.00  0.00    +0.000 C 
ATOM     14  F   UNL     1      -1.078   9.791  18.549  0.00  0.00    +0.000 F 
ATOM     15  F   UNL     1      -1.042  10.848  20.449  0.00  0.00    +0.000 F 
ENDBRANCH  12  13
ENDBRANCH   8  12
ENDBRANCH   3   5
BRANCH   2  16
ATOM     16  C   UNL     1       3.402   3.358  17.771  0.00  0.00    +0.000 C 
BRANCH  16  17
ATOM     17  C   UNL     1       4.875   3.750  17.726  0.00  0.00    +0.000 C 
BRANCH  17  18
ATOM     18  N   UNL     1       5.403   3.664  16.378  0.00  0.00    +0.000 N 
ATOM     19  C   UNL     1       5.532   4.759  15.550  0.00  0.00    +0.000 C 
ATOM     20  O   UNL     1       5.194   5.890  15.906  0.00  0.00    +0.000 OA
ATOM     21  H   UNL     1       5.762   2.783  16.031  0.00  0.00    +0.000 HD
BRANCH  19  22
ATOM     22  C   UNL     1       6.099   4.465  14.254  0.00  0.00    +0.000 A 
ATOM     23  C   UNL     1       7.247   4.930  13.636  0.00  0.00    +0.000 A 
ATOM     24  C   UNL     1       7.312   4.295  12.375  0.00  0.00    +0.000 A 
ATOM     25  C   UNL     1       6.208   3.489  12.293  0.00  0.00    +0.000 A 
ATOM     26  O   UNL     1       5.466   3.572  13.426  0.00  0.00    +0.000 OA
ENDBRANCH  19  22
ENDBRANCH  17  18
ENDBRANCH  16  17
ENDBRANCH   2  16
TORSDOF 7
ENDMDL
MODEL 4
REMARK VINA RESULT:      -7.4      4.550      6.176
REMARK  Name = 
REMARK  7 active torsions:
REMARK  status: ('A' for Active; 'I' for Inactive)
REMARK    1  A    between atoms: C_2  and  C_3
REMARK    2  A    between atoms: C_3  and  C_4
REMARK    3  A    between atoms: C_4  and  N_5
REMARK    4  A    between atoms: C_6  and  C_8
REMARK    5  A    between atoms: N_13  and  C_14
REMARK    6  A    between atoms: C_17  and  O_18
REMARK    7  A    between atoms: O_18  and  C_19
REMARK                            x       y       z     vdW  Elec       q    Type
REMARK                         _______ _______ _______ _____ _____    ______ ____
ROOT
ATOM      1  O   UNL     1       0.859   4.552  20.378  0.00  0.00    +0.000 OA
ATOM      2  C   UNL     1       2.083   4.655  20.418  0.00  0.00    +0.000 C 
ATOM      3  N   UNL     1       2.813   5.790  20.099  0.00  0.00    +0.000 N 
ATOM      4  H   UNL     1       3.814   5.673  19.992  0.00  0.00    +0.000 HD
ENDROOT
BRANCH   3   5
ATOM      5  C   UNL     1       2.277   7.036  19.697  0.00  0.00    +0.000 A 
ATOM      6  C   UNL     1       2.383   7.531  18.400  0.00  0.00    +0.000 A 
ATOM      7  C   UNL     1       1.869   8.790  18.076  0.00  0.00    +0.000 A 
ATOM      8  C   UNL     1       1.241   9.596  19.035  0.00  0.00    +0.000 A 
ATOM      9  C   UNL     1       1.092   9.083  20.327  0.00  0.00    +0.000 A 
ATOM     10 CL   UNL     1       0.240   9.889  21.595  0.00  0.00    +0.000 Cl
ATOM     11  C   UNL     1       1.598   7.806  20.646  0.00  0.00    +0.000 A 
BRANCH   8  12
ATOM     12  O   UNL     1       0.768  10.765  18.511  0.00  0.00    +0.000 OA
BRANCH  12  13
ATOM     13  C   UNL     1       1.469  11.971  18.766  0.00  0.00    +0.000 C 
ATOM     14  F   UNL     1       2.587  12.028  18.003  0.00  0.00    +0.000 F 
ATOM     15  F   UNL     1       0.666  12.986  18.347  0.00  0.00    +0.000 F 
ENDBRANCH  12  13
ENDBRANCH   8  12
ENDBRANCH   3   5
BRANCH   2  16
ATOM     16  C   UNL     1       2.948   3.502  20.890  0.00  0.00    +0.000 C 
BRANCH  16  17
ATOM     17  C   UNL     1       3.245   2.531  19.752  0.00  0.00    +0.000 C 
BRANCH  17  18
ATOM     18  N   UNL     1       4.298   3.035  18.891  0.00  0.00    +0.000 N 
ATOM     19  C   UNL     1       4.076   3.448  17.595  0.00  0.00    +0.000 C 
ATOM     20  O   UNL     1       2.957   3.405  17.079  0.00  0.00    +0.000 OA
ATOM     21  H   UNL     1       5.234   3.162  19.258  0.00  0.00    +0.000 HD
BRANCH  19  22
ATOM     22  C   UNL     1       5.252   3.937  16.913  0.00  0.00    +0.000 A 
ATOM     23  C   UNL     1       5.499   4.161  15.570  0.00  0.00    +0.000 A 
ATOM     24  C   UNL     1       6.821   4.654  15.478  0.00  0.00    +0.000 A 
ATOM     25  C   UNL     1       7.305   4.698  16.759  0.00  0.00    +0.000 A 
ATOM     26  O   UNL     1       6.365   4.275  17.643  0.00  0.00    +0.000 OA
ENDBRANCH  19  22
ENDBRANCH  17  18
ENDBRANCH  16  17
ENDBRANCH   2  16
TORSDOF 7
ENDMDL
MODEL 5
REMARK VINA RESULT:      -7.3      4.545      5.427
REMARK  Name = 
REMARK  7 active torsions:
REMARK  status: ('A' for Active; 'I' for Inactive)
REMARK    1  A    between atoms: C_2  and  C_3
REMARK    2  A    between atoms: C_3  and  C_4
REMARK    3  A    between atoms: C_4  and  N_5
REMARK    4  A    between atoms: C_6  and  C_8
REMARK    5  A    between atoms: N_13  and  C_14
REMARK    6  A    between atoms: C_17  and  O_18
REMARK    7  A    between atoms: O_18  and  C_19
REMARK                            x       y       z     vdW  Elec       q    Type
REMARK                         _______ _______ _______ _____ _____    ______ ____
ROOT
ATOM      1  O   UNL     1       4.345   6.706  17.597  0.00  0.00    +0.000 OA
ATOM      2  C   UNL     1       3.974   6.047  18.566  0.00  0.00    +0.000 C 
ATOM      3  N   UNL     1       2.988   6.417  19.470  0.00  0.00    +0.000 N 
ATOM      4  H   UNL     1       2.923   5.870  20.321  0.00  0.00    +0.000 HD
ENDROOT
BRANCH   3   5
ATOM      5  C   UNL     1       2.219   7.603  19.421  0.00  0.00    +0.000 A 
ATOM      6  C   UNL     1       2.081   8.377  18.272  0.00  0.00    +0.000 A 
ATOM      7  C   UNL     1       1.340   9.563  18.299  0.00  0.00    +0.000 A 
ATOM      8  C   UNL     1       0.721  10.015  19.472  0.00  0.00    +0.000 A 
ATOM      9  C   UNL     1       0.818   9.216  20.616  0.00  0.00    +0.000 A 
ATOM     10 CL   UNL     1       0.019   9.561  22.107  0.00  0.00    +0.000 Cl
ATOM     11  C   UNL     1       1.554   8.013  20.580  0.00  0.00    +0.000 A 
BRANCH   8  12
ATOM     12  O   UNL     1       0.009  11.165  19.280  0.00  0.00    +0.000 OA
BRANCH  12  13
ATOM     13  C   UNL     1      -1.214  11.109  18.565  0.00  0.00    +0.000 C 
ATOM     14  F   UNL     1      -2.257  11.256  19.416  0.00  0.00    +0.000 F 
ATOM     15  F   UNL     1      -1.235  12.192  17.742  0.00  0.00    +0.000 F 
ENDBRANCH  12  13
ENDBRANCH   8  12
ENDBRANCH   3   5
BRANCH   2  16
ATOM     16  C   UNL     1       4.559   4.677  18.849  0.00  0.00    +0.000 C 
BRANCH  16  17
ATOM     17  C   UNL     1       6.021   4.601  18.422  0.00  0.00    +0.000 C 
BRANCH  17  18
ATOM     18  N   UNL     1       6.142   4.379  16.994  0.00  0.00    +0.000 N 
ATOM     19  C   UNL     1       6.880   5.197  16.165  0.00  0.00    +0.000 C 
ATOM     20  O   UNL     1       7.481   6.186  16.592  0.00  0.00    +0.000 OA
ATOM     21  H   UNL     1       5.731   3.554  16.573  0.00  0.00    +0.000 HD
BRANCH  19  22
ATOM     22  C   UNL     1       6.892   4.791  14.779  0.00  0.00    +0.000 A 
ATOM     23  C   UNL     1       6.151   3.838  14.102  0.00  0.00    +0.000 A 
ATOM     24  C   UNL     1       6.576   3.877  12.754  0.00  0.00    +0.000 A 
ATOM     25  C   UNL     1       7.548   4.840  12.686  0.00  0.00    +0.000 A 
ATOM     26  O   UNL     1       7.747   5.410  13.901  0.00  0.00    +0.000 OA
ENDBRANCH  19  22
ENDBRANCH  17  18
ENDBRANCH  16  17
ENDBRANCH   2  16
TORSDOF 7
ENDMDL
MODEL 6
REMARK VINA RESULT:      -7.3      6.032      7.871
REMARK  Name = 
REMARK  7 active torsions:
REMARK  status: ('A' for Active; 'I' for Inactive)
REMARK    1  A    between atoms: C_2  and  C_3
REMARK    2  A    between atoms: C_3  and  C_4
REMARK    3  A    between atoms: C_4  and  N_5
REMARK    4  A    between atoms: C_6  and  C_8
REMARK    5  A    between atoms: N_13  and  C_14
REMARK    6  A    between atoms: C_17  and  O_18
REMARK    7  A    between atoms: O_18  and  C_19
REMARK                            x       y       z     vdW  Elec       q    Type
REMARK                         _______ _______ _______ _____ _____    ______ ____
ROOT
ATOM      1  O   UNL     1       2.214   8.711  17.106  0.00  0.00    +0.000 OA
ATOM      2  C   UNL     1       2.160   8.341  18.277  0.00  0.00    +0.000 C 
ATOM      3  N   UNL     1       2.826   7.249  18.814  0.00  0.00    +0.000 N 
ATOM      4  H   UNL     1       2.539   6.951  19.740  0.00  0.00    +0.000 HD
ENDROOT
BRANCH   3   5
ATOM      5  C   UNL     1       3.703   6.386  18.117  0.00  0.00    +0.000 A 
ATOM      6  C   UNL     1       4.875   6.820  17.503  0.00  0.00    +0.000 A 
ATOM      7  C   UNL     1       5.679   5.924  16.792  0.00  0.00    +0.000 A 
ATOM      8  C   UNL     1       5.338   4.571  16.668  0.00  0.00    +0.000 A 
ATOM      9  C   UNL     1       4.187   4.122  17.323  0.00  0.00    +0.000 A 
ATOM     10 CL   UNL     1       3.686   2.470  17.374  0.00  0.00    +0.000 Cl
ATOM     11  C   UNL     1       3.386   5.026  18.051  0.00  0.00    +0.000 A 
BRANCH   8  12
ATOM     12  O   UNL     1       6.274   3.854  15.978  0.00  0.00    +0.000 OA
BRANCH  12  13
ATOM     13  C   UNL     1       6.269   3.896  14.560  0.00  0.00    +0.000 C 
ATOM     14  F   UNL     1       5.062   4.318  14.112  0.00  0.00    +0.000 F 
ATOM     15  F   UNL     1       7.169   4.850  14.195  0.00  0.00    +0.000 F 
ENDBRANCH  12  13
ENDBRANCH   8  12
ENDBRANCH   3   5
BRANCH   2  16
ATOM     16  C   UNL     1       1.355   9.113  19.303  0.00  0.00    +0.000 C 
BRANCH  16  17
ATOM     17  C   UNL     1       1.068  10.534  18.827  0.00  0.00    +0.000 C 
BRANCH  17  18
ATOM     18  N   UNL     1      -0.122  10.581  17.999  0.00  0.00    +0.000 N 
ATOM     19  C   UNL     1      -1.344  11.016  18.464  0.00  0.00    +0.000 C 
ATOM     20  O   UNL     1      -1.505  11.386  19.630  0.00  0.00    +0.000 OA
ATOM     21  H   UNL     1      -0.062  10.354  17.013  0.00  0.00    +0.000 HD
BRANCH  19  22
ATOM     22  C   UNL     1      -2.398  11.007  17.476  0.00  0.00    +0.000 A 
ATOM     23  C   UNL     1      -2.456  10.452  16.210  0.00  0.00    +0.000 A 
ATOM     24  C   UNL     1      -3.740  10.745  15.697  0.00  0.00    +0.000 A 
ATOM     25  C   UNL     1      -4.387  11.462  16.668  0.00  0.00    +0.000 A 
ATOM     26  O   UNL     1      -3.593  11.623  17.757  0.00  0.00    +0.000 OA
ENDBRANCH  19  22
ENDBRANCH  17  18
ENDBRANCH  16  17
ENDBRANCH   2  16
TORSDOF 7
ENDMDL
MODEL 7
REMARK VINA RESULT:      -7.2      5.682      7.643
REMARK  Name = 
REMARK  7 active torsions:
REMARK  status: ('A' for Active; 'I' for Inactive)
REMARK    1  A    between atoms: C_2  and  C_3
REMARK    2  A    between atoms: C_3  and  C_4
REMARK    3  A    between atoms: C_4  and  N_5
REMARK    4  A    between atoms: C_6  and  C_8
REMARK    5  A    between atoms: N_13  and  C_14
REMARK    6  A    between atoms: C_17  and  O_18
REMARK    7  A    between atoms: O_18  and  C_19
REMARK                            x       y       z     vdW  Elec       q    Type
REMARK                         _______ _______ _______ _____ _____    ______ ____
ROOT
ATOM      1  O   UNL     1       2.087   8.323  18.943  0.00  0.00    +0.000 OA
ATOM      2  C   UNL     1       1.980   7.610  19.939  0.00  0.00    +0.000 C 
ATOM      3  N   UNL     1       2.492   6.328  20.078  0.00  0.00    +0.000 N 
ATOM      4  H   UNL     1       2.165   5.791  20.873  0.00  0.00    +0.000 HD
ENDROOT
BRANCH   3   5
ATOM      5  C   UNL     1       3.248   5.626  19.111  0.00  0.00    +0.000 A 
ATOM      6  C   UNL     1       2.673   4.871  18.092  0.00  0.00    +0.000 A 
ATOM      7  C   UNL     1       3.476   4.165  17.191  0.00  0.00    +0.000 A 
ATOM      8  C   UNL     1       4.874   4.185  17.282  0.00  0.00    +0.000 A 
ATOM      9  C   UNL     1       5.456   4.980  18.275  0.00  0.00    +0.000 A 
ATOM     10 CL   UNL     1       7.157   5.214  18.452  0.00  0.00    +0.000 Cl
ATOM     11  C   UNL     1       4.642   5.703  19.172  0.00  0.00    +0.000 A 
BRANCH   8  12
ATOM     12  O   UNL     1       5.476   3.472  16.285  0.00  0.00    +0.000 OA
BRANCH  12  13
ATOM     13  C   UNL     1       5.967   4.158  15.144  0.00  0.00    +0.000 C 
ATOM     14  F   UNL     1       5.389   5.380  15.054  0.00  0.00    +0.000 F 
ATOM     15  F   UNL     1       7.293   4.375  15.360  0.00  0.00    +0.000 F 
ENDBRANCH  12  13
ENDBRANCH   8  12
ENDBRANCH   3   5
BRANCH   2  16
ATOM     16  C   UNL     1       1.283   8.113  21.188  0.00  0.00    +0.000 C 
BRANCH  16  17
ATOM     17  C   UNL     1       0.825   9.559  21.022  0.00  0.00    +0.000 C 
BRANCH  17  18
ATOM     18  N   UNL     1      -0.147   9.685  19.954  0.00  0.00    +0.000 N 
ATOM     19  C   UNL     1      -0.746  10.881  19.619  0.00  0.00    +0.000 C 
ATOM     20  O   UNL     1      -0.495  11.928  20.222  0.00  0.00    +0.000 OA
ATOM     21  H   UNL     1      -0.362   8.886  19.369  0.00  0.00    +0.000 HD
BRANCH  19  22
ATOM     22  C   UNL     1      -1.669  10.799  18.511  0.00  0.00    +0.000 A 
ATOM     23  C   UNL     1      -1.681   9.983  17.394  0.00  0.00    +0.000 A 
ATOM     24  C   UNL     1      -2.830  10.334  16.649  0.00  0.00    +0.000 A 
ATOM     25  C   UNL     1      -3.448  11.338  17.345  0.00  0.00    +0.000 A 
ATOM     26  O   UNL     1      -2.763  11.628  18.481  0.00  0.00    +0.000 OA
ENDBRANCH  19  22
ENDBRANCH  17  18
ENDBRANCH  16  17
ENDBRANCH   2  16
TORSDOF 7
ENDMDL
MODEL 8
REMARK VINA RESULT:      -7.2      4.463      6.100
REMARK  Name = 
REMARK  7 active torsions:
REMARK  status: ('A' for Active; 'I' for Inactive)
REMARK    1  A    between atoms: C_2  and  C_3
REMARK    2  A    between atoms: C_3  and  C_4
REMARK    3  A    between atoms: C_4  and  N_5
REMARK    4  A    between atoms: C_6  and  C_8
REMARK    5  A    between atoms: N_13  and  C_14
REMARK    6  A    between atoms: C_17  and  O_18
REMARK    7  A    between atoms: O_18  and  C_19
REMARK                            x       y       z     vdW  Elec       q    Type
REMARK                         _______ _______ _______ _____ _____    ______ ____
ROOT
ATOM      1  O   UNL     1       0.782   4.635  20.298  0.00  0.00    +0.000 OA
ATOM      2  C   UNL     1       1.985   4.819  20.478  0.00  0.00    +0.000 C 
ATOM      3  N   UNL     1       2.650   6.028  20.340  0.00  0.00    +0.000 N 
ATOM      4  H   UNL     1       3.664   5.991  20.331  0.00  0.00    +0.000 HD
ENDROOT
BRANCH   3   5
ATOM      5  C   UNL     1       2.060   7.266  19.997  0.00  0.00    +0.000 A 
ATOM      6  C   UNL     1       2.186   7.850  18.739  0.00  0.00    +0.000 A 
ATOM      7  C   UNL     1       1.614   9.099  18.476  0.00  0.00    +0.000 A 
ATOM      8  C   UNL     1       0.906   9.804  19.457  0.00  0.00    +0.000 A 
ATOM      9  C   UNL     1       0.737   9.199  20.707  0.00  0.00    +0.000 A 
ATOM     10 CL   UNL     1      -0.206   9.873  21.987  0.00  0.00    +0.000 Cl
ATOM     11  C   UNL     1       1.303   7.934  20.965  0.00  0.00    +0.000 A 
BRANCH   8  12
ATOM     12  O   UNL     1       0.387  10.978  18.989  0.00  0.00    +0.000 OA
BRANCH  12  13
ATOM     13  C   UNL     1      -0.792  10.947  18.201  0.00  0.00    +0.000 C 
ATOM     14  F   UNL     1      -1.776  10.293  18.865  0.00  0.00    +0.000 F 
ATOM     15  F   UNL     1      -1.208  12.236  18.070  0.00  0.00    +0.000 F 
ENDBRANCH  12  13
ENDBRANCH   8  12
ENDBRANCH   3   5
BRANCH   2  16
ATOM     16  C   UNL     1       2.887   3.689  20.934  0.00  0.00    +0.000 C 
BRANCH  16  17
ATOM     17  C   UNL     1       3.150   2.699  19.803  0.00  0.00    +0.000 C 
BRANCH  17  18
ATOM     18  N   UNL     1       3.598   3.378  18.602  0.00  0.00    +0.000 N 
ATOM     19  C   UNL     1       4.874   3.879  18.454  0.00  0.00    +0.000 C 
ATOM     20  O   UNL     1       5.720   3.787  19.347  0.00  0.00    +0.000 OA
ATOM     21  H   UNL     1       2.986   3.441  17.798  0.00  0.00    +0.000 HD
BRANCH  19  22
ATOM     22  C   UNL     1       5.128   4.500  17.174  0.00  0.00    +0.000 A 
ATOM     23  C   UNL     1       5.577   3.970  15.977  0.00  0.00    +0.000 A 
ATOM     24  C   UNL     1       5.630   5.041  15.055  0.00  0.00    +0.000 A 
ATOM     25  C   UNL     1       5.219   6.156  15.737  0.00  0.00    +0.000 A 
ATOM     26  O   UNL     1       4.903   5.846  17.020  0.00  0.00    +0.000 OA
ENDBRANCH  19  22
ENDBRANCH  17  18
ENDBRANCH  16  17
ENDBRANCH   2  16
TORSDOF 7
ENDMDL
MODEL 9
REMARK VINA RESULT:      -7.2      4.043      5.934
REMARK  Name = 
REMARK  7 active torsions:
REMARK  status: ('A' for Active; 'I' for Inactive)
REMARK    1  A    between atoms: C_2  and  C_3
REMARK    2  A    between atoms: C_3  and  C_4
REMARK    3  A    between atoms: C_4  and  N_5
REMARK    4  A    between atoms: C_6  and  C_8
REMARK    5  A    between atoms: N_13  and  C_14
REMARK    6  A    between atoms: C_17  and  O_18
REMARK    7  A    between atoms: O_18  and  C_19
REMARK                            x       y       z     vdW  Elec       q    Type
REMARK                         _______ _______ _______ _____ _____    ______ ____
ROOT
ATOM      1  O   UNL     1       0.949   4.318  20.340  0.00  0.00    +0.000 OA
ATOM      2  C   UNL     1       2.166   4.469  20.424  0.00  0.00    +0.000 C 
ATOM      3  N   UNL     1       2.855   5.653  20.205  0.00  0.00    +0.000 N 
ATOM      4  H   UNL     1       3.863   5.585  20.121  0.00  0.00    +0.000 HD
ENDROOT
BRANCH   3   5
ATOM      5  C   UNL     1       2.278   6.900  19.873  0.00  0.00    +0.000 A 
ATOM      6  C   UNL     1       2.398   7.488  18.616  0.00  0.00    +0.000 A 
ATOM      7  C   UNL     1       1.839   8.744  18.363  0.00  0.00    +0.000 A 
ATOM      8  C   UNL     1       1.150   9.455  19.354  0.00  0.00    +0.000 A 
ATOM      9  C   UNL     1       0.987   8.847  20.604  0.00  0.00    +0.000 A 
ATOM     10 CL   UNL     1       0.066   9.528  21.896  0.00  0.00    +0.000 Cl
ATOM     11  C   UNL     1       1.539   7.573  20.850  0.00  0.00    +0.000 A 
BRANCH   8  12
ATOM     12  O   UNL     1       0.641  10.637  18.896  0.00  0.00    +0.000 OA
BRANCH  12  13
ATOM     13  C   UNL     1      -0.660  10.657  18.333  0.00  0.00    +0.000 C 
ATOM     14  F   UNL     1      -0.801   9.636  17.454  0.00  0.00    +0.000 F 
ATOM     15  F   UNL     1      -1.530  10.411  19.350  0.00  0.00    +0.000 F 
ENDBRANCH  12  13
ENDBRANCH   8  12
ENDBRANCH   3   5
BRANCH   2  16
ATOM     16  C   UNL     1       3.067   3.323  20.843  0.00  0.00    +0.000 C 
BRANCH  16  17
ATOM     17  C   UNL     1       3.967   2.878  19.695  0.00  0.00    +0.000 C 
BRANCH  17  18
ATOM     18  N   UNL     1       5.026   3.839  19.453  0.00  0.00    +0.000 N 
ATOM     19  C   UNL     1       5.076   4.636  18.329  0.00  0.00    +0.000 C 
ATOM     20  O   UNL     1       4.217   4.573  17.446  0.00  0.00    +0.000 OA
ATOM     21  H   UNL     1       5.736   3.997  20.158  0.00  0.00    +0.000 HD
BRANCH  19  22
ATOM     22  C   UNL     1       6.200   5.542  18.288  0.00  0.00    +0.000 A 
ATOM     23  C   UNL     1       7.296   5.674  19.122  0.00  0.00    +0.000 A 
ATOM     24  C   UNL     1       8.084   6.722  18.594  0.00  0.00    +0.000 A 
ATOM     25  C   UNL     1       7.428   7.171  17.479  0.00  0.00    +0.000 A 
ATOM     26  O   UNL     1       6.289   6.462  17.273  0.00  0.00    +0.000 OA
ENDBRANCH  19  22
ENDBRANCH  17  18
ENDBRANCH  16  17
ENDBRANCH   2  16
TORSDOF 7
ENDMDL
