MODEL 1
REMARK VINA RESULT:      -7.0      0.000      0.000
REMARK  Name = 
REMARK  4 active torsions:
REMARK  status: ('A' for Active; 'I' for Inactive)
REMARK    1  A    between atoms: C_1  and  C_2
REMARK    2  A    between atoms: N_4  and  C_5
REMARK    3  A    between atoms: N_17  and  C_18
REMARK    4  A    between atoms: N_23  and  C_24
REMARK                            x       y       z     vdW  Elec       q    Type
REMARK                         _______ _______ _______ _____ _____    ______ ____
ROOT
ATOM      1  C   UNL     1      -2.535  10.463  16.384  0.00  0.00    +0.000 C 
ATOM      2  C   UNL     1      -2.922  11.102  17.667  0.00  0.00    +0.000 A 
ATOM      3  N   UNL     1      -4.184  11.140  18.086  0.00  0.00    +0.000 NA
ATOM      4  N   UNL     1      -4.188  12.004  19.159  0.00  0.00    +0.000 N 
ATOM      5  C   UNL     1      -2.876  12.260  19.602  0.00  0.00    +0.000 A 
ATOM      6  C   UNL     1      -2.092  11.725  18.595  0.00  0.00    +0.000 A 
ATOM      7  C   UNL     1      -0.691  11.869  18.598  0.00  0.00    +0.000 A 
ATOM      8  C   UNL     1      -0.085  12.566  19.565  0.00  0.00    +0.000 A 
ATOM      9  C   UNL     1       1.367  12.738  19.509  0.00  0.00    +0.000 A 
ATOM     10  O   UNL     1       2.040  12.188  18.640  0.00  0.00    +0.000 OA
ATOM     11  N   UNL     1       1.865  13.567  20.477  0.00  0.00    +0.000 N 
ATOM     12  C   UNL     1       3.271  13.921  20.427  0.00  0.00    +0.000 C 
ATOM     13  C   UNL     1       1.103  14.074  21.525  0.00  0.00    +0.000 A 
ATOM     14  O   UNL     1       1.622  14.817  22.353  0.00  0.00    +0.000 OA
ATOM     15  N   UNL     1      -0.229  13.771  21.618  0.00  0.00    +0.000 NA
ATOM     16  C   UNL     1      -0.892  13.130  20.695  0.00  0.00    +0.000 A 
ATOM     17  N   UNL     1      -2.336  12.910  20.723  0.00  0.00    +0.000 N 
ENDROOT
BRANCH  17  18
ATOM     18  C   UNL     1      -3.075  13.171  21.941  0.00  0.00    +0.000 A 
ATOM     19  C   UNL     1      -3.054  12.266  23.025  0.00  0.00    +0.000 A 
ATOM     20  C   UNL     1      -3.877  12.433  24.152  0.00  0.00    +0.000 A 
ATOM     21  C   UNL     1      -4.649  13.578  24.296  0.00  0.00    +0.000 A 
ATOM     22  C   UNL     1      -4.625  14.538  23.294  0.00  0.00    +0.000 A 
ATOM     23  C   UNL     1      -3.893  14.312  22.122  0.00  0.00    +0.000 A 
ATOM     24  F   UNL     1      -4.102  15.189  21.129  0.00  0.00    +0.000 F 
ENDBRANCH  17  18
BRANCH   4  25
ATOM     25  C   UNL     1      -5.461  12.504  19.558  0.00  0.00    +0.000 A 
ATOM     26  C   UNL     1      -6.141  11.845  20.601  0.00  0.00    +0.000 A 
ATOM     27  C   UNL     1      -7.361  12.334  21.066  0.00  0.00    +0.000 A 
ATOM     28  C   UNL     1      -7.916  13.474  20.485  0.00  0.00    +0.000 A 
ATOM     29  C   UNL     1      -7.263  14.107  19.422  0.00  0.00    +0.000 A 
ATOM     30  C   UNL     1      -6.047  13.609  18.945  0.00  0.00    +0.000 A 
ENDBRANCH   4  25
TORSDOF 2
ENDMDL
MODEL 2
REMARK VINA RESULT:      -7.0      0.885      1.242
REMARK  Name = 
REMARK  4 active torsions:
REMARK  status: ('A' for Active; 'I' for Inactive)
REMARK    1  A    between atoms: C_1  and  C_2
REMARK    2  A    between atoms: N_4  and  C_5
REMARK    3  A    between atoms: N_17  and  C_18
REMARK    4  A    between atoms: N_23  and  C_24
REMARK                            x       y       z     vdW  Elec       q    Type
REMARK                         _______ _______ _______ _____ _____    ______ ____
ROOT
ATOM      1  C   UNL     1      -2.339  10.354  16.345  0.00  0.00    +0.000 C 
ATOM      2  C   UNL     1      -2.777  11.008  17.603  0.00  0.00    +0.000 A 
ATOM      3  N   UNL     1      -4.053  11.036  17.978  0.00  0.00    +0.000 NA
ATOM      4  N   UNL     1      -4.104  11.916  19.037  0.00  0.00    +0.000 N 
ATOM      5  C   UNL     1      -2.811  12.194  19.521  0.00  0.00    +0.000 A 
ATOM      6  C   UNL     1      -1.987  11.654  18.550  0.00  0.00    +0.000 A 
ATOM      7  C   UNL     1      -0.588  11.816  18.598  0.00  0.00    +0.000 A 
ATOM      8  C   UNL     1      -0.025  12.534  19.575  0.00  0.00    +0.000 A 
ATOM      9  C   UNL     1       1.427  12.724  19.566  0.00  0.00    +0.000 A 
ATOM     10  O   UNL     1       2.135  12.169  18.729  0.00  0.00    +0.000 OA
ATOM     11  N   UNL     1       1.881  13.572  20.538  0.00  0.00    +0.000 N 
ATOM     12  C   UNL     1       3.284  13.943  20.531  0.00  0.00    +0.000 C 
ATOM     13  C   UNL     1       1.077  14.086  21.551  0.00  0.00    +0.000 A 
ATOM     14  O   UNL     1       1.558  14.848  22.385  0.00  0.00    +0.000 OA
ATOM     15  N   UNL     1      -0.253  13.768  21.603  0.00  0.00    +0.000 NA
ATOM     16  C   UNL     1      -0.877  13.105  20.668  0.00  0.00    +0.000 A 
ATOM     17  N   UNL     1      -2.318  12.868  20.649  0.00  0.00    +0.000 N 
ENDROOT
BRANCH  17  18
ATOM     18  C   UNL     1      -3.102  13.137  21.838  0.00  0.00    +0.000 A 
ATOM     19  C   UNL     1      -3.921  14.283  21.937  0.00  0.00    +0.000 A 
ATOM     20  C   UNL     1      -4.572  14.634  23.133  0.00  0.00    +0.000 A 
ATOM     21  C   UNL     1      -4.535  13.783  24.229  0.00  0.00    +0.000 A 
ATOM     22  C   UNL     1      -3.816  12.599  24.140  0.00  0.00    +0.000 A 
ATOM     23  C   UNL     1      -3.076  12.311  22.986  0.00  0.00    +0.000 A 
ATOM     24  F   UNL     1      -2.248  11.260  23.075  0.00  0.00    +0.000 F 
ENDBRANCH  17  18
BRANCH   4  25
ATOM     25  C   UNL     1      -5.396  12.406  19.384  0.00  0.00    +0.000 A 
ATOM     26  C   UNL     1      -6.103  11.754  20.414  0.00  0.00    +0.000 A 
ATOM     27  C   UNL     1      -7.344  12.235  20.830  0.00  0.00    +0.000 A 
ATOM     28  C   UNL     1      -7.893  13.359  20.212  0.00  0.00    +0.000 A 
ATOM     29  C   UNL     1      -7.212  13.983  19.161  0.00  0.00    +0.000 A 
ATOM     30  C   UNL     1      -5.974  13.493  18.734  0.00  0.00    +0.000 A 
ENDBRANCH   4  25
TORSDOF 2
ENDMDL
MODEL 3
REMARK VINA RESULT:      -6.1      1.263      1.572
REMARK  Name = 
REMARK  4 active torsions:
REMARK  status: ('A' for Active; 'I' for Inactive)
REMARK    1  A    between atoms: C_1  and  C_2
REMARK    2  A    between atoms: N_4  and  C_5
REMARK    3  A    between atoms: N_17  and  C_18
REMARK    4  A    between atoms: N_23  and  C_24
REMARK                            x       y       z     vdW  Elec       q    Type
REMARK                         _______ _______ _______ _____ _____    ______ ____
ROOT
ATOM      1  C   UNL     1      -1.466  10.030  17.168  0.00  0.00    +0.000 C 
ATOM      2  C   UNL     1      -2.220  10.841  18.156  0.00  0.00    +0.000 A 
ATOM      3  N   UNL     1      -3.549  10.810  18.230  0.00  0.00    +0.000 NA
ATOM      4  N   UNL     1      -3.893  11.847  19.069  0.00  0.00    +0.000 N 
ATOM      5  C   UNL     1      -2.765  12.324  19.765  0.00  0.00    +0.000 A 
ATOM      6  C   UNL     1      -1.709  11.709  19.116  0.00  0.00    +0.000 A 
ATOM      7  C   UNL     1      -0.372  12.009  19.440  0.00  0.00    +0.000 A 
ATOM      8  C   UNL     1      -0.091  12.932  20.366  0.00  0.00    +0.000 A 
ATOM      9  C   UNL     1       1.310  13.254  20.641  0.00  0.00    +0.000 A 
ATOM     10  O   UNL     1       2.224  12.636  20.098  0.00  0.00    +0.000 OA
ATOM     11  N   UNL     1       1.479  14.293  21.514  0.00  0.00    +0.000 N 
ATOM     12  C   UNL     1       2.822  14.789  21.747  0.00  0.00    +0.000 C 
ATOM     13  C   UNL     1       0.434  14.891  22.213  0.00  0.00    +0.000 A 
ATOM     14  O   UNL     1       0.666  15.824  22.976  0.00  0.00    +0.000 OA
ATOM     15  N   UNL     1      -0.852  14.461  22.030  0.00  0.00    +0.000 NA
ATOM     16  C   UNL     1      -1.204  13.594  21.120  0.00  0.00    +0.000 A 
ATOM     17  N   UNL     1      -2.586  13.221  20.829  0.00  0.00    +0.000 N 
ENDROOT
BRANCH  17  18
ATOM     18  C   UNL     1      -3.639  13.612  21.745  0.00  0.00    +0.000 A 
ATOM     19  C   UNL     1      -4.404  14.780  21.536  0.00  0.00    +0.000 A 
ATOM     20  C   UNL     1      -5.326  15.248  22.488  0.00  0.00    +0.000 A 
ATOM     21  C   UNL     1      -5.613  14.495  23.618  0.00  0.00    +0.000 A 
ATOM     22  C   UNL     1      -4.950  13.292  23.814  0.00  0.00    +0.000 A 
ATOM     23  C   UNL     1      -3.949  12.889  22.921  0.00  0.00    +0.000 A 
ATOM     24  F   UNL     1      -3.221  11.831  23.307  0.00  0.00    +0.000 F 
ENDBRANCH  17  18
BRANCH   4  25
ATOM     25  C   UNL     1      -5.255  12.264  19.027  0.00  0.00    +0.000 A 
ATOM     26  C   UNL     1      -6.101  11.889  20.089  0.00  0.00    +0.000 A 
ATOM     27  C   UNL     1      -7.425  12.324  20.122  0.00  0.00    +0.000 A 
ATOM     28  C   UNL     1      -7.916  13.123  19.090  0.00  0.00    +0.000 A 
ATOM     29  C   UNL     1      -7.090  13.462  18.013  0.00  0.00    +0.000 A 
ATOM     30  C   UNL     1      -5.767  13.015  17.972  0.00  0.00    +0.000 A 
ENDBRANCH   4  25
TORSDOF 2
ENDMDL
MODEL 4
REMARK VINA RESULT:      -6.1      2.137      2.824
REMARK  Name = 
REMARK  4 active torsions:
REMARK  status: ('A' for Active; 'I' for Inactive)
REMARK    1  A    between atoms: C_1  and  C_2
REMARK    2  A    between atoms: N_4  and  C_5
REMARK    3  A    between atoms: N_17  and  C_18
REMARK    4  A    between atoms: N_23  and  C_24
REMARK                            x       y       z     vdW  Elec       q    Type
REMARK                         _______ _______ _______ _____ _____    ______ ____
ROOT
ATOM      1  C   UNL     1      -6.196  12.010  17.127  0.00  0.00    +0.000 C 
ATOM      2  C   UNL     1      -5.668  12.516  18.418  0.00  0.00    +0.000 A 
ATOM      3  N   UNL     1      -6.399  13.271  19.234  0.00  0.00    +0.000 NA
ATOM      4  N   UNL     1      -5.520  13.740  20.185  0.00  0.00    +0.000 N 
ATOM      5  C   UNL     1      -4.307  13.026  20.143  0.00  0.00    +0.000 A 
ATOM      6  C   UNL     1      -4.409  12.300  18.970  0.00  0.00    +0.000 A 
ATOM      7  C   UNL     1      -3.336  11.521  18.491  0.00  0.00    +0.000 A 
ATOM      8  C   UNL     1      -2.173  11.496  19.150  0.00  0.00    +0.000 A 
ATOM      9  C   UNL     1      -1.065  10.716  18.597  0.00  0.00    +0.000 A 
ATOM     10  O   UNL     1      -1.213  10.025  17.591  0.00  0.00    +0.000 OA
ATOM     11  N   UNL     1       0.110  10.859  19.282  0.00  0.00    +0.000 N 
ATOM     12  C   UNL     1       1.307  10.244  18.739  0.00  0.00    +0.000 C 
ATOM     13  C   UNL     1       0.221  11.543  20.489  0.00  0.00    +0.000 A 
ATOM     14  O   UNL     1       1.313  11.633  21.042  0.00  0.00    +0.000 OA
ATOM     15  N   UNL     1      -0.878  12.142  21.045  0.00  0.00    +0.000 NA
ATOM     16  C   UNL     1      -2.032  12.237  20.444  0.00  0.00    +0.000 A 
ATOM     17  N   UNL     1      -3.174  12.981  20.970  0.00  0.00    +0.000 N 
ENDROOT
BRANCH  17  18
ATOM     18  C   UNL     1      -3.158  13.436  22.346  0.00  0.00    +0.000 A 
ATOM     19  C   UNL     1      -3.566  12.596  23.406  0.00  0.00    +0.000 A 
ATOM     20  C   UNL     1      -3.694  13.067  24.724  0.00  0.00    +0.000 A 
ATOM     21  C   UNL     1      -3.290  14.354  25.053  0.00  0.00    +0.000 A 
ATOM     22  C   UNL     1      -2.793  15.181  24.055  0.00  0.00    +0.000 A 
ATOM     23  C   UNL     1      -2.777  14.745  22.724  0.00  0.00    +0.000 A 
ATOM     24  F   UNL     1      -2.486  15.682  21.811  0.00  0.00    +0.000 F 
ENDBRANCH  17  18
BRANCH   4  25
ATOM     25  C   UNL     1      -5.963  14.855  20.954  0.00  0.00    +0.000 A 
ATOM     26  C   UNL     1      -6.582  14.607  22.195  0.00  0.00    +0.000 A 
ATOM     27  C   UNL     1      -6.976  15.667  23.010  0.00  0.00    +0.000 A 
ATOM     28  C   UNL     1      -6.769  16.980  22.586  0.00  0.00    +0.000 A 
ATOM     29  C   UNL     1      -6.192  17.229  21.336  0.00  0.00    +0.000 A 
ATOM     30  C   UNL     1      -5.809  16.167  20.512  0.00  0.00    +0.000 A 
ENDBRANCH   4  25
TORSDOF 2
ENDMDL
MODEL 5
REMARK VINA RESULT:      -6.0      3.365      7.236
REMARK  Name = 
REMARK  4 active torsions:
REMARK  status: ('A' for Active; 'I' for Inactive)
REMARK    1  A    between atoms: C_1  and  C_2
REMARK    2  A    between atoms: N_4  and  C_5
REMARK    3  A    between atoms: N_17  and  C_18
REMARK    4  A    between atoms: N_23  and  C_24
REMARK                            x       y       z     vdW  Elec       q    Type
REMARK                         _______ _______ _______ _____ _____    ______ ____
ROOT
ATOM      1  C   UNL     1      -1.163  18.397  23.469  0.00  0.00    +0.000 C 
ATOM      2  C   UNL     1      -1.050  17.007  22.963  0.00  0.00    +0.000 A 
ATOM      3  N   UNL     1       0.080  16.533  22.442  0.00  0.00    +0.000 NA
ATOM      4  N   UNL     1      -0.258  15.325  21.872  0.00  0.00    +0.000 N 
ATOM      5  C   UNL     1      -1.528  14.901  22.312  0.00  0.00    +0.000 A 
ATOM      6  C   UNL     1      -2.031  16.019  22.952  0.00  0.00    +0.000 A 
ATOM      7  C   UNL     1      -3.348  16.051  23.450  0.00  0.00    +0.000 A 
ATOM      8  C   UNL     1      -4.160  15.003  23.280  0.00  0.00    +0.000 A 
ATOM      9  C   UNL     1      -5.538  15.090  23.767  0.00  0.00    +0.000 A 
ATOM     10  O   UNL     1      -5.930  16.072  24.396  0.00  0.00    +0.000 OA
ATOM     11  N   UNL     1      -6.313  14.014  23.434  0.00  0.00    +0.000 N 
ATOM     12  C   UNL     1      -7.730  14.060  23.741  0.00  0.00    +0.000 C 
ATOM     13  C   UNL     1      -5.815  12.860  22.835  0.00  0.00    +0.000 A 
ATOM     14  O   UNL     1      -6.576  11.937  22.560  0.00  0.00    +0.000 OA
ATOM     15  N   UNL     1      -4.485  12.765  22.523  0.00  0.00    +0.000 NA
ATOM     16  C   UNL     1      -3.644  13.758  22.626  0.00  0.00    +0.000 A 
ATOM     17  N   UNL     1      -2.254  13.707  22.180  0.00  0.00    +0.000 N 
ENDROOT
BRANCH  17  18
ATOM     18  C   UNL     1      -1.660  12.431  21.838  0.00  0.00    +0.000 A 
ATOM     19  C   UNL     1      -1.192  11.544  22.832  0.00  0.00    +0.000 A 
ATOM     20  C   UNL     1      -0.485  10.372  22.514  0.00  0.00    +0.000 A 
ATOM     21  C   UNL     1      -0.337   9.978  21.191  0.00  0.00    +0.000 A 
ATOM     22  C   UNL     1      -0.865  10.775  20.186  0.00  0.00    +0.000 A 
ATOM     23  C   UNL     1      -1.467  11.999  20.504  0.00  0.00    +0.000 A 
ATOM     24  F   UNL     1      -1.751  12.794  19.462  0.00  0.00    +0.000 F 
ENDBRANCH  17  18
BRANCH   4  25
ATOM     25  C   UNL     1       0.673  14.790  20.936  0.00  0.00    +0.000 A 
ATOM     26  C   UNL     1       0.591  15.215  19.595  0.00  0.00    +0.000 A 
ATOM     27  C   UNL     1       1.518  14.765  18.656  0.00  0.00    +0.000 A 
ATOM     28  C   UNL     1       2.523  13.879  19.045  0.00  0.00    +0.000 A 
ATOM     29  C   UNL     1       2.582  13.424  20.367  0.00  0.00    +0.000 A 
ATOM     30  C   UNL     1       1.644  13.863  21.306  0.00  0.00    +0.000 A 
ENDBRANCH   4  25
TORSDOF 2
ENDMDL
MODEL 6
REMARK VINA RESULT:      -5.9      3.203      7.251
REMARK  Name = 
REMARK  4 active torsions:
REMARK  status: ('A' for Active; 'I' for Inactive)
REMARK    1  A    between atoms: C_1  and  C_2
REMARK    2  A    between atoms: N_4  and  C_5
REMARK    3  A    between atoms: N_17  and  C_18
REMARK    4  A    between atoms: N_23  and  C_24
REMARK                            x       y       z     vdW  Elec       q    Type
REMARK                         _______ _______ _______ _____ _____    ______ ____
ROOT
ATOM      1  C   UNL     1      -1.415  18.037  23.828  0.00  0.00    +0.000 C 
ATOM      2  C   UNL     1      -1.218  16.753  23.110  0.00  0.00    +0.000 A 
ATOM      3  N   UNL     1      -0.045  16.409  22.584  0.00  0.00    +0.000 NA
ATOM      4  N   UNL     1      -0.303  15.301  21.808  0.00  0.00    +0.000 N 
ATOM      5  C   UNL     1      -1.574  14.769  22.099  0.00  0.00    +0.000 A 
ATOM      6  C   UNL     1      -2.156  15.750  22.882  0.00  0.00    +0.000 A 
ATOM      7  C   UNL     1      -3.497  15.656  23.303  0.00  0.00    +0.000 A 
ATOM      8  C   UNL     1      -4.255  14.624  22.919  0.00  0.00    +0.000 A 
ATOM      9  C   UNL     1      -5.659  14.586  23.333  0.00  0.00    +0.000 A 
ATOM     10  O   UNL     1      -6.122  15.437  24.090  0.00  0.00    +0.000 OA
ATOM     11  N   UNL     1      -6.370  13.554  22.786  0.00  0.00    +0.000 N 
ATOM     12  C   UNL     1      -7.802  13.503  23.015  0.00  0.00    +0.000 C 
ATOM     13  C   UNL     1      -5.794  12.531  22.037  0.00  0.00    +0.000 A 
ATOM     14  O   UNL     1      -6.502  11.641  21.574  0.00  0.00    +0.000 OA
ATOM     15  N   UNL     1      -4.448  12.532  21.791  0.00  0.00    +0.000 NA
ATOM     16  C   UNL     1      -3.655  13.521  22.102  0.00  0.00    +0.000 A 
ATOM     17  N   UNL     1      -2.243  13.590  21.734  0.00  0.00    +0.000 N 
ENDROOT
BRANCH  17  18
ATOM     18  C   UNL     1      -1.579  12.407  21.224  0.00  0.00    +0.000 A 
ATOM     19  C   UNL     1      -1.475  12.160  19.837  0.00  0.00    +0.000 A 
ATOM     20  C   UNL     1      -0.965  10.952  19.331  0.00  0.00    +0.000 A 
ATOM     21  C   UNL     1      -0.419  10.006  20.188  0.00  0.00    +0.000 A 
ATOM     22  C   UNL     1      -0.417  10.253  21.553  0.00  0.00    +0.000 A 
ATOM     23  C   UNL     1      -1.030  11.406  22.059  0.00  0.00    +0.000 A 
ATOM     24  F   UNL     1      -1.168  11.452  23.392  0.00  0.00    +0.000 F 
ENDBRANCH  17  18
BRANCH   4  25
ATOM     25  C   UNL     1       0.696  14.957  20.852  0.00  0.00    +0.000 A 
ATOM     26  C   UNL     1       1.641  13.971  21.199  0.00  0.00    +0.000 A 
ATOM     27  C   UNL     1       2.600  13.558  20.275  0.00  0.00    +0.000 A 
ATOM     28  C   UNL     1       2.632  14.136  19.006  0.00  0.00    +0.000 A 
ATOM     29  C   UNL     1       1.721  15.145  18.673  0.00  0.00    +0.000 A 
ATOM     30  C   UNL     1       0.768  15.570  19.603  0.00  0.00    +0.000 A 
ENDBRANCH   4  25
TORSDOF 2
ENDMDL
MODEL 7
REMARK VINA RESULT:      -5.9      2.236      3.000
REMARK  Name = 
REMARK  4 active torsions:
REMARK  status: ('A' for Active; 'I' for Inactive)
REMARK    1  A    between atoms: C_1  and  C_2
REMARK    2  A    between atoms: N_4  and  C_5
REMARK    3  A    between atoms: N_17  and  C_18
REMARK    4  A    between atoms: N_23  and  C_24
REMARK                            x       y       z     vdW  Elec       q    Type
REMARK                         _______ _______ _______ _____ _____    ______ ____
ROOT
ATOM      1  C   UNL     1      -6.450  11.531  17.825  0.00  0.00    +0.000 C 
ATOM      2  C   UNL     1      -5.916  12.250  19.008  0.00  0.00    +0.000 A 
ATOM      3  N   UNL     1      -6.698  12.963  19.815  0.00  0.00    +0.000 NA
ATOM      4  N   UNL     1      -5.838  13.665  20.631  0.00  0.00    +0.000 N 
ATOM      5  C   UNL     1      -4.529  13.152  20.542  0.00  0.00    +0.000 A 
ATOM      6  C   UNL     1      -4.599  12.297  19.456  0.00  0.00    +0.000 A 
ATOM      7  C   UNL     1      -3.452  11.651  18.954  0.00  0.00    +0.000 A 
ATOM      8  C   UNL     1      -2.253  11.882  19.500  0.00  0.00    +0.000 A 
ATOM      9  C   UNL     1      -1.076  11.233  18.920  0.00  0.00    +0.000 A 
ATOM     10  O   UNL     1      -1.184  10.423  18.002  0.00  0.00    +0.000 OA
ATOM     11  N   UNL     1       0.108  11.633  19.477  0.00  0.00    +0.000 N 
ATOM     12  C   UNL     1       1.345  11.161  18.883  0.00  0.00    +0.000 C 
ATOM     13  C   UNL     1       0.195  12.452  20.598  0.00  0.00    +0.000 A 
ATOM     14  O   UNL     1       1.297  12.773  21.036  0.00  0.00    +0.000 OA
ATOM     15  N   UNL     1      -0.942  12.925  21.196  0.00  0.00    +0.000 NA
ATOM     16  C   UNL     1      -2.139  12.771  20.700  0.00  0.00    +0.000 A 
ATOM     17  N   UNL     1      -3.345  13.377  21.260  0.00  0.00    +0.000 N 
ENDROOT
BRANCH  17  18
ATOM     18  C   UNL     1      -3.298  13.974  22.579  0.00  0.00    +0.000 A 
ATOM     19  C   UNL     1      -3.120  15.364  22.754  0.00  0.00    +0.000 A 
ATOM     20  C   UNL     1      -2.928  15.937  24.023  0.00  0.00    +0.000 A 
ATOM     21  C   UNL     1      -3.041  15.162  25.169  0.00  0.00    +0.000 A 
ATOM     22  C   UNL     1      -3.310  13.807  25.043  0.00  0.00    +0.000 A 
ATOM     23  C   UNL     1      -3.385  13.220  23.773  0.00  0.00    +0.000 A 
ATOM     24  F   UNL     1      -3.432  11.880  23.755  0.00  0.00    +0.000 F 
ENDBRANCH  17  18
BRANCH   4  25
ATOM     25  C   UNL     1      -6.400  14.772  21.330  0.00  0.00    +0.000 A 
ATOM     26  C   UNL     1      -6.851  14.569  22.649  0.00  0.00    +0.000 A 
ATOM     27  C   UNL     1      -7.352  15.635  23.394  0.00  0.00    +0.000 A 
ATOM     28  C   UNL     1      -7.420  16.907  22.824  0.00  0.00    +0.000 A 
ATOM     29  C   UNL     1      -7.011  17.103  21.500  0.00  0.00    +0.000 A 
ATOM     30  C   UNL     1      -6.522  16.032  20.748  0.00  0.00    +0.000 A 
ENDBRANCH   4  25
TORSDOF 2
ENDMDL
MODEL 8
REMARK VINA RESULT:      -5.9      1.087      1.441
REMARK  Name = 
REMARK  4 active torsions:
REMARK  status: ('A' for Active; 'I' for Inactive)
REMARK    1  A    between atoms: C_1  and  C_2
REMARK    2  A    between atoms: N_4  and  C_5
REMARK    3  A    between atoms: N_17  and  C_18
REMARK    4  A    between atoms: N_23  and  C_24
REMARK                            x       y       z     vdW  Elec       q    Type
REMARK                         _______ _______ _______ _____ _____    ______ ____
ROOT
ATOM      1  C   UNL     1      -1.357   9.986  17.236  0.00  0.00    +0.000 C 
ATOM      2  C   UNL     1      -2.127  10.796  18.213  0.00  0.00    +0.000 A 
ATOM      3  N   UNL     1      -3.455  10.746  18.281  0.00  0.00    +0.000 NA
ATOM      4  N   UNL     1      -3.818  11.786  19.109  0.00  0.00    +0.000 N 
ATOM      5  C   UNL     1      -2.700  12.287  19.805  0.00  0.00    +0.000 A 
ATOM      6  C   UNL     1      -1.633  11.681  19.167  0.00  0.00    +0.000 A 
ATOM      7  C   UNL     1      -0.301  12.004  19.493  0.00  0.00    +0.000 A 
ATOM      8  C   UNL     1      -0.038  12.940  20.411  0.00  0.00    +0.000 A 
ATOM      9  C   UNL     1       1.357  13.285  20.689  0.00  0.00    +0.000 A 
ATOM     10  O   UNL     1       2.282  12.675  20.155  0.00  0.00    +0.000 OA
ATOM     11  N   UNL     1       1.506  14.335  21.552  0.00  0.00    +0.000 N 
ATOM     12  C   UNL     1       2.841  14.854  21.786  0.00  0.00    +0.000 C 
ATOM     13  C   UNL     1       0.450  14.925  22.241  0.00  0.00    +0.000 A 
ATOM     14  O   UNL     1       0.664  15.869  22.995  0.00  0.00    +0.000 OA
ATOM     15  N   UNL     1      -0.829  14.474  22.056  0.00  0.00    +0.000 NA
ATOM     16  C   UNL     1      -1.164  13.593  21.154  0.00  0.00    +0.000 A 
ATOM     17  N   UNL     1      -2.539  13.197  20.861  0.00  0.00    +0.000 N 
ENDROOT
BRANCH  17  18
ATOM     18  C   UNL     1      -3.601  13.581  21.769  0.00  0.00    +0.000 A 
ATOM     19  C   UNL     1      -3.894  12.824  22.924  0.00  0.00    +0.000 A 
ATOM     20  C   UNL     1      -5.010  13.099  23.733  0.00  0.00    +0.000 A 
ATOM     21  C   UNL     1      -5.793  14.220  23.494  0.00  0.00    +0.000 A 
ATOM     22  C   UNL     1      -5.481  15.044  22.422  0.00  0.00    +0.000 A 
ATOM     23  C   UNL     1      -4.439  14.700  21.551  0.00  0.00    +0.000 A 
ATOM     24  F   UNL     1      -4.353  15.434  20.432  0.00  0.00    +0.000 F 
ENDBRANCH  17  18
BRANCH   4  25
ATOM     25  C   UNL     1      -5.186  12.182  19.057  0.00  0.00    +0.000 A 
ATOM     26  C   UNL     1      -5.622  12.930  17.946  0.00  0.00    +0.000 A 
ATOM     27  C   UNL     1      -6.964  13.288  17.821  0.00  0.00    +0.000 A 
ATOM     28  C   UNL     1      -7.874  12.915  18.810  0.00  0.00    +0.000 A 
ATOM     29  C   UNL     1      -7.436  12.208  19.935  0.00  0.00    +0.000 A 
ATOM     30  C   UNL     1      -6.088  11.861  20.068  0.00  0.00    +0.000 A 
ENDBRANCH   4  25
TORSDOF 2
ENDMDL
MODEL 9
REMARK VINA RESULT:      -5.8      2.793      7.029
REMARK  Name = 
REMARK  4 active torsions:
REMARK  status: ('A' for Active; 'I' for Inactive)
REMARK    1  A    between atoms: C_1  and  C_2
REMARK    2  A    between atoms: N_4  and  C_5
REMARK    3  A    between atoms: N_17  and  C_18
REMARK    4  A    between atoms: N_23  and  C_24
REMARK                            x       y       z     vdW  Elec       q    Type
REMARK                         _______ _______ _______ _____ _____    ______ ____
ROOT
ATOM      1  C   UNL     1      -4.112  15.454  24.328  0.00  0.00    +0.000 C 
ATOM      2  C   UNL     1      -3.123  15.006  23.317  0.00  0.00    +0.000 A 
ATOM      3  N   UNL     1      -1.847  15.384  23.360  0.00  0.00    +0.000 NA
ATOM      4  N   UNL     1      -1.307  14.985  22.157  0.00  0.00    +0.000 N 
ATOM      5  C   UNL     1      -2.163  14.082  21.497  0.00  0.00    +0.000 A 
ATOM      6  C   UNL     1      -3.335  14.166  22.228  0.00  0.00    +0.000 A 
ATOM      7  C   UNL     1      -4.503  13.488  21.826  0.00  0.00    +0.000 A 
ATOM      8  C   UNL     1      -4.513  12.771  20.698  0.00  0.00    +0.000 A 
ATOM      9  C   UNL     1      -5.758  12.121  20.285  0.00  0.00    +0.000 A 
ATOM     10  O   UNL     1      -6.761  12.157  20.996  0.00  0.00    +0.000 OA
ATOM     11  N   UNL     1      -5.689  11.518  19.059  0.00  0.00    +0.000 N 
ATOM     12  C   UNL     1      -6.905  10.968  18.490  0.00  0.00    +0.000 C 
ATOM     13  C   UNL     1      -4.510  11.381  18.333  0.00  0.00    +0.000 A 
ATOM     14  O   UNL     1      -4.530  10.831  17.235  0.00  0.00    +0.000 OA
ATOM     15  N   UNL     1      -3.335  11.883  18.824  0.00  0.00    +0.000 NA
ATOM     16  C   UNL     1      -3.256  12.622  19.896  0.00  0.00    +0.000 A 
ATOM     17  N   UNL     1      -2.031  13.268  20.361  0.00  0.00    +0.000 N 
ENDROOT
BRANCH  17  18
ATOM     18  C   UNL     1      -0.759  12.887  19.783  0.00  0.00    +0.000 A 
ATOM     19  C   UNL     1      -0.103  11.694  20.161  0.00  0.00    +0.000 A 
ATOM     20  C   UNL     1       1.194  11.383  19.719  0.00  0.00    +0.000 A 
ATOM     21  C   UNL     1       1.828  12.185  18.779  0.00  0.00    +0.000 A 
ATOM     22  C   UNL     1       1.177  13.317  18.310  0.00  0.00    +0.000 A 
ATOM     23  C   UNL     1      -0.066  13.684  18.840  0.00  0.00    +0.000 A 
ATOM     24  F   UNL     1      -0.513  14.897  18.486  0.00  0.00    +0.000 F 
ENDBRANCH  17  18
BRANCH   4  25
ATOM     25  C   UNL     1      -0.067  15.586  21.795  0.00  0.00    +0.000 A 
ATOM     26  C   UNL     1       1.122  14.886  22.077  0.00  0.00    +0.000 A 
ATOM     27  C   UNL     1       2.355  15.406  21.687  0.00  0.00    +0.000 A 
ATOM     28  C   UNL     1       2.411  16.634  21.028  0.00  0.00    +0.000 A 
ATOM     29  C   UNL     1       1.235  17.351  20.783  0.00  0.00    +0.000 A 
ATOM     30  C   UNL     1      -0.001  16.837  21.186  0.00  0.00    +0.000 A 
ENDBRANCH   4  25
TORSDOF 2
ENDMDL
