MODEL 1
REMARK VINA RESULT:      -7.2      0.000      0.000
REMARK  Name = 
REMARK  4 active torsions:
REMARK  status: ('A' for Active; 'I' for Inactive)
REMARK    1  A    between atoms: N_1  and  S_2
REMARK    2  A    between atoms: S_2  and  C_5
REMARK    3  A    between atoms: C_9  and  C_10
REMARK    4  A    between atoms: C_19  and  C_20
REMARK                            x       y       z     vdW  Elec       q    Type
REMARK                         _______ _______ _______ _____ _____    ______ ____
ROOT
ATOM      1  C   UNL     1      -1.797  12.523  22.674  0.00  0.00    +0.000 A 
ATOM      2  C   UNL     1      -1.294  13.504  23.547  0.00  0.00    +0.000 A 
ATOM      3  C   UNL     1      -2.102  14.530  24.037  0.00  0.00    +0.000 A 
ATOM      4  C   UNL     1      -3.435  14.623  23.655  0.00  0.00    +0.000 A 
ATOM      5  N   UNL     1      -4.180  15.690  24.207  0.00  0.00    +0.000 NA
ATOM      6  C   UNL     1      -5.426  15.803  23.874  0.00  0.00    +0.000 A 
ATOM      7  C   UNL     1      -6.027  14.882  22.970  0.00  0.00    +0.000 A 
ATOM      8  N   UNL     1      -7.268  14.902  22.563  0.00  0.00    +0.000 NA
ATOM      9  N   UNL     1      -7.415  13.846  21.713  0.00  0.00    +0.000 NA
ATOM     10  C   UNL     1      -6.261  13.202  21.606  0.00  0.00    +0.000 A 
ATOM     11  N   UNL     1      -5.331  13.837  22.419  0.00  0.00    +0.000 N 
ATOM     12  C   UNL     1      -3.965  13.660  22.760  0.00  0.00    +0.000 A 
ATOM     13  C   UNL     1      -3.155  12.624  22.286  0.00  0.00    +0.000 A 
ENDROOT
BRANCH   1  18
ATOM     14  C   UNL     1       0.427  10.335  20.500  0.00  0.00    +0.000 A 
ATOM     15  C   UNL     1       0.716   9.326  21.395  0.00  0.00    +0.000 A 
ATOM     16  N   UNL     1       0.228   9.307  22.652  0.00  0.00    +0.000 NA
ATOM     17  C   UNL     1      -0.581  10.337  23.008  0.00  0.00    +0.000 A 
ATOM     18  C   UNL     1      -0.924  11.425  22.190  0.00  0.00    +0.000 A 
ATOM     19  C   UNL     1      -0.386  11.400  20.898  0.00  0.00    +0.000 A 
BRANCH  14  20
ATOM     20  S   UNL     1       1.084  10.254  18.880  0.00  0.00    +0.000 S 
ATOM     21  O   UNL     1       1.701   8.964  18.709  0.00  0.00    +0.000 OA
ATOM     22  O   UNL     1       1.758  11.497  18.576  0.00  0.00    +0.000 OA
BRANCH  20  23
ATOM     23  N   UNL     1      -0.305  10.263  17.929  0.00  0.00    +0.000 NA
ATOM     24  H   UNL     1      -0.544   9.293  17.703  0.00  0.00    +0.000 HD
ATOM     25  H   UNL     1      -0.168  10.821  17.087  0.00  0.00    +0.000 HD
ENDBRANCH  20  23
ENDBRANCH  14  20
ENDBRANCH   1  18
BRANCH  10  26
ATOM     26  C   UNL     1      -6.095  11.988  20.738  0.00  0.00    +0.000 C 
ATOM     27  C   UNL     1      -5.739  12.394  19.293  0.00  0.00    +0.000 C 
ATOM     28  C   UNL     1      -5.720  11.182  18.374  0.00  0.00    +0.000 C 
ATOM     29  O   UNL     1      -6.968  10.495  18.424  0.00  0.00    +0.000 OA
ATOM     30  C   UNL     1      -7.269  10.006  19.728  0.00  0.00    +0.000 C 
ATOM     31  C   UNL     1      -7.382  11.153  20.723  0.00  0.00    +0.000 C 
ENDBRANCH  10  26
TORSDOF 4
ENDMDL
MODEL 2
REMARK VINA RESULT:      -7.0      4.660      6.641
REMARK  Name = 
REMARK  4 active torsions:
REMARK  status: ('A' for Active; 'I' for Inactive)
REMARK    1  A    between atoms: N_1  and  S_2
REMARK    2  A    between atoms: S_2  and  C_5
REMARK    3  A    between atoms: C_9  and  C_10
REMARK    4  A    between atoms: C_19  and  C_20
REMARK                            x       y       z     vdW  Elec       q    Type
REMARK                         _______ _______ _______ _____ _____    ______ ____
ROOT
ATOM      1  C   UNL     1       0.638  10.092  20.747  0.00  0.00    +0.000 A 
ATOM      2  C   UNL     1      -0.149   9.525  21.766  0.00  0.00    +0.000 A 
ATOM      3  C   UNL     1      -0.842  10.318  22.681  0.00  0.00    +0.000 A 
ATOM      4  C   UNL     1      -0.756  11.704  22.622  0.00  0.00    +0.000 A 
ATOM      5  N   UNL     1      -1.497  12.427  23.584  0.00  0.00    +0.000 NA
ATOM      6  C   UNL     1      -1.441  13.720  23.554  0.00  0.00    +0.000 A 
ATOM      7  C   UNL     1      -0.648  14.395  22.584  0.00  0.00    +0.000 A 
ATOM      8  N   UNL     1      -0.515  15.690  22.464  0.00  0.00    +0.000 NA
ATOM      9  N   UNL     1       0.327  15.897  21.413  0.00  0.00    +0.000 NA
ATOM     10  C   UNL     1       0.704  14.728  20.911  0.00  0.00    +0.000 A 
ATOM     11  N   UNL     1       0.081  13.722  21.638  0.00  0.00    +0.000 N 
ATOM     12  C   UNL     1       0.045  12.304  21.618  0.00  0.00    +0.000 A 
ATOM     13  C   UNL     1       0.723  11.505  20.694  0.00  0.00    +0.000 A 
ENDROOT
BRANCH   1  18
ATOM     14  C   UNL     1       2.444   7.171  19.115  0.00  0.00    +0.000 A 
ATOM     15  C   UNL     1       2.632   7.685  17.849  0.00  0.00    +0.000 A 
ATOM     16  N   UNL     1       2.219   8.919  17.496  0.00  0.00    +0.000 NA
ATOM     17  C   UNL     1       1.604   9.655  18.458  0.00  0.00    +0.000 A 
ATOM     18  C   UNL     1       1.341   9.227  19.768  0.00  0.00    +0.000 A 
ATOM     19  C   UNL     1       1.783   7.936  20.081  0.00  0.00    +0.000 A 
BRANCH  14  20
ATOM     20  S   UNL     1       3.043   5.569  19.485  0.00  0.00    +0.000 S 
ATOM     21  O   UNL     1       4.475   5.645  19.620  0.00  0.00    +0.000 OA
ATOM     22  O   UNL     1       2.382   4.604  18.635  0.00  0.00    +0.000 OA
BRANCH  20  23
ATOM     23  N   UNL     1       2.419   5.299  21.024  0.00  0.00    +0.000 NA
ATOM     24  H   UNL     1       1.429   5.055  20.930  0.00  0.00    +0.000 HD
ATOM     25  H   UNL     1       2.547   6.116  21.620  0.00  0.00    +0.000 HD
ENDBRANCH  20  23
ENDBRANCH  14  20
ENDBRANCH   1  18
BRANCH  10  26
ATOM     26  C   UNL     1       1.637  14.619  19.740  0.00  0.00    +0.000 C 
ATOM     27  C   UNL     1       3.066  14.279  20.210  0.00  0.00    +0.000 C 
ATOM     28  C   UNL     1       4.047  14.317  19.048  0.00  0.00    +0.000 C 
ATOM     29  O   UNL     1       4.006  15.585  18.398  0.00  0.00    +0.000 OA
ATOM     30  C   UNL     1       2.723  15.876  17.852  0.00  0.00    +0.000 C 
ATOM     31  C   UNL     1       1.667  15.933  18.947  0.00  0.00    +0.000 C 
ENDBRANCH  10  26
TORSDOF 4
ENDMDL
MODEL 3
REMARK VINA RESULT:      -6.9      2.685      4.963
REMARK  Name = 
REMARK  4 active torsions:
REMARK  status: ('A' for Active; 'I' for Inactive)
REMARK    1  A    between atoms: N_1  and  S_2
REMARK    2  A    between atoms: S_2  and  C_5
REMARK    3  A    between atoms: C_9  and  C_10
REMARK    4  A    between atoms: C_19  and  C_20
REMARK                            x       y       z     vdW  Elec       q    Type
REMARK                         _______ _______ _______ _____ _____    ______ ____
ROOT
ATOM      1  C   UNL     1      -2.884  11.083  18.289  0.00  0.00    +0.000 A 
ATOM      2  C   UNL     1      -3.311  10.982  16.952  0.00  0.00    +0.000 A 
ATOM      3  C   UNL     1      -4.532  11.509  16.533  0.00  0.00    +0.000 A 
ATOM      4  C   UNL     1      -5.379  12.136  17.438  0.00  0.00    +0.000 A 
ATOM      5  N   UNL     1      -6.592  12.647  16.924  0.00  0.00    +0.000 NA
ATOM      6  C   UNL     1      -7.402  13.241  17.741  0.00  0.00    +0.000 A 
ATOM      7  C   UNL     1      -7.082  13.369  19.122  0.00  0.00    +0.000 A 
ATOM      8  N   UNL     1      -7.822  13.942  20.034  0.00  0.00    +0.000 NA
ATOM      9  N   UNL     1      -7.139  13.841  21.209  0.00  0.00    +0.000 NA
ATOM     10  C   UNL     1      -5.996  13.200  21.001  0.00  0.00    +0.000 A 
ATOM     11  N   UNL     1      -5.913  12.884  19.651  0.00  0.00    +0.000 N 
ATOM     12  C   UNL     1      -4.985  12.237  18.797  0.00  0.00    +0.000 A 
ATOM     13  C   UNL     1      -3.752  11.721  19.208  0.00  0.00    +0.000 A 
ENDROOT
BRANCH   1  18
ATOM     14  C   UNL     1       0.032   9.810  20.370  0.00  0.00    +0.000 A 
ATOM     15  C   UNL     1       0.925   9.501  19.365  0.00  0.00    +0.000 A 
ATOM     16  N   UNL     1       0.644   9.687  18.059  0.00  0.00    +0.000 NA
ATOM     17  C   UNL     1      -0.575  10.210  17.767  0.00  0.00    +0.000 A 
ATOM     18  C   UNL     1      -1.567  10.540  18.703  0.00  0.00    +0.000 A 
ATOM     19  C   UNL     1      -1.228  10.320  20.043  0.00  0.00    +0.000 A 
BRANCH  14  20
ATOM     20  S   UNL     1       0.502   9.560  22.037  0.00  0.00    +0.000 S 
ATOM     21  O   UNL     1       0.357  10.810  22.738  0.00  0.00    +0.000 OA
ATOM     22  O   UNL     1       1.712   8.768  22.078  0.00  0.00    +0.000 OA
BRANCH  20  23
ATOM     23  N   UNL     1      -0.711   8.538  22.602  0.00  0.00    +0.000 NA
ATOM     24  H   UNL     1      -1.612   9.007  22.468  0.00  0.00    +0.000 HD
ATOM     25  H   UNL     1      -0.558   8.294  23.579  0.00  0.00    +0.000 HD
ENDBRANCH  20  23
ENDBRANCH  14  20
ENDBRANCH   1  18
BRANCH  10  26
ATOM     26  C   UNL     1      -5.016  12.927  22.104  0.00  0.00    +0.000 C 
ATOM     27  C   UNL     1      -5.736  12.824  23.464  0.00  0.00    +0.000 C 
ATOM     28  C   UNL     1      -4.737  12.700  24.605  0.00  0.00    +0.000 C 
ATOM     29  O   UNL     1      -3.820  13.792  24.588  0.00  0.00    +0.000 OA
ATOM     30  C   UNL     1      -3.056  13.843  23.388  0.00  0.00    +0.000 C 
ATOM     31  C   UNL     1      -3.960  14.038  22.178  0.00  0.00    +0.000 C 
ENDBRANCH  10  26
TORSDOF 4
ENDMDL
MODEL 4
REMARK VINA RESULT:      -6.8      2.954      5.001
REMARK  Name = 
REMARK  4 active torsions:
REMARK  status: ('A' for Active; 'I' for Inactive)
REMARK    1  A    between atoms: N_1  and  S_2
REMARK    2  A    between atoms: S_2  and  C_5
REMARK    3  A    between atoms: C_9  and  C_10
REMARK    4  A    between atoms: C_19  and  C_20
REMARK                            x       y       z     vdW  Elec       q    Type
REMARK                         _______ _______ _______ _____ _____    ______ ____
ROOT
ATOM      1  C   UNL     1      -2.668  11.612  18.182  0.00  0.00    +0.000 A 
ATOM      2  C   UNL     1      -3.276  11.340  16.942  0.00  0.00    +0.000 A 
ATOM      3  C   UNL     1      -4.645  11.515  16.746  0.00  0.00    +0.000 A 
ATOM      4  C   UNL     1      -5.460  11.946  17.785  0.00  0.00    +0.000 A 
ATOM      5  N   UNL     1      -6.833  12.103  17.494  0.00  0.00    +0.000 NA
ATOM      6  C   UNL     1      -7.618  12.507  18.440  0.00  0.00    +0.000 A 
ATOM      7  C   UNL     1      -7.112  12.779  19.743  0.00  0.00    +0.000 A 
ATOM      8  N   UNL     1      -7.810  13.187  20.770  0.00  0.00    +0.000 NA
ATOM      9  N   UNL     1      -6.934  13.322  21.805  0.00  0.00    +0.000 NA
ATOM     10  C   UNL     1      -5.716  12.987  21.399  0.00  0.00    +0.000 A 
ATOM     11  N   UNL     1      -5.785  12.638  20.057  0.00  0.00    +0.000 N 
ATOM     12  C   UNL     1      -4.879  12.210  19.053  0.00  0.00    +0.000 A 
ATOM     13  C   UNL     1      -3.504  12.049  19.239  0.00  0.00    +0.000 A 
ENDROOT
BRANCH   1  18
ATOM     14  C   UNL     1       1.024  12.304  18.765  0.00  0.00    +0.000 A 
ATOM     15  C   UNL     1       1.522  11.019  18.687  0.00  0.00    +0.000 A 
ATOM     16  N   UNL     1       0.738   9.948  18.449  0.00  0.00    +0.000 NA
ATOM     17  C   UNL     1      -0.587  10.189  18.278  0.00  0.00    +0.000 A 
ATOM     18  C   UNL     1      -1.205  11.446  18.357  0.00  0.00    +0.000 A 
ATOM     19  C   UNL     1      -0.348  12.523  18.614  0.00  0.00    +0.000 A 
BRANCH  14  20
ATOM     20  S   UNL     1       2.128  13.632  19.048  0.00  0.00    +0.000 S 
ATOM     21  O   UNL     1       2.778  13.415  20.315  0.00  0.00    +0.000 OA
ATOM     22  O   UNL     1       1.477  14.876  18.699  0.00  0.00    +0.000 OA
BRANCH  20  23
ATOM     23  N   UNL     1       3.289  13.394  17.854  0.00  0.00    +0.000 NA
ATOM     24  H   UNL     1       4.214  13.463  18.288  0.00  0.00    +0.000 HD
ATOM     25  H   UNL     1       3.180  14.068  17.097  0.00  0.00    +0.000 HD
ENDBRANCH  20  23
ENDBRANCH  14  20
ENDBRANCH   1  18
BRANCH  10  26
ATOM     26  C   UNL     1      -4.525  13.028  22.312  0.00  0.00    +0.000 C 
ATOM     27  C   UNL     1      -4.958  12.885  23.785  0.00  0.00    +0.000 C 
ATOM     28  C   UNL     1      -3.778  13.079  24.724  0.00  0.00    +0.000 C 
ATOM     29  O   UNL     1      -3.153  14.339  24.491  0.00  0.00    +0.000 OA
ATOM     30  C   UNL     1      -2.639  14.456  23.168  0.00  0.00    +0.000 C 
ATOM     31  C   UNL     1      -3.757  14.346  22.140  0.00  0.00    +0.000 C 
ENDBRANCH  10  26
TORSDOF 4
ENDMDL
MODEL 5
REMARK VINA RESULT:      -6.8      6.200     11.206
REMARK  Name = 
REMARK  4 active torsions:
REMARK  status: ('A' for Active; 'I' for Inactive)
REMARK    1  A    between atoms: N_1  and  S_2
REMARK    2  A    between atoms: S_2  and  C_5
REMARK    3  A    between atoms: C_9  and  C_10
REMARK    4  A    between atoms: C_19  and  C_20
REMARK                            x       y       z     vdW  Elec       q    Type
REMARK                         _______ _______ _______ _____ _____    ______ ____
ROOT
ATOM      1  C   UNL     1       1.856   7.576  19.639  0.00  0.00    +0.000 A 
ATOM      2  C   UNL     1       0.950   7.203  20.649  0.00  0.00    +0.000 A 
ATOM      3  C   UNL     1       1.005   5.947  21.253  0.00  0.00    +0.000 A 
ATOM      4  C   UNL     1       1.953   5.012  20.856  0.00  0.00    +0.000 A 
ATOM      5  N   UNL     1       1.941   3.769  21.528  0.00  0.00    +0.000 NA
ATOM      6  C   UNL     1       2.814   2.878  21.183  0.00  0.00    +0.000 A 
ATOM      7  C   UNL     1       3.757   3.140  20.150  0.00  0.00    +0.000 A 
ATOM      8  N   UNL     1       4.676   2.317  19.719  0.00  0.00    +0.000 NA
ATOM      9  N   UNL     1       5.351   2.970  18.732  0.00  0.00    +0.000 NA
ATOM     10  C   UNL     1       4.830   4.179  18.567  0.00  0.00    +0.000 A 
ATOM     11  N   UNL     1       3.795   4.336  19.480  0.00  0.00    +0.000 N 
ATOM     12  C   UNL     1       2.868   5.352  19.827  0.00  0.00    +0.000 A 
ATOM     13  C   UNL     1       2.819   6.618  19.237  0.00  0.00    +0.000 A 
ENDROOT
BRANCH   1  18
ATOM     14  C   UNL     1       0.852  11.149  18.817  0.00  0.00    +0.000 A 
ATOM     15  C   UNL     1       1.784  11.440  17.842  0.00  0.00    +0.000 A 
ATOM     16  N   UNL     1       2.708  10.548  17.430  0.00  0.00    +0.000 NA
ATOM     17  C   UNL     1       2.680   9.325  18.020  0.00  0.00    +0.000 A 
ATOM     18  C   UNL     1       1.795   8.928  19.034  0.00  0.00    +0.000 A 
ATOM     19  C   UNL     1       0.861   9.893  19.430  0.00  0.00    +0.000 A 
BRANCH  14  20
ATOM     20  S   UNL     1      -0.327  12.364  19.262  0.00  0.00    +0.000 S 
ATOM     21  O   UNL     1       0.381  13.526  19.733  0.00  0.00    +0.000 OA
ATOM     22  O   UNL     1      -1.399  11.739  20.005  0.00  0.00    +0.000 OA
BRANCH  20  23
ATOM     23  N   UNL     1      -1.002  12.770  17.775  0.00  0.00    +0.000 NA
ATOM     24  H   UNL     1      -0.883  11.974  17.142  0.00  0.00    +0.000 HD
ATOM     25  H   UNL     1      -0.574  13.615  17.398  0.00  0.00    +0.000 HD
ENDBRANCH  20  23
ENDBRANCH  14  20
ENDBRANCH   1  18
BRANCH  10  26
ATOM     26  C   UNL     1       5.354   5.148  17.547  0.00  0.00    +0.000 C 
ATOM     27  C   UNL     1       5.763   4.414  16.254  0.00  0.00    +0.000 C 
ATOM     28  C   UNL     1       6.436   5.364  15.275  0.00  0.00    +0.000 C 
ATOM     29  O   UNL     1       7.558   5.999  15.884  0.00  0.00    +0.000 OA
ATOM     30  C   UNL     1       7.193   6.781  17.017  0.00  0.00    +0.000 C 
ATOM     31  C   UNL     1       6.568   5.910  18.098  0.00  0.00    +0.000 C 
ENDBRANCH  10  26
TORSDOF 4
ENDMDL
MODEL 6
REMARK VINA RESULT:      -6.7     10.419     13.585
REMARK  Name = 
REMARK  4 active torsions:
REMARK  status: ('A' for Active; 'I' for Inactive)
REMARK    1  A    between atoms: N_1  and  S_2
REMARK    2  A    between atoms: S_2  and  C_5
REMARK    3  A    between atoms: C_9  and  C_10
REMARK    4  A    between atoms: C_19  and  C_20
REMARK                            x       y       z     vdW  Elec       q    Type
REMARK                         _______ _______ _______ _____ _____    ______ ____
ROOT
ATOM      1  C   UNL     1       9.300  12.785  21.237  0.00  0.00    +0.000 A 
ATOM      2  C   UNL     1      10.290  11.810  21.019  0.00  0.00    +0.000 A 
ATOM      3  C   UNL     1      11.210  11.923  19.976  0.00  0.00    +0.000 A 
ATOM      4  C   UNL     1      11.159  13.001  19.102  0.00  0.00    +0.000 A 
ATOM      5  N   UNL     1      12.134  13.038  18.080  0.00  0.00    +0.000 NA
ATOM      6  C   UNL     1      12.116  14.031  17.251  0.00  0.00    +0.000 A 
ATOM      7  C   UNL     1      11.135  15.057  17.362  0.00  0.00    +0.000 A 
ATOM      8  N   UNL     1      11.020  16.100  16.582  0.00  0.00    +0.000 NA
ATOM      9  N   UNL     1       9.957  16.815  17.045  0.00  0.00    +0.000 NA
ATOM     10  C   UNL     1       9.431  16.196  18.094  0.00  0.00    +0.000 A 
ATOM     11  N   UNL     1      10.176  15.051  18.342  0.00  0.00    +0.000 N 
ATOM     12  C   UNL     1      10.159  13.991  19.284  0.00  0.00    +0.000 A 
ATOM     13  C   UNL     1       9.251  13.881  20.341  0.00  0.00    +0.000 A 
ENDROOT
BRANCH   1  18
ATOM     14  C   UNL     1       6.622  13.511  23.836  0.00  0.00    +0.000 A 
ATOM     15  C   UNL     1       6.603  12.303  24.502  0.00  0.00    +0.000 A 
ATOM     16  N   UNL     1       7.409  11.275  24.167  0.00  0.00    +0.000 NA
ATOM     17  C   UNL     1       8.263  11.482  23.131  0.00  0.00    +0.000 A 
ATOM     18  C   UNL     1       8.352  12.657  22.371  0.00  0.00    +0.000 A 
ATOM     19  C   UNL     1       7.489  13.691  22.754  0.00  0.00    +0.000 A 
BRANCH  14  20
ATOM     20  S   UNL     1       5.557  14.795  24.365  0.00  0.00    +0.000 S 
ATOM     21  O   UNL     1       6.258  16.046  24.228  0.00  0.00    +0.000 OA
ATOM     22  O   UNL     1       4.895  14.393  25.586  0.00  0.00    +0.000 OA
BRANCH  20  23
ATOM     23  N   UNL     1       4.356  14.775  23.187  0.00  0.00    +0.000 NA
ATOM     24  H   UNL     1       3.483  14.467  23.625  0.00  0.00    +0.000 HD
ATOM     25  H   UNL     1       4.617  14.170  22.409  0.00  0.00    +0.000 HD
ENDBRANCH  20  23
ENDBRANCH  14  20
ENDBRANCH   1  18
BRANCH  10  26
ATOM     26  C   UNL     1       8.239  16.734  18.831  0.00  0.00    +0.000 C 
ATOM     27  C   UNL     1       8.570  16.950  20.322  0.00  0.00    +0.000 C 
ATOM     28  C   UNL     1       7.328  17.348  21.105  0.00  0.00    +0.000 C 
ATOM     29  O   UNL     1       6.298  16.376  20.941  0.00  0.00    +0.000 OA
ATOM     30  C   UNL     1       5.891  16.238  19.583  0.00  0.00    +0.000 C 
ATOM     31  C   UNL     1       7.050  15.770  18.714  0.00  0.00    +0.000 C 
ENDBRANCH  10  26
TORSDOF 4
ENDMDL
MODEL 7
REMARK VINA RESULT:      -6.6      2.592      4.857
REMARK  Name = 
REMARK  4 active torsions:
REMARK  status: ('A' for Active; 'I' for Inactive)
REMARK    1  A    between atoms: N_1  and  S_2
REMARK    2  A    between atoms: S_2  and  C_5
REMARK    3  A    between atoms: C_9  and  C_10
REMARK    4  A    between atoms: C_19  and  C_20
REMARK                            x       y       z     vdW  Elec       q    Type
REMARK                         _______ _______ _______ _____ _____    ______ ____
ROOT
ATOM      1  C   UNL     1      -2.651  11.394  18.575  0.00  0.00    +0.000 A 
ATOM      2  C   UNL     1      -3.119  11.198  17.262  0.00  0.00    +0.000 A 
ATOM      3  C   UNL     1      -4.430  11.506  16.899  0.00  0.00    +0.000 A 
ATOM      4  C   UNL     1      -5.326  12.000  17.839  0.00  0.00    +0.000 A 
ATOM      5  N   UNL     1      -6.630  12.292  17.381  0.00  0.00    +0.000 NA
ATOM      6  C   UNL     1      -7.488  12.758  18.231  0.00  0.00    +0.000 A 
ATOM      7  C   UNL     1      -7.129  12.964  19.592  0.00  0.00    +0.000 A 
ATOM      8  N   UNL     1      -7.910  13.424  20.534  0.00  0.00    +0.000 NA
ATOM      9  N   UNL     1      -7.165  13.461  21.674  0.00  0.00    +0.000 NA
ATOM     10  C   UNL     1      -5.942  13.015  21.416  0.00  0.00    +0.000 A 
ATOM     11  N   UNL     1      -5.872  12.692  20.067  0.00  0.00    +0.000 N 
ATOM     12  C   UNL     1      -4.889  12.191  19.175  0.00  0.00    +0.000 A 
ATOM     13  C   UNL     1      -3.570  11.897  19.529  0.00  0.00    +0.000 A 
ENDROOT
BRANCH   1  18
ATOM     14  C   UNL     1       0.454   9.794  20.074  0.00  0.00    +0.000 A 
ATOM     15  C   UNL     1       1.429  10.590  19.509  0.00  0.00    +0.000 A 
ATOM     16  N   UNL     1       1.141  11.615  18.682  0.00  0.00    +0.000 NA
ATOM     17  C   UNL     1      -0.174  11.843  18.427  0.00  0.00    +0.000 A 
ATOM     18  C   UNL     1      -1.244  11.087  18.928  0.00  0.00    +0.000 A 
ATOM     19  C   UNL     1      -0.891  10.030  19.775  0.00  0.00    +0.000 A 
BRANCH  14  20
ATOM     20  S   UNL     1       0.927   8.505  21.160  0.00  0.00    +0.000 S 
ATOM     21  O   UNL     1       1.834   7.635  20.457  0.00  0.00    +0.000 OA
ATOM     22  O   UNL     1      -0.240   8.024  21.866  0.00  0.00    +0.000 OA
BRANCH  20  23
ATOM     23  N   UNL     1       1.832   9.326  22.317  0.00  0.00    +0.000 NA
ATOM     24  H   UNL     1       2.444   9.989  21.833  0.00  0.00    +0.000 HD
ATOM     25  H   UNL     1       2.367   8.676  22.892  0.00  0.00    +0.000 HD
ENDBRANCH  20  23
ENDBRANCH  14  20
ENDBRANCH   1  18
BRANCH  10  26
ATOM     26  C   UNL     1      -4.878  12.931  22.472  0.00  0.00    +0.000 C 
ATOM     27  C   UNL     1      -5.499  12.631  23.851  0.00  0.00    +0.000 C 
ATOM     28  C   UNL     1      -4.448  12.695  24.950  0.00  0.00    +0.000 C 
ATOM     29  O   UNL     1      -3.793  13.961  24.943  0.00  0.00    +0.000 OA
ATOM     30  C   UNL     1      -3.112  14.216  23.719  0.00  0.00    +0.000 C 
ATOM     31  C   UNL     1      -4.088  14.244  22.551  0.00  0.00    +0.000 C 
ENDBRANCH  10  26
TORSDOF 4
ENDMDL
MODEL 8
REMARK VINA RESULT:      -6.6      6.292     11.458
REMARK  Name = 
REMARK  4 active torsions:
REMARK  status: ('A' for Active; 'I' for Inactive)
REMARK    1  A    between atoms: N_1  and  S_2
REMARK    2  A    between atoms: S_2  and  C_5
REMARK    3  A    between atoms: C_9  and  C_10
REMARK    4  A    between atoms: C_19  and  C_20
REMARK                            x       y       z     vdW  Elec       q    Type
REMARK                         _______ _______ _______ _____ _____    ______ ____
ROOT
ATOM      1  C   UNL     1       1.722   6.822  19.470  0.00  0.00    +0.000 A 
ATOM      2  C   UNL     1       0.853   6.342  20.466  0.00  0.00    +0.000 A 
ATOM      3  C   UNL     1       0.805   4.990  20.807  0.00  0.00    +0.000 A 
ATOM      4  C   UNL     1       1.609   4.067  20.150  0.00  0.00    +0.000 A 
ATOM      5  N   UNL     1       1.501   2.721  20.565  0.00  0.00    +0.000 NA
ATOM      6  C   UNL     1       2.240   1.837  19.975  0.00  0.00    +0.000 A 
ATOM      7  C   UNL     1       3.131   2.209  18.930  0.00  0.00    +0.000 A 
ATOM      8  N   UNL     1       3.918   1.405  18.265  0.00  0.00    +0.000 NA
ATOM      9  N   UNL     1       4.592   2.176  17.366  0.00  0.00    +0.000 NA
ATOM     10  C   UNL     1       4.203   3.438  17.488  0.00  0.00    +0.000 A 
ATOM     11  N   UNL     1       3.260   3.507  18.505  0.00  0.00    +0.000 N 
ATOM     12  C   UNL     1       2.483   4.518  19.127  0.00  0.00    +0.000 A 
ATOM     13  C   UNL     1       2.538   5.875  18.801  0.00  0.00    +0.000 A 
ENDROOT
BRANCH   1  18
ATOM     14  C   UNL     1       1.367  10.602  19.652  0.00  0.00    +0.000 A 
ATOM     15  C   UNL     1       1.942  10.954  18.448  0.00  0.00    +0.000 A 
ATOM     16  N   UNL     1       2.427  10.043  17.580  0.00  0.00    +0.000 NA
ATOM     17  C   UNL     1       2.319   8.738  17.942  0.00  0.00    +0.000 A 
ATOM     18  C   UNL     1       1.775   8.268  19.147  0.00  0.00    +0.000 A 
ATOM     19  C   UNL     1       1.293   9.255  20.015  0.00  0.00    +0.000 A 
BRANCH  14  20
ATOM     20  S   UNL     1       0.738  11.857  20.697  0.00  0.00    +0.000 S 
ATOM     21  O   UNL     1      -0.471  12.371  20.106  0.00  0.00    +0.000 OA
ATOM     22  O   UNL     1       1.826  12.706  21.131  0.00  0.00    +0.000 OA
BRANCH  20  23
ATOM     23  N   UNL     1       0.284  10.990  22.066  0.00  0.00    +0.000 NA
ATOM     24  H   UNL     1      -0.353  11.572  22.617  0.00  0.00    +0.000 HD
ATOM     25  H   UNL     1       1.100  10.710  22.609  0.00  0.00    +0.000 HD
ENDBRANCH  20  23
ENDBRANCH  14  20
ENDBRANCH   1  18
BRANCH  10  26
ATOM     26  C   UNL     1       4.762   4.538  16.633  0.00  0.00    +0.000 C 
ATOM     27  C   UNL     1       5.621   3.959  15.490  0.00  0.00    +0.000 C 
ATOM     28  C   UNL     1       6.315   5.067  14.712  0.00  0.00    +0.000 C 
ATOM     29  O   UNL     1       7.098   5.878  15.585  0.00  0.00    +0.000 OA
ATOM     30  C   UNL     1       6.311   6.519  16.584  0.00  0.00    +0.000 C 
ATOM     31  C   UNL     1       5.622   5.493  17.473  0.00  0.00    +0.000 C 
ENDBRANCH  10  26
TORSDOF 4
ENDMDL
MODEL 9
REMARK VINA RESULT:      -6.6      3.631      5.342
REMARK  Name = 
REMARK  4 active torsions:
REMARK  status: ('A' for Active; 'I' for Inactive)
REMARK    1  A    between atoms: N_1  and  S_2
REMARK    2  A    between atoms: S_2  and  C_5
REMARK    3  A    between atoms: C_9  and  C_10
REMARK    4  A    between atoms: C_19  and  C_20
REMARK                            x       y       z     vdW  Elec       q    Type
REMARK                         _______ _______ _______ _____ _____    ______ ____
ROOT
ATOM      1  C   UNL     1       1.019   8.963  20.624  0.00  0.00    +0.000 A 
ATOM      2  C   UNL     1       1.301   8.957  22.002  0.00  0.00    +0.000 A 
ATOM      3  C   UNL     1       0.567   9.732  22.901  0.00  0.00    +0.000 A 
ATOM      4  C   UNL     1      -0.458  10.554  22.452  0.00  0.00    +0.000 A 
ATOM      5  N   UNL     1      -1.153  11.297  23.434  0.00  0.00    +0.000 NA
ATOM      6  C   UNL     1      -2.116  12.070  23.049  0.00  0.00    +0.000 A 
ATOM      7  C   UNL     1      -2.463  12.176  21.672  0.00  0.00    +0.000 A 
ATOM      8  N   UNL     1      -3.411  12.924  21.172  0.00  0.00    +0.000 NA
ATOM      9  N   UNL     1      -3.396  12.719  19.825  0.00  0.00    +0.000 NA
ATOM     10  C   UNL     1      -2.435  11.857  19.519  0.00  0.00    +0.000 A 
ATOM     11  N   UNL     1      -1.809  11.468  20.696  0.00  0.00    +0.000 N 
ATOM     12  C   UNL     1      -0.754  10.596  21.066  0.00  0.00    +0.000 A 
ATOM     13  C   UNL     1      -0.027   9.805  20.172  0.00  0.00    +0.000 A 
ENDROOT
BRANCH   1  18
ATOM     14  C   UNL     1       2.928   6.051  19.097  0.00  0.00    +0.000 A 
ATOM     15  C   UNL     1       3.228   6.585  17.861  0.00  0.00    +0.000 A 
ATOM     16  N   UNL     1       2.859   7.830  17.498  0.00  0.00    +0.000 NA
ATOM     17  C   UNL     1       2.172   8.555  18.417  0.00  0.00    +0.000 A 
ATOM     18  C   UNL     1       1.794   8.107  19.692  0.00  0.00    +0.000 A 
ATOM     19  C   UNL     1       2.195   6.806  20.017  0.00  0.00    +0.000 A 
BRANCH  14  20
ATOM     20  S   UNL     1       3.477   4.435  19.486  0.00  0.00    +0.000 S 
ATOM     21  O   UNL     1       2.755   3.982  20.647  0.00  0.00    +0.000 OA
ATOM     22  O   UNL     1       4.919   4.385  19.385  0.00  0.00    +0.000 OA
BRANCH  20  23
ATOM     23  N   UNL     1       2.913   3.540  18.178  0.00  0.00    +0.000 NA
ATOM     24  H   UNL     1       3.601   3.609  17.422  0.00  0.00    +0.000 HD
ATOM     25  H   UNL     1       1.995   3.867  17.879  0.00  0.00    +0.000 HD
ENDBRANCH  20  23
ENDBRANCH  14  20
ENDBRANCH   1  18
BRANCH  10  26
ATOM     26  C   UNL     1      -2.161  11.425  18.108  0.00  0.00    +0.000 C 
ATOM     27  C   UNL     1      -3.371  11.725  17.199  0.00  0.00    +0.000 C 
ATOM     28  C   UNL     1      -3.163  11.154  15.805  0.00  0.00    +0.000 C 
ATOM     29  O   UNL     1      -2.903   9.753  15.871  0.00  0.00    +0.000 OA
ATOM     30  C   UNL     1      -1.723   9.452  16.610  0.00  0.00    +0.000 C 
ATOM     31  C   UNL     1      -1.852   9.923  18.052  0.00  0.00    +0.000 C 
ENDBRANCH  10  26
TORSDOF 4
ENDMDL
