MODEL 1
REMARK VINA RESULT:      -7.9      0.000      0.000
REMARK  Name = 
REMARK  12 active torsions:
REMARK  status: ('A' for Active; 'I' for Inactive)
REMARK    1  A    between atoms: C_1  and  O_2
REMARK    2  A    between atoms: O_2  and  C_3
REMARK    3  A    between atoms: C_8  and  C_9
REMARK    4  A    between atoms: N_11  and  C_12
REMARK    5  A    between atoms: C_12  and  C_13
REMARK    6  A    between atoms: C_13  and  C_14
REMARK    7  A    between atoms: C_14  and  O_16
REMARK    8  A    between atoms: O_16  and  C_17
REMARK    9  A    between atoms: C_17  and  C_18
REMARK   10  A    between atoms: N_20  and  C_21
REMARK   11  A    between atoms: C_24  and  S_25
REMARK   12  A    between atoms: S_25  and  N_26
REMARK                            x       y       z     vdW  Elec       q    Type
REMARK                         _______ _______ _______ _____ _____    ______ ____
ROOT
ATOM      1  O   UNL     1       7.498   6.623  16.727  0.00  0.00    +0.000 OA
ENDROOT
BRANCH   1   2
ATOM      2  C   UNL     1       7.118   5.315  16.721  0.00  0.00    +0.000 C 
ATOM      3  O   UNL     1       7.783   4.416  17.222  0.00  0.00    +0.000 OA
BRANCH   2   4
ATOM      4  C   UNL     1       5.840   5.127  15.955  0.00  0.00    +0.000 C 
BRANCH   4   5
ATOM      5  C   UNL     1       5.340   3.697  16.133  0.00  0.00    +0.000 C 
BRANCH   5   8
ATOM      6  C   UNL     1       3.379   3.321  17.595  0.00  0.00    +0.000 C 
ATOM      7  O   UNL     1       2.621   3.305  16.627  0.00  0.00    +0.000 OA
ATOM      8  N   UNL     1       4.740   3.458  17.436  0.00  0.00    +0.000 N 
ATOM      9  H   UNL     1       5.320   3.461  18.268  0.00  0.00    +0.000 HD
BRANCH   6  15
ATOM     10  C   UNL     1       3.494   2.683  20.113  0.00  0.00    +0.000 A 
ATOM     11  C   UNL     1       2.832   2.661  21.356  0.00  0.00    +0.000 A 
ATOM     12  C   UNL     1       1.543   3.175  21.501  0.00  0.00    +0.000 A 
ATOM     13  C   UNL     1       0.886   3.707  20.403  0.00  0.00    +0.000 A 
ATOM     14  C   UNL     1       1.517   3.720  19.161  0.00  0.00    +0.000 A 
ATOM     15  C   UNL     1       2.823   3.210  18.989  0.00  0.00    +0.000 A 
BRANCH  10  17
ATOM     16  C   UNL     1       5.213   1.281  20.968  0.00  0.00    +0.000 C 
ATOM     17  O   UNL     1       4.766   2.185  19.955  0.00  0.00    +0.000 OA
ENDBRANCH  10  17
ENDBRANCH   6  15
ENDBRANCH   5   8
ENDBRANCH   4   5
ENDBRANCH   2   4
ENDBRANCH   1   2
BRANCH   1  18
ATOM     18  C   UNL     1       7.946   7.112  17.991  0.00  0.00    +0.000 C 
BRANCH  18  19
ATOM     19  C   UNL     1       8.094   8.630  18.014  0.00  0.00    +0.000 C 
ATOM     20  O   UNL     1       7.392   9.323  17.278  0.00  0.00    +0.000 OA
ATOM     21  N   UNL     1       9.069   9.098  18.885  0.00  0.00    +0.000 N 
ATOM     22  H   UNL     1       9.720   8.404  19.256  0.00  0.00    +0.000 HD
BRANCH  21  23
ATOM     23  C   UNL     1       9.338  10.460  19.164  0.00  0.00    +0.000 A 
ATOM     24  C   UNL     1       9.332  10.967  20.468  0.00  0.00    +0.000 A 
ATOM     25  C   UNL     1       9.628  12.308  20.713  0.00  0.00    +0.000 A 
ATOM     26  C   UNL     1       9.950  13.147  19.653  0.00  0.00    +0.000 A 
ATOM     27  C   UNL     1       9.936  12.669  18.339  0.00  0.00    +0.000 A 
ATOM     28  C   UNL     1       9.641  11.319  18.100  0.00  0.00    +0.000 A 
BRANCH  26  29
ATOM     29  S   UNL     1      10.412  14.817  19.998  0.00  0.00    +0.000 S 
ATOM     30  O   UNL     1       9.458  15.402  20.903  0.00  0.00    +0.000 OA
ATOM     31  O   UNL     1      11.843  14.891  20.203  0.00  0.00    +0.000 OA
BRANCH  29  32
ATOM     32  N   UNL     1      10.125  15.527  18.498  0.00  0.00    +0.000 NA
ATOM     33  H   UNL     1      10.304  14.859  17.751  0.00  0.00    +0.000 HD
ATOM     34  H   UNL     1       9.197  15.953  18.476  0.00  0.00    +0.000 HD
ENDBRANCH  29  32
ENDBRANCH  26  29
ENDBRANCH  21  23
ENDBRANCH  18  19
ENDBRANCH   1  18
TORSDOF 11
ENDMDL
MODEL 2
REMARK VINA RESULT:      -7.6      4.704      7.635
REMARK  Name = 
REMARK  12 active torsions:
REMARK  status: ('A' for Active; 'I' for Inactive)
REMARK    1  A    between atoms: C_1  and  O_2
REMARK    2  A    between atoms: O_2  and  C_3
REMARK    3  A    between atoms: C_8  and  C_9
REMARK    4  A    between atoms: N_11  and  C_12
REMARK    5  A    between atoms: C_12  and  C_13
REMARK    6  A    between atoms: C_13  and  C_14
REMARK    7  A    between atoms: C_14  and  O_16
REMARK    8  A    between atoms: O_16  and  C_17
REMARK    9  A    between atoms: C_17  and  C_18
REMARK   10  A    between atoms: N_20  and  C_21
REMARK   11  A    between atoms: C_24  and  S_25
REMARK   12  A    between atoms: S_25  and  N_26
REMARK                            x       y       z     vdW  Elec       q    Type
REMARK                         _______ _______ _______ _____ _____    ______ ____
ROOT
ATOM      1  O   UNL     1       3.425   2.776  21.374  0.00  0.00    +0.000 OA
ENDROOT
BRANCH   1   2
ATOM      2  C   UNL     1       4.045   2.110  20.360  0.00  0.00    +0.000 C 
ATOM      3  O   UNL     1       5.240   1.840  20.362  0.00  0.00    +0.000 OA
BRANCH   2   4
ATOM      4  C   UNL     1       3.094   1.837  19.231  0.00  0.00    +0.000 C 
BRANCH   4   5
ATOM      5  C   UNL     1       3.619   2.478  17.950  0.00  0.00    +0.000 C 
BRANCH   5   8
ATOM      6  C   UNL     1       5.415   4.039  17.270  0.00  0.00    +0.000 C 
ATOM      7  O   UNL     1       5.493   3.515  16.161  0.00  0.00    +0.000 OA
ATOM      8  N   UNL     1       4.483   3.622  18.195  0.00  0.00    +0.000 N 
ATOM      9  H   UNL     1       4.459   4.091  19.094  0.00  0.00    +0.000 HD
BRANCH   6  15
ATOM     10  C   UNL     1       6.598   6.327  16.916  0.00  0.00    +0.000 A 
ATOM     11  C   UNL     1       7.514   7.272  17.418  0.00  0.00    +0.000 A 
ATOM     12  C   UNL     1       8.168   7.074  18.635  0.00  0.00    +0.000 A 
ATOM     13  C   UNL     1       7.928   5.921  19.366  0.00  0.00    +0.000 A 
ATOM     14  C   UNL     1       7.039   4.966  18.876  0.00  0.00    +0.000 A 
ATOM     15  C   UNL     1       6.362   5.145  17.650  0.00  0.00    +0.000 A 
BRANCH  10  17
ATOM     16  C   UNL     1       4.627   7.063  15.808  0.00  0.00    +0.000 C 
ATOM     17  O   UNL     1       5.943   6.510  15.721  0.00  0.00    +0.000 OA
ENDBRANCH  10  17
ENDBRANCH   6  15
ENDBRANCH   5   8
ENDBRANCH   4   5
ENDBRANCH   2   4
ENDBRANCH   1   2
BRANCH   1  18
ATOM     18  C   UNL     1       2.001   2.824  21.277  0.00  0.00    +0.000 C 
BRANCH  18  19
ATOM     19  C   UNL     1       1.503   4.101  20.606  0.00  0.00    +0.000 C 
ATOM     20  O   UNL     1       0.410   4.108  20.043  0.00  0.00    +0.000 OA
ATOM     21  N   UNL     1       2.386   5.170  20.681  0.00  0.00    +0.000 N 
ATOM     22  H   UNL     1       3.341   4.954  20.977  0.00  0.00    +0.000 HD
BRANCH  21  23
ATOM     23  C   UNL     1       2.127   6.486  20.227  0.00  0.00    +0.000 A 
ATOM     24  C   UNL     1       2.520   6.928  18.961  0.00  0.00    +0.000 A 
ATOM     25  C   UNL     1       2.225   8.222  18.533  0.00  0.00    +0.000 A 
ATOM     26  C   UNL     1       1.516   9.078  19.366  0.00  0.00    +0.000 A 
ATOM     27  C   UNL     1       1.135   8.667  20.647  0.00  0.00    +0.000 A 
ATOM     28  C   UNL     1       1.432   7.364  21.070  0.00  0.00    +0.000 A 
BRANCH  26  29
ATOM     29  S   UNL     1       1.073  10.679  18.766  0.00  0.00    +0.000 S 
ATOM     30  O   UNL     1       2.171  11.231  18.015  0.00  0.00    +0.000 OA
ATOM     31  O   UNL     1      -0.287  10.652  18.272  0.00  0.00    +0.000 OA
BRANCH  29  32
ATOM     32  N   UNL     1       1.020  11.542  20.211  0.00  0.00    +0.000 NA
ATOM     33  H   UNL     1       0.701  10.942  20.969  0.00  0.00    +0.000 HD
ATOM     34  H   UNL     1       1.914  12.006  20.383  0.00  0.00    +0.000 HD
ENDBRANCH  29  32
ENDBRANCH  26  29
ENDBRANCH  21  23
ENDBRANCH  18  19
ENDBRANCH   1  18
TORSDOF 11
ENDMDL
MODEL 3
REMARK VINA RESULT:      -7.6      5.525      6.491
REMARK  Name = 
REMARK  12 active torsions:
REMARK  status: ('A' for Active; 'I' for Inactive)
REMARK    1  A    between atoms: C_1  and  O_2
REMARK    2  A    between atoms: O_2  and  C_3
REMARK    3  A    between atoms: C_8  and  C_9
REMARK    4  A    between atoms: N_11  and  C_12
REMARK    5  A    between atoms: C_12  and  C_13
REMARK    6  A    between atoms: C_13  and  C_14
REMARK    7  A    between atoms: C_14  and  O_16
REMARK    8  A    between atoms: O_16  and  C_17
REMARK    9  A    between atoms: C_17  and  C_18
REMARK   10  A    between atoms: N_20  and  C_21
REMARK   11  A    between atoms: C_24  and  S_25
REMARK   12  A    between atoms: S_25  and  N_26
REMARK                            x       y       z     vdW  Elec       q    Type
REMARK                         _______ _______ _______ _____ _____    ______ ____
ROOT
ATOM      1  O   UNL     1       6.307   6.298  16.101  0.00  0.00    +0.000 OA
ENDROOT
BRANCH   1   2
ATOM      2  C   UNL     1       6.563   5.299  15.210  0.00  0.00    +0.000 C 
ATOM      3  O   UNL     1       7.524   5.302  14.450  0.00  0.00    +0.000 OA
BRANCH   2   4
ATOM      4  C   UNL     1       5.477   4.263  15.233  0.00  0.00    +0.000 C 
BRANCH   4   5
ATOM      5  C   UNL     1       5.665   3.349  16.440  0.00  0.00    +0.000 C 
BRANCH   5   8
ATOM      6  C   UNL     1       4.651   3.530  18.690  0.00  0.00    +0.000 C 
ATOM      7  O   UNL     1       5.738   3.812  19.191  0.00  0.00    +0.000 OA
ATOM      8  N   UNL     1       4.518   3.336  17.333  0.00  0.00    +0.000 N 
ATOM      9  H   UNL     1       3.597   3.108  16.971  0.00  0.00    +0.000 HD
BRANCH   6  15
ATOM     10  C   UNL     1       2.148   3.879  19.301  0.00  0.00    +0.000 A 
ATOM     11  C   UNL     1       1.112   3.629  20.221  0.00  0.00    +0.000 A 
ATOM     12  C   UNL     1       1.330   2.867  21.369  0.00  0.00    +0.000 A 
ATOM     13  C   UNL     1       2.591   2.352  21.625  0.00  0.00    +0.000 A 
ATOM     14  C   UNL     1       3.633   2.604  20.735  0.00  0.00    +0.000 A 
ATOM     15  C   UNL     1       3.437   3.369  19.564  0.00  0.00    +0.000 A 
BRANCH  10  17
ATOM     16  C   UNL     1       0.985   4.111  17.240  0.00  0.00    +0.000 C 
ATOM     17  O   UNL     1       1.948   4.625  18.162  0.00  0.00    +0.000 OA
ENDBRANCH  10  17
ENDBRANCH   6  15
ENDBRANCH   5   8
ENDBRANCH   4   5
ENDBRANCH   2   4
ENDBRANCH   1   2
BRANCH   1  18
ATOM     18  C   UNL     1       4.984   6.831  16.040  0.00  0.00    +0.000 C 
BRANCH  18  19
ATOM     19  C   UNL     1       4.388   7.077  17.423  0.00  0.00    +0.000 C 
ATOM     20  O   UNL     1       5.051   6.825  18.427  0.00  0.00    +0.000 OA
ATOM     21  N   UNL     1       3.086   7.561  17.408  0.00  0.00    +0.000 N 
ATOM     22  H   UNL     1       2.589   7.507  16.516  0.00  0.00    +0.000 HD
BRANCH  21  23
ATOM     23  C   UNL     1       2.343   7.961  18.544  0.00  0.00    +0.000 A 
ATOM     24  C   UNL     1       2.321   7.207  19.722  0.00  0.00    +0.000 A 
ATOM     25  C   UNL     1       1.601   7.643  20.834  0.00  0.00    +0.000 A 
ATOM     26  C   UNL     1       0.912   8.849  20.780  0.00  0.00    +0.000 A 
ATOM     27  C   UNL     1       0.899   9.606  19.605  0.00  0.00    +0.000 A 
ATOM     28  C   UNL     1       1.627   9.165  18.491  0.00  0.00    +0.000 A 
BRANCH  26  29
ATOM     29  S   UNL     1       0.086   9.424  22.231  0.00  0.00    +0.000 S 
ATOM     30  O   UNL     1      -1.038   8.570  22.514  0.00  0.00    +0.000 OA
ATOM     31  O   UNL     1       1.064   9.798  23.230  0.00  0.00    +0.000 OA
BRANCH  29  32
ATOM     32  N   UNL     1      -0.562  10.870  21.659  0.00  0.00    +0.000 NA
ATOM     33  H   UNL     1      -0.390  10.963  20.660  0.00  0.00    +0.000 HD
ATOM     34  H   UNL     1      -1.542  10.954  21.931  0.00  0.00    +0.000 HD
ENDBRANCH  29  32
ENDBRANCH  26  29
ENDBRANCH  21  23
ENDBRANCH  18  19
ENDBRANCH   1  18
TORSDOF 11
ENDMDL
MODEL 4
REMARK VINA RESULT:      -7.6      1.508      2.389
REMARK  Name = 
REMARK  12 active torsions:
REMARK  status: ('A' for Active; 'I' for Inactive)
REMARK    1  A    between atoms: C_1  and  O_2
REMARK    2  A    between atoms: O_2  and  C_3
REMARK    3  A    between atoms: C_8  and  C_9
REMARK    4  A    between atoms: N_11  and  C_12
REMARK    5  A    between atoms: C_12  and  C_13
REMARK    6  A    between atoms: C_13  and  C_14
REMARK    7  A    between atoms: C_14  and  O_16
REMARK    8  A    between atoms: O_16  and  C_17
REMARK    9  A    between atoms: C_17  and  C_18
REMARK   10  A    between atoms: N_20  and  C_21
REMARK   11  A    between atoms: C_24  and  S_25
REMARK   12  A    between atoms: S_25  and  N_26
REMARK                            x       y       z     vdW  Elec       q    Type
REMARK                         _______ _______ _______ _____ _____    ______ ____
ROOT
ATOM      1  O   UNL     1       6.509   6.862  17.877  0.00  0.00    +0.000 OA
ENDROOT
BRANCH   1   2
ATOM      2  C   UNL     1       6.257   6.497  16.589  0.00  0.00    +0.000 C 
ATOM      3  O   UNL     1       5.317   6.932  15.935  0.00  0.00    +0.000 OA
BRANCH   2   4
ATOM      4  C   UNL     1       7.224   5.445  16.127  0.00  0.00    +0.000 C 
BRANCH   4   5
ATOM      5  C   UNL     1       6.888   4.112  16.788  0.00  0.00    +0.000 C 
BRANCH   5   8
ATOM      6  C   UNL     1       5.000   3.800  18.357  0.00  0.00    +0.000 C 
ATOM      7  O   UNL     1       5.752   3.881  19.326  0.00  0.00    +0.000 OA
ATOM      8  N   UNL     1       5.472   3.954  17.071  0.00  0.00    +0.000 N 
ATOM      9  H   UNL     1       4.808   3.881  16.308  0.00  0.00    +0.000 HD
BRANCH   6  15
ATOM     10  C   UNL     1       2.465   4.357  18.218  0.00  0.00    +0.000 A 
ATOM     11  C   UNL     1       1.147   3.927  18.465  0.00  0.00    +0.000 A 
ATOM     12  C   UNL     1       0.884   2.670  19.011  0.00  0.00    +0.000 A 
ATOM     13  C   UNL     1       1.935   1.826  19.334  0.00  0.00    +0.000 A 
ATOM     14  C   UNL     1       3.247   2.242  19.114  0.00  0.00    +0.000 A 
ATOM     15  C   UNL     1       3.538   3.507  18.559  0.00  0.00    +0.000 A 
BRANCH  10  17
ATOM     16  C   UNL     1       2.755   6.687  18.594  0.00  0.00    +0.000 C 
ATOM     17  O   UNL     1       2.739   5.591  17.676  0.00  0.00    +0.000 OA
ENDBRANCH  10  17
ENDBRANCH   6  15
ENDBRANCH   5   8
ENDBRANCH   4   5
ENDBRANCH   2   4
ENDBRANCH   1   2
BRANCH   1  18
ATOM     18  C   UNL     1       7.871   7.188  18.152  0.00  0.00    +0.000 C 
BRANCH  18  19
ATOM     19  C   UNL     1       8.133   8.691  18.117  0.00  0.00    +0.000 C 
ATOM     20  O   UNL     1       7.533   9.396  17.308  0.00  0.00    +0.000 OA
ATOM     21  N   UNL     1       9.085   9.128  19.028  0.00  0.00    +0.000 N 
ATOM     22  H   UNL     1       9.657   8.407  19.472  0.00  0.00    +0.000 HD
BRANCH  21  23
ATOM     23  C   UNL     1       9.439  10.479  19.265  0.00  0.00    +0.000 A 
ATOM     24  C   UNL     1       9.352  11.060  20.534  0.00  0.00    +0.000 A 
ATOM     25  C   UNL     1       9.734  12.386  20.739  0.00  0.00    +0.000 A 
ATOM     26  C   UNL     1      10.224  13.133  19.676  0.00  0.00    +0.000 A 
ATOM     27  C   UNL     1      10.296  12.582  18.393  0.00  0.00    +0.000 A 
ATOM     28  C   UNL     1       9.913  11.248  18.194  0.00  0.00    +0.000 A 
BRANCH  26  29
ATOM     29  S   UNL     1      10.790  14.779  19.981  0.00  0.00    +0.000 S 
ATOM     30  O   UNL     1      12.225  14.822  19.872  0.00  0.00    +0.000 OA
ATOM     31  O   UNL     1       9.919  15.722  19.312  0.00  0.00    +0.000 OA
BRANCH  29  32
ATOM     32  N   UNL     1      10.444  14.920  21.624  0.00  0.00    +0.000 NA
ATOM     33  H   UNL     1      10.543  14.017  22.083  0.00  0.00    +0.000 HD
ATOM     34  H   UNL     1      10.994  15.672  22.041  0.00  0.00    +0.000 HD
ENDBRANCH  29  32
ENDBRANCH  26  29
ENDBRANCH  21  23
ENDBRANCH  18  19
ENDBRANCH   1  18
TORSDOF 11
ENDMDL
MODEL 5
REMARK VINA RESULT:      -7.5      5.329      6.126
REMARK  Name = 
REMARK  12 active torsions:
REMARK  status: ('A' for Active; 'I' for Inactive)
REMARK    1  A    between atoms: C_1  and  O_2
REMARK    2  A    between atoms: O_2  and  C_3
REMARK    3  A    between atoms: C_8  and  C_9
REMARK    4  A    between atoms: N_11  and  C_12
REMARK    5  A    between atoms: C_12  and  C_13
REMARK    6  A    between atoms: C_13  and  C_14
REMARK    7  A    between atoms: C_14  and  O_16
REMARK    8  A    between atoms: O_16  and  C_17
REMARK    9  A    between atoms: C_17  and  C_18
REMARK   10  A    between atoms: N_20  and  C_21
REMARK   11  A    between atoms: C_24  and  S_25
REMARK   12  A    between atoms: S_25  and  N_26
REMARK                            x       y       z     vdW  Elec       q    Type
REMARK                         _______ _______ _______ _____ _____    ______ ____
ROOT
ATOM      1  O   UNL     1       6.420   5.880  15.825  0.00  0.00    +0.000 OA
ENDROOT
BRANCH   1   2
ATOM      2  C   UNL     1       6.683   4.555  16.000  0.00  0.00    +0.000 C 
ATOM      3  O   UNL     1       6.104   3.665  15.389  0.00  0.00    +0.000 OA
BRANCH   2   4
ATOM      4  C   UNL     1       7.701   4.346  17.084  0.00  0.00    +0.000 C 
BRANCH   4   5
ATOM      5  C   UNL     1       7.079   4.664  18.441  0.00  0.00    +0.000 C 
BRANCH   5   8
ATOM      6  C   UNL     1       4.829   4.582  19.467  0.00  0.00    +0.000 C 
ATOM      7  O   UNL     1       4.999   5.676  20.002  0.00  0.00    +0.000 OA
ATOM      8  N   UNL     1       5.785   4.034  18.640  0.00  0.00    +0.000 N 
ATOM      9  H   UNL     1       5.592   3.130  18.221  0.00  0.00    +0.000 HD
BRANCH   6  15
ATOM     10  C   UNL     1       2.974   2.867  18.855  0.00  0.00    +0.000 A 
ATOM     11  C   UNL     1       1.792   2.214  19.256  0.00  0.00    +0.000 A 
ATOM     12  C   UNL     1       1.218   2.454  20.504  0.00  0.00    +0.000 A 
ATOM     13  C   UNL     1       1.806   3.362  21.370  0.00  0.00    +0.000 A 
ATOM     14  C   UNL     1       2.966   4.032  20.984  0.00  0.00    +0.000 A 
ATOM     15  C   UNL     1       3.568   3.804  19.727  0.00  0.00    +0.000 A 
BRANCH  10  17
ATOM     16  C   UNL     1       2.917   3.261  16.510  0.00  0.00    +0.000 C 
ATOM     17  O   UNL     1       3.554   2.638  17.629  0.00  0.00    +0.000 OA
ENDBRANCH  10  17
ENDBRANCH   6  15
ENDBRANCH   5   8
ENDBRANCH   4   5
ENDBRANCH   2   4
ENDBRANCH   1   2
BRANCH   1  18
ATOM     18  C   UNL     1       5.033   6.212  15.752  0.00  0.00    +0.000 C 
BRANCH  18  19
ATOM     19  C   UNL     1       4.573   7.067  16.929  0.00  0.00    +0.000 C 
ATOM     20  O   UNL     1       5.397   7.716  17.570  0.00  0.00    +0.000 OA
ATOM     21  N   UNL     1       3.209   7.004  17.184  0.00  0.00    +0.000 N 
ATOM     22  H   UNL     1       2.692   6.256  16.718  0.00  0.00    +0.000 HD
BRANCH  21  23
ATOM     23  C   UNL     1       2.517   7.772  18.151  0.00  0.00    +0.000 A 
ATOM     24  C   UNL     1       2.273   7.297  19.444  0.00  0.00    +0.000 A 
ATOM     25  C   UNL     1       1.612   8.089  20.382  0.00  0.00    +0.000 A 
ATOM     26  C   UNL     1       1.205   9.372  20.036  0.00  0.00    +0.000 A 
ATOM     27  C   UNL     1       1.414   9.858  18.742  0.00  0.00    +0.000 A 
ATOM     28  C   UNL     1       2.082   9.059  17.804  0.00  0.00    +0.000 A 
BRANCH  26  29
ATOM     29  S   UNL     1       0.454  10.389  21.270  0.00  0.00    +0.000 S 
ATOM     30  O   UNL     1      -0.899  10.693  20.882  0.00  0.00    +0.000 OA
ATOM     31  O   UNL     1       0.807   9.897  22.584  0.00  0.00    +0.000 OA
BRANCH  29  32
ATOM     32  N   UNL     1       1.327  11.814  21.062  0.00  0.00    +0.000 NA
ATOM     33  H   UNL     1       2.314  11.654  21.256  0.00  0.00    +0.000 HD
ATOM     34  H   UNL     1       1.134  12.221  20.146  0.00  0.00    +0.000 HD
ENDBRANCH  29  32
ENDBRANCH  26  29
ENDBRANCH  21  23
ENDBRANCH  18  19
ENDBRANCH   1  18
TORSDOF 11
ENDMDL
MODEL 6
REMARK VINA RESULT:      -7.4      5.502      7.839
REMARK  Name = 
REMARK  12 active torsions:
REMARK  status: ('A' for Active; 'I' for Inactive)
REMARK    1  A    between atoms: C_1  and  O_2
REMARK    2  A    between atoms: O_2  and  C_3
REMARK    3  A    between atoms: C_8  and  C_9
REMARK    4  A    between atoms: N_11  and  C_12
REMARK    5  A    between atoms: C_12  and  C_13
REMARK    6  A    between atoms: C_13  and  C_14
REMARK    7  A    between atoms: C_14  and  O_16
REMARK    8  A    between atoms: O_16  and  C_17
REMARK    9  A    between atoms: C_17  and  C_18
REMARK   10  A    between atoms: N_20  and  C_21
REMARK   11  A    between atoms: C_24  and  S_25
REMARK   12  A    between atoms: S_25  and  N_26
REMARK                            x       y       z     vdW  Elec       q    Type
REMARK                         _______ _______ _______ _____ _____    ______ ____
ROOT
ATOM      1  O   UNL     1       1.599   4.852  19.668  0.00  0.00    +0.000 OA
ENDROOT
BRANCH   1   2
ATOM      2  C   UNL     1       1.491   4.041  18.578  0.00  0.00    +0.000 C 
ATOM      3  O   UNL     1       1.296   4.457  17.443  0.00  0.00    +0.000 OA
BRANCH   2   4
ATOM      4  C   UNL     1       1.560   2.594  18.973  0.00  0.00    +0.000 C 
BRANCH   4   5
ATOM      5  C   UNL     1       2.865   1.985  18.468  0.00  0.00    +0.000 C 
BRANCH   5   8
ATOM      6  C   UNL     1       4.928   3.322  18.753  0.00  0.00    +0.000 C 
ATOM      7  O   UNL     1       5.201   2.735  19.798  0.00  0.00    +0.000 OA
ATOM      8  N   UNL     1       3.820   2.979  18.009  0.00  0.00    +0.000 N 
ATOM      9  H   UNL     1       3.643   3.494  17.152  0.00  0.00    +0.000 HD
BRANCH   6  15
ATOM     10  C   UNL     1       5.897   4.922  16.948  0.00  0.00    +0.000 A 
ATOM     11  C   UNL     1       6.754   6.003  16.667  0.00  0.00    +0.000 A 
ATOM     12  C   UNL     1       7.479   6.635  17.678  0.00  0.00    +0.000 A 
ATOM     13  C   UNL     1       7.373   6.188  18.985  0.00  0.00    +0.000 A 
ATOM     14  C   UNL     1       6.544   5.107  19.279  0.00  0.00    +0.000 A 
ATOM     15  C   UNL     1       5.796   4.454  18.275  0.00  0.00    +0.000 A 
BRANCH  10  17
ATOM     16  C   UNL     1       5.929   3.757  14.875  0.00  0.00    +0.000 C 
ATOM     17  O   UNL     1       5.171   4.292  15.964  0.00  0.00    +0.000 OA
ENDBRANCH  10  17
ENDBRANCH   6  15
ENDBRANCH   5   8
ENDBRANCH   4   5
ENDBRANCH   2   4
ENDBRANCH   1   2
BRANCH   1  18
ATOM     18  C   UNL     1       2.665   5.799  19.608  0.00  0.00    +0.000 C 
BRANCH  18  19
ATOM     19  C   UNL     1       2.171   7.241  19.682  0.00  0.00    +0.000 C 
ATOM     20  O   UNL     1       2.351   7.998  18.729  0.00  0.00    +0.000 OA
ATOM     21  N   UNL     1       1.562   7.578  20.883  0.00  0.00    +0.000 N 
ATOM     22  H   UNL     1       1.687   6.922  21.658  0.00  0.00    +0.000 HD
BRANCH  21  23
ATOM     23  C   UNL     1       0.936   8.814  21.171  0.00  0.00    +0.000 A 
ATOM     24  C   UNL     1       0.856   9.845  20.230  0.00  0.00    +0.000 A 
ATOM     25  C   UNL     1       0.208  11.042  20.535  0.00  0.00    +0.000 A 
ATOM     26  C   UNL     1      -0.382  11.207  21.782  0.00  0.00    +0.000 A 
ATOM     27  C   UNL     1      -0.293  10.200  22.748  0.00  0.00    +0.000 A 
ATOM     28  C   UNL     1       0.357   8.999  22.434  0.00  0.00    +0.000 A 
BRANCH  26  29
ATOM     29  S   UNL     1      -1.277  12.694  22.111  0.00  0.00    +0.000 S 
ATOM     30  O   UNL     1      -2.237  12.919  21.061  0.00  0.00    +0.000 OA
ATOM     31  O   UNL     1      -1.617  12.753  23.517  0.00  0.00    +0.000 OA
BRANCH  29  32
ATOM     32  N   UNL     1      -0.062  13.837  21.882  0.00  0.00    +0.000 NA
ATOM     33  H   UNL     1       0.497  13.599  21.066  0.00  0.00    +0.000 HD
ATOM     34  H   UNL     1      -0.456  14.779  21.869  0.00  0.00    +0.000 HD
ENDBRANCH  29  32
ENDBRANCH  26  29
ENDBRANCH  21  23
ENDBRANCH  18  19
ENDBRANCH   1  18
TORSDOF 11
ENDMDL
MODEL 7
REMARK VINA RESULT:      -7.4      5.439      7.591
REMARK  Name = 
REMARK  12 active torsions:
REMARK  status: ('A' for Active; 'I' for Inactive)
REMARK    1  A    between atoms: C_1  and  O_2
REMARK    2  A    between atoms: O_2  and  C_3
REMARK    3  A    between atoms: C_8  and  C_9
REMARK    4  A    between atoms: N_11  and  C_12
REMARK    5  A    between atoms: C_12  and  C_13
REMARK    6  A    between atoms: C_13  and  C_14
REMARK    7  A    between atoms: C_14  and  O_16
REMARK    8  A    between atoms: O_16  and  C_17
REMARK    9  A    between atoms: C_17  and  C_18
REMARK   10  A    between atoms: N_20  and  C_21
REMARK   11  A    between atoms: C_24  and  S_25
REMARK   12  A    between atoms: S_25  and  N_26
REMARK                            x       y       z     vdW  Elec       q    Type
REMARK                         _______ _______ _______ _____ _____    ______ ____
ROOT
ATOM      1  O   UNL     1       3.647   3.644  20.312  0.00  0.00    +0.000 OA
ENDROOT
BRANCH   1   2
ATOM      2  C   UNL     1       3.883   2.319  20.099  0.00  0.00    +0.000 C 
ATOM      3  O   UNL     1       4.960   1.780  20.323  0.00  0.00    +0.000 OA
BRANCH   2   4
ATOM      4  C   UNL     1       2.687   1.649  19.485  0.00  0.00    +0.000 C 
BRANCH   4   5
ATOM      5  C   UNL     1       2.527   2.108  18.039  0.00  0.00    +0.000 C 
BRANCH   5   8
ATOM      6  C   UNL     1       3.896   3.932  17.079  0.00  0.00    +0.000 C 
ATOM      7  O   UNL     1       3.009   4.755  17.298  0.00  0.00    +0.000 OA
ATOM      8  N   UNL     1       3.760   2.615  17.460  0.00  0.00    +0.000 N 
ATOM      9  H   UNL     1       4.524   1.979  17.258  0.00  0.00    +0.000 HD
BRANCH   6  15
ATOM     10  C   UNL     1       6.310   4.890  16.963  0.00  0.00    +0.000 A 
ATOM     11  C   UNL     1       7.410   5.222  16.149  0.00  0.00    +0.000 A 
ATOM     12  C   UNL     1       7.386   5.002  14.772  0.00  0.00    +0.000 A 
ATOM     13  C   UNL     1       6.256   4.458  14.181  0.00  0.00    +0.000 A 
ATOM     14  C   UNL     1       5.151   4.140  14.968  0.00  0.00    +0.000 A 
ATOM     15  C   UNL     1       5.152   4.351  16.364  0.00  0.00    +0.000 A 
BRANCH  10  17
ATOM     16  C   UNL     1       7.515   5.672  18.858  0.00  0.00    +0.000 C 
ATOM     17  O   UNL     1       6.320   5.098  18.323  0.00  0.00    +0.000 OA
ENDBRANCH  10  17
ENDBRANCH   6  15
ENDBRANCH   5   8
ENDBRANCH   4   5
ENDBRANCH   2   4
ENDBRANCH   1   2
BRANCH   1  18
ATOM     18  C   UNL     1       2.574   3.925  21.210  0.00  0.00    +0.000 C 
BRANCH  18  19
ATOM     19  C   UNL     1       1.688   5.069  20.726  0.00  0.00    +0.000 C 
ATOM     20  O   UNL     1       0.541   4.836  20.348  0.00  0.00    +0.000 OA
ATOM     21  N   UNL     1       2.304   6.314  20.737  0.00  0.00    +0.000 N 
ATOM     22  H   UNL     1       3.319   6.321  20.858  0.00  0.00    +0.000 HD
BRANCH  21  23
ATOM     23  C   UNL     1       1.676   7.546  20.430  0.00  0.00    +0.000 A 
ATOM     24  C   UNL     1       0.830   8.196  21.334  0.00  0.00    +0.000 A 
ATOM     25  C   UNL     1       0.248   9.422  21.013  0.00  0.00    +0.000 A 
ATOM     26  C   UNL     1       0.525  10.015  19.787  0.00  0.00    +0.000 A 
ATOM     27  C   UNL     1       1.347   9.371  18.857  0.00  0.00    +0.000 A 
ATOM     28  C   UNL     1       1.931   8.141  19.187  0.00  0.00    +0.000 A 
BRANCH  26  29
ATOM     29  S   UNL     1      -0.148  11.611  19.441  0.00  0.00    +0.000 S 
ATOM     30  O   UNL     1      -0.525  12.251  20.675  0.00  0.00    +0.000 OA
ATOM     31  O   UNL     1       0.649  12.263  18.425  0.00  0.00    +0.000 OA
BRANCH  29  32
ATOM     32  N   UNL     1      -1.589  11.175  18.685  0.00  0.00    +0.000 NA
ATOM     33  H   UNL     1      -1.714  11.711  17.829  0.00  0.00    +0.000 HD
ATOM     34  H   UNL     1      -1.637  10.163  18.565  0.00  0.00    +0.000 HD
ENDBRANCH  29  32
ENDBRANCH  26  29
ENDBRANCH  21  23
ENDBRANCH  18  19
ENDBRANCH   1  18
TORSDOF 11
ENDMDL
MODEL 8
REMARK VINA RESULT:      -7.2      5.386      7.716
REMARK  Name = 
REMARK  12 active torsions:
REMARK  status: ('A' for Active; 'I' for Inactive)
REMARK    1  A    between atoms: C_1  and  O_2
REMARK    2  A    between atoms: O_2  and  C_3
REMARK    3  A    between atoms: C_8  and  C_9
REMARK    4  A    between atoms: N_11  and  C_12
REMARK    5  A    between atoms: C_12  and  C_13
REMARK    6  A    between atoms: C_13  and  C_14
REMARK    7  A    between atoms: C_14  and  O_16
REMARK    8  A    between atoms: O_16  and  C_17
REMARK    9  A    between atoms: C_17  and  C_18
REMARK   10  A    between atoms: N_20  and  C_21
REMARK   11  A    between atoms: C_24  and  S_25
REMARK   12  A    between atoms: S_25  and  N_26
REMARK                            x       y       z     vdW  Elec       q    Type
REMARK                         _______ _______ _______ _____ _____    ______ ____
ROOT
ATOM      1  O   UNL     1       2.008   5.178  19.086  0.00  0.00    +0.000 OA
ENDROOT
BRANCH   1   2
ATOM      2  C   UNL     1       1.535   4.113  18.381  0.00  0.00    +0.000 C 
ATOM      3  O   UNL     1       0.938   4.219  17.317  0.00  0.00    +0.000 OA
BRANCH   2   4
ATOM      4  C   UNL     1       1.772   2.827  19.120  0.00  0.00    +0.000 C 
BRANCH   4   5
ATOM      5  C   UNL     1       3.032   2.152  18.588  0.00  0.00    +0.000 C 
BRANCH   5   8
ATOM      6  C   UNL     1       5.071   3.528  18.866  0.00  0.00    +0.000 C 
ATOM      7  O   UNL     1       5.269   3.064  19.987  0.00  0.00    +0.000 OA
ATOM      8  N   UNL     1       4.019   3.095  18.088  0.00  0.00    +0.000 N 
ATOM      9  H   UNL     1       3.903   3.510  17.169  0.00  0.00    +0.000 HD
BRANCH   6  15
ATOM     10  C   UNL     1       6.044   5.034  16.984  0.00  0.00    +0.000 A 
ATOM     11  C   UNL     1       6.939   6.067  16.643  0.00  0.00    +0.000 A 
ATOM     12  C   UNL     1       7.731   6.689  17.609  0.00  0.00    +0.000 A 
ATOM     13  C   UNL     1       7.653   6.280  18.931  0.00  0.00    +0.000 A 
ATOM     14  C   UNL     1       6.787   5.247  19.284  0.00  0.00    +0.000 A 
ATOM     15  C   UNL     1       5.972   4.605  18.326  0.00  0.00    +0.000 A 
BRANCH  10  17
ATOM     16  C   UNL     1       5.944   3.808  14.949  0.00  0.00    +0.000 C 
ATOM     17  O   UNL     1       5.253   4.415  16.044  0.00  0.00    +0.000 OA
ENDBRANCH  10  17
ENDBRANCH   6  15
ENDBRANCH   5   8
ENDBRANCH   4   5
ENDBRANCH   2   4
ENDBRANCH   1   2
BRANCH   1  18
ATOM     18  C   UNL     1       2.719   6.143  18.311  0.00  0.00    +0.000 C 
BRANCH  18  19
ATOM     19  C   UNL     1       2.390   7.577  18.716  0.00  0.00    +0.000 C 
ATOM     20  O   UNL     1       2.865   8.516  18.078  0.00  0.00    +0.000 OA
ATOM     21  N   UNL     1       1.570   7.684  19.832  0.00  0.00    +0.000 N 
ATOM     22  H   UNL     1       1.442   6.835  20.387  0.00  0.00    +0.000 HD
BRANCH  21  23
ATOM     23  C   UNL     1       1.041   8.890  20.352  0.00  0.00    +0.000 A 
ATOM     24  C   UNL     1       0.617   9.935  19.526  0.00  0.00    +0.000 A 
ATOM     25  C   UNL     1       0.075  11.099  20.069  0.00  0.00    +0.000 A 
ATOM     26  C   UNL     1      -0.063  11.217  21.447  0.00  0.00    +0.000 A 
ATOM     27  C   UNL     1       0.379  10.196  22.294  0.00  0.00    +0.000 A 
ATOM     28  C   UNL     1       0.920   9.027  21.742  0.00  0.00    +0.000 A 
BRANCH  26  29
ATOM     29  S   UNL     1      -0.838  12.661  22.105  0.00  0.00    +0.000 S 
ATOM     30  O   UNL     1       0.171  13.605  22.510  0.00  0.00    +0.000 OA
ATOM     31  O   UNL     1      -1.971  13.021  21.281  0.00  0.00    +0.000 OA
BRANCH  29  32
ATOM     32  N   UNL     1      -1.486  12.036  23.529  0.00  0.00    +0.000 NA
ATOM     33  H   UNL     1      -1.420  12.722  24.278  0.00  0.00    +0.000 HD
ATOM     34  H   UNL     1      -2.426  11.674  23.364  0.00  0.00    +0.000 HD
ENDBRANCH  29  32
ENDBRANCH  26  29
ENDBRANCH  21  23
ENDBRANCH  18  19
ENDBRANCH   1  18
TORSDOF 11
ENDMDL
MODEL 9
REMARK VINA RESULT:      -7.2      5.333      7.334
REMARK  Name = 
REMARK  12 active torsions:
REMARK  status: ('A' for Active; 'I' for Inactive)
REMARK    1  A    between atoms: C_1  and  O_2
REMARK    2  A    between atoms: O_2  and  C_3
REMARK    3  A    between atoms: C_8  and  C_9
REMARK    4  A    between atoms: N_11  and  C_12
REMARK    5  A    between atoms: C_12  and  C_13
REMARK    6  A    between atoms: C_13  and  C_14
REMARK    7  A    between atoms: C_14  and  O_16
REMARK    8  A    between atoms: O_16  and  C_17
REMARK    9  A    between atoms: C_17  and  C_18
REMARK   10  A    between atoms: N_20  and  C_21
REMARK   11  A    between atoms: C_24  and  S_25
REMARK   12  A    between atoms: S_25  and  N_26
REMARK                            x       y       z     vdW  Elec       q    Type
REMARK                         _______ _______ _______ _____ _____    ______ ____
ROOT
ATOM      1  O   UNL     1       1.155   4.363  20.588  0.00  0.00    +0.000 OA
ENDROOT
BRANCH   1   2
ATOM      2  C   UNL     1       1.545   3.080  20.828  0.00  0.00    +0.000 C 
ATOM      3  O   UNL     1       1.973   2.695  21.909  0.00  0.00    +0.000 OA
BRANCH   2   4
ATOM      4  C   UNL     1       1.457   2.246  19.582  0.00  0.00    +0.000 C 
BRANCH   4   5
ATOM      5  C   UNL     1       1.460   3.153  18.355  0.00  0.00    +0.000 C 
BRANCH   5   8
ATOM      6  C   UNL     1       3.890   3.249  17.896  0.00  0.00    +0.000 C 
ATOM      7  O   UNL     1       3.927   2.040  17.675  0.00  0.00    +0.000 OA
ATOM      8  N   UNL     1       2.704   3.886  18.188  0.00  0.00    +0.000 N 
ATOM      9  H   UNL     1       2.730   4.886  18.359  0.00  0.00    +0.000 HD
BRANCH   6  15
ATOM     10  C   UNL     1       6.041   4.188  16.779  0.00  0.00    +0.000 A 
ATOM     11  C   UNL     1       7.186   4.997  16.918  0.00  0.00    +0.000 A 
ATOM     12  C   UNL     1       7.445   5.692  18.099  0.00  0.00    +0.000 A 
ATOM     13  C   UNL     1       6.572   5.580  19.170  0.00  0.00    +0.000 A 
ATOM     14  C   UNL     1       5.444   4.769  19.058  0.00  0.00    +0.000 A 
ATOM     15  C   UNL     1       5.158   4.059  17.872  0.00  0.00    +0.000 A 
BRANCH  10  17
ATOM     16  C   UNL     1       5.830   4.264  14.412  0.00  0.00    +0.000 C 
ATOM     17  O   UNL     1       5.770   3.501  15.619  0.00  0.00    +0.000 OA
ENDBRANCH  10  17
ENDBRANCH   6  15
ENDBRANCH   5   8
ENDBRANCH   4   5
ENDBRANCH   2   4
ENDBRANCH   1   2
BRANCH   1  18
ATOM     18  C   UNL     1       1.971   5.363  21.198  0.00  0.00    +0.000 C 
BRANCH  18  19
ATOM     19  C   UNL     1       1.969   6.675  20.420  0.00  0.00    +0.000 C 
ATOM     20  O   UNL     1       2.451   6.715  19.289  0.00  0.00    +0.000 OA
ATOM     21  N   UNL     1       1.421   7.749  21.109  0.00  0.00    +0.000 N 
ATOM     22  H   UNL     1       1.271   7.619  22.112  0.00  0.00    +0.000 HD
BRANCH  21  23
ATOM     23  C   UNL     1       1.212   9.046  20.581  0.00  0.00    +0.000 A 
ATOM     24  C   UNL     1       1.286   9.312  19.210  0.00  0.00    +0.000 A 
ATOM     25  C   UNL     1       1.048  10.596  18.719  0.00  0.00    +0.000 A 
ATOM     26  C   UNL     1       0.715  11.619  19.598  0.00  0.00    +0.000 A 
ATOM     27  C   UNL     1       0.661  11.382  20.975  0.00  0.00    +0.000 A 
ATOM     28  C   UNL     1       0.898  10.089  21.462  0.00  0.00    +0.000 A 
BRANCH  26  29
ATOM     29  S   UNL     1       0.326  13.213  18.943  0.00  0.00    +0.000 S 
ATOM     30  O   UNL     1      -0.734  13.089  17.977  0.00  0.00    +0.000 OA
ATOM     31  O   UNL     1       0.309  14.185  20.014  0.00  0.00    +0.000 OA
BRANCH  29  32
ATOM     32  N   UNL     1       1.725  13.527  18.059  0.00  0.00    +0.000 NA
ATOM     33  H   UNL     1       1.838  14.530  17.921  0.00  0.00    +0.000 HD
ATOM     34  H   UNL     1       2.529  13.064  18.485  0.00  0.00    +0.000 HD
ENDBRANCH  29  32
ENDBRANCH  26  29
ENDBRANCH  21  23
ENDBRANCH  18  19
ENDBRANCH   1  18
TORSDOF 11
ENDMDL
