MODEL 1
REMARK VINA RESULT:      -7.2      0.000      0.000
REMARK  Name = 
REMARK  4 active torsions:
REMARK  status: ('A' for Active; 'I' for Inactive)
REMARK    1  A    between atoms: C_1  and  C_2
REMARK    2  A    between atoms: C_2  and  C_3
REMARK    3  A    between atoms: C_4  and  C_5
REMARK    4  A    between atoms: C_7  and  N_8
REMARK                            x       y       z     vdW  Elec       q    Type
REMARK                         _______ _______ _______ _____ _____    ______ ____
ROOT
ATOM      1  C   UNL     1       6.918   5.164  16.915  0.00  0.00    +0.000 C 
ATOM      2  C   UNL     1       6.637   4.898  15.430  0.00  0.00    +0.000 C 
ATOM      3  C   UNL     1       5.488   4.309  15.015  0.00  0.00    +0.000 C 
ATOM      4  O   UNL     1       4.537   3.875  15.917  0.00  0.00    +0.000 OA
ATOM      5  C   UNL     1       4.707   4.073  17.269  0.00  0.00    +0.000 A 
ATOM      6  C   UNL     1       5.781   4.682  17.798  0.00  0.00    +0.000 A 
ATOM      7  C   UNL     1       5.889   4.824  19.269  0.00  0.00    +0.000 A 
ATOM      8  O   UNL     1       6.902   5.260  19.803  0.00  0.00    +0.000 OA
ATOM      9  O   UNL     1       4.790   4.450  20.035  0.00  0.00    +0.000 OA
ATOM     10  C   UNL     1       3.686   3.789  19.470  0.00  0.00    +0.000 A 
ATOM     11  C   UNL     1       2.681   3.356  20.334  0.00  0.00    +0.000 A 
ATOM     12  C   UNL     1       1.590   2.662  19.814  0.00  0.00    +0.000 A 
ATOM     13  C   UNL     1       1.515   2.406  18.444  0.00  0.00    +0.000 A 
ATOM     14  C   UNL     1       2.527   2.856  17.592  0.00  0.00    +0.000 A 
ATOM     15  C   UNL     1       3.625   3.561  18.102  0.00  0.00    +0.000 A 
ENDROOT
BRANCH   3  16
ATOM     16  N   UNL     1       5.124   4.069  13.714  0.00  0.00    +0.000 N 
ATOM     17  H   UNL     1       5.868   3.797  13.072  0.00  0.00    +0.000 HD
ATOM     18  H   UNL     1       4.290   3.491  13.641  0.00  0.00    +0.000 HD
ENDBRANCH   3  16
BRANCH   1  20
ATOM     19  C   UNL     1       6.184   7.648  17.184  0.00  0.00    +0.000 C 
ATOM     20  C   UNL     1       7.328   6.644  17.154  0.00  0.00    +0.000 C 
ENDBRANCH   1  20
BRANCH   2  21
ATOM     21  C   UNL     1       7.613   5.261  14.458  0.00  0.00    +0.000 C 
ATOM     22  N   UNL     1       8.377   5.573  13.638  0.00  0.00    +0.000 NA
ENDBRANCH   2  21
TORSDOF 3
ENDMDL
MODEL 2
REMARK VINA RESULT:      -7.1      4.300      5.842
REMARK  Name = 
REMARK  4 active torsions:
REMARK  status: ('A' for Active; 'I' for Inactive)
REMARK    1  A    between atoms: C_1  and  C_2
REMARK    2  A    between atoms: C_2  and  C_3
REMARK    3  A    between atoms: C_4  and  C_5
REMARK    4  A    between atoms: C_7  and  N_8
REMARK                            x       y       z     vdW  Elec       q    Type
REMARK                         _______ _______ _______ _____ _____    ______ ____
ROOT
ATOM      1  C   UNL     1       4.076   4.666  18.742  0.00  0.00    +0.000 C 
ATOM      2  C   UNL     1       3.684   3.780  19.932  0.00  0.00    +0.000 C 
ATOM      3  C   UNL     1       2.779   4.185  20.857  0.00  0.00    +0.000 C 
ATOM      4  O   UNL     1       2.203   5.438  20.797  0.00  0.00    +0.000 OA
ATOM      5  C   UNL     1       2.496   6.300  19.763  0.00  0.00    +0.000 A 
ATOM      6  C   UNL     1       3.343   5.996  18.766  0.00  0.00    +0.000 A 
ATOM      7  C   UNL     1       3.619   6.999  17.711  0.00  0.00    +0.000 A 
ATOM      8  O   UNL     1       4.473   6.816  16.852  0.00  0.00    +0.000 OA
ATOM      9  O   UNL     1       2.863   8.168  17.720  0.00  0.00    +0.000 OA
ATOM     10  C   UNL     1       2.003   8.482  18.785  0.00  0.00    +0.000 A 
ATOM     11  C   UNL     1       1.370   9.725  18.758  0.00  0.00    +0.000 A 
ATOM     12  C   UNL     1       0.540  10.088  19.817  0.00  0.00    +0.000 A 
ATOM     13  C   UNL     1       0.352   9.213  20.887  0.00  0.00    +0.000 A 
ATOM     14  C   UNL     1       0.986   7.967  20.893  0.00  0.00    +0.000 A 
ATOM     15  C   UNL     1       1.817   7.588  19.831  0.00  0.00    +0.000 A 
ENDROOT
BRANCH   3  16
ATOM     16  N   UNL     1       2.330   3.453  21.927  0.00  0.00    +0.000 N 
ATOM     17  H   UNL     1       2.317   2.440  21.818  0.00  0.00    +0.000 HD
ATOM     18  H   UNL     1       2.732   3.764  22.810  0.00  0.00    +0.000 HD
ENDBRANCH   3  16
BRANCH   1  20
ATOM     19  C   UNL     1       2.566   3.351  17.077  0.00  0.00    +0.000 C 
ATOM     20  C   UNL     1       3.951   3.893  17.399  0.00  0.00    +0.000 C 
ENDBRANCH   1  20
BRANCH   2  21
ATOM     21  C   UNL     1       4.298   2.504  20.085  0.00  0.00    +0.000 C 
ATOM     22  N   UNL     1       4.839   1.480  20.199  0.00  0.00    +0.000 NA
ENDBRANCH   2  21
TORSDOF 3
ENDMDL
MODEL 3
REMARK VINA RESULT:      -6.8      3.535      5.785
REMARK  Name = 
REMARK  4 active torsions:
REMARK  status: ('A' for Active; 'I' for Inactive)
REMARK    1  A    between atoms: C_1  and  C_2
REMARK    2  A    between atoms: C_2  and  C_3
REMARK    3  A    between atoms: C_4  and  C_5
REMARK    4  A    between atoms: C_7  and  N_8
REMARK                            x       y       z     vdW  Elec       q    Type
REMARK                         _______ _______ _______ _____ _____    ______ ____
ROOT
ATOM      1  C   UNL     1       2.755   5.684  20.106  0.00  0.00    +0.000 C 
ATOM      2  C   UNL     1       2.234   7.091  19.780  0.00  0.00    +0.000 C 
ATOM      3  C   UNL     1       2.521   7.705  18.606  0.00  0.00    +0.000 C 
ATOM      4  O   UNL     1       3.339   7.111  17.666  0.00  0.00    +0.000 OA
ATOM      5  C   UNL     1       3.851   5.849  17.874  0.00  0.00    +0.000 A 
ATOM      6  C   UNL     1       3.603   5.124  18.978  0.00  0.00    +0.000 A 
ATOM      7  C   UNL     1       4.222   3.786  19.126  0.00  0.00    +0.000 A 
ATOM      8  O   UNL     1       4.126   3.141  20.163  0.00  0.00    +0.000 OA
ATOM      9  O   UNL     1       4.919   3.274  18.036  0.00  0.00    +0.000 OA
ATOM     10  C   UNL     1       5.193   4.056  16.901  0.00  0.00    +0.000 A 
ATOM     11  C   UNL     1       5.990   3.492  15.906  0.00  0.00    +0.000 A 
ATOM     12  C   UNL     1       6.316   4.251  14.783  0.00  0.00    +0.000 A 
ATOM     13  C   UNL     1       5.846   5.561  14.668  0.00  0.00    +0.000 A 
ATOM     14  C   UNL     1       5.040   6.106  15.670  0.00  0.00    +0.000 A 
ATOM     15  C   UNL     1       4.700   5.350  16.800  0.00  0.00    +0.000 A 
ENDROOT
BRANCH   3  16
ATOM     16  N   UNL     1       2.069   8.936  18.204  0.00  0.00    +0.000 N 
ATOM     17  H   UNL     1       1.237   8.951  17.615  0.00  0.00    +0.000 HD
ATOM     18  H   UNL     1       2.044   9.612  18.964  0.00  0.00    +0.000 HD
ENDBRANCH   3  16
BRANCH   1  20
ATOM     19  C   UNL     1       0.956   3.914  19.464  0.00  0.00    +0.000 C 
ATOM     20  C   UNL     1       1.601   4.748  20.562  0.00  0.00    +0.000 C 
ENDBRANCH   1  20
BRANCH   2  21
ATOM     21  C   UNL     1       1.442   7.782  20.741  0.00  0.00    +0.000 C 
ATOM     22  N   UNL     1       0.804   8.385  21.505  0.00  0.00    +0.000 NA
ENDBRANCH   2  21
TORSDOF 3
ENDMDL
MODEL 4
REMARK VINA RESULT:      -6.7      3.507      4.421
REMARK  Name = 
REMARK  4 active torsions:
REMARK  status: ('A' for Active; 'I' for Inactive)
REMARK    1  A    between atoms: C_1  and  C_2
REMARK    2  A    between atoms: C_2  and  C_3
REMARK    3  A    between atoms: C_4  and  C_5
REMARK    4  A    between atoms: C_7  and  N_8
REMARK                            x       y       z     vdW  Elec       q    Type
REMARK                         _______ _______ _______ _____ _____    ______ ____
ROOT
ATOM      1  C   UNL     1       4.224   4.824  18.101  0.00  0.00    +0.000 C 
ATOM      2  C   UNL     1       4.848   5.255  16.766  0.00  0.00    +0.000 C 
ATOM      3  C   UNL     1       4.627   6.484  16.239  0.00  0.00    +0.000 C 
ATOM      4  O   UNL     1       3.788   7.390  16.856  0.00  0.00    +0.000 OA
ATOM      5  C   UNL     1       3.186   7.088  18.057  0.00  0.00    +0.000 A 
ATOM      6  C   UNL     1       3.361   5.921  18.699  0.00  0.00    +0.000 A 
ATOM      7  C   UNL     1       2.649   5.674  19.974  0.00  0.00    +0.000 A 
ATOM      8  O   UNL     1       2.680   4.584  20.532  0.00  0.00    +0.000 OA
ATOM      9  O   UNL     1       1.940   6.734  20.531  0.00  0.00    +0.000 OA
ATOM     10  C   UNL     1       1.743   7.938  19.834  0.00  0.00    +0.000 A 
ATOM     11  C   UNL     1       0.928   8.902  20.428  0.00  0.00    +0.000 A 
ATOM     12  C   UNL     1       0.677  10.093  19.749  0.00  0.00    +0.000 A 
ATOM     13  C   UNL     1       1.238  10.308  18.489  0.00  0.00    +0.000 A 
ATOM     14  C   UNL     1       2.060   9.335  17.914  0.00  0.00    +0.000 A 
ATOM     15  C   UNL     1       2.326   8.138  18.590  0.00  0.00    +0.000 A 
ENDROOT
BRANCH   3  16
ATOM     16  N   UNL     1       5.170   6.979  15.080  0.00  0.00    +0.000 N 
ATOM     17  H   UNL     1       6.186   6.939  14.995  0.00  0.00    +0.000 HD
ATOM     18  H   UNL     1       4.677   6.660  14.249  0.00  0.00    +0.000 HD
ENDBRANCH   3  16
BRANCH   1  20
ATOM     19  C   UNL     1       6.426   5.219  19.435  0.00  0.00    +0.000 C 
ATOM     20  C   UNL     1       5.302   4.260  19.069  0.00  0.00    +0.000 C 
ENDBRANCH   1  20
BRANCH   2  21
ATOM     21  C   UNL     1       5.666   4.337  16.048  0.00  0.00    +0.000 C 
ATOM     22  N   UNL     1       6.352   3.621  15.439  0.00  0.00    +0.000 NA
ENDBRANCH   2  21
TORSDOF 3
ENDMDL
MODEL 5
REMARK VINA RESULT:      -6.6      2.652      5.368
REMARK  Name = 
REMARK  4 active torsions:
REMARK  status: ('A' for Active; 'I' for Inactive)
REMARK    1  A    between atoms: C_1  and  C_2
REMARK    2  A    between atoms: C_2  and  C_3
REMARK    3  A    between atoms: C_4  and  C_5
REMARK    4  A    between atoms: C_7  and  N_8
REMARK                            x       y       z     vdW  Elec       q    Type
REMARK                         _______ _______ _______ _____ _____    ______ ____
ROOT
ATOM      1  C   UNL     1       5.277   5.700  18.054  0.00  0.00    +0.000 C 
ATOM      2  C   UNL     1       4.045   4.814  18.285  0.00  0.00    +0.000 C 
ATOM      3  C   UNL     1       3.615   3.932  17.349  0.00  0.00    +0.000 C 
ATOM      4  O   UNL     1       4.238   3.826  16.122  0.00  0.00    +0.000 OA
ATOM      5  C   UNL     1       5.351   4.581  15.829  0.00  0.00    +0.000 A 
ATOM      6  C   UNL     1       5.897   5.458  16.689  0.00  0.00    +0.000 A 
ATOM      7  C   UNL     1       7.079   6.249  16.275  0.00  0.00    +0.000 A 
ATOM      8  O   UNL     1       7.536   7.144  16.975  0.00  0.00    +0.000 OA
ATOM      9  O   UNL     1       7.668   5.934  15.054  0.00  0.00    +0.000 OA
ATOM     10  C   UNL     1       7.069   5.036  14.154  0.00  0.00    +0.000 A 
ATOM     11  C   UNL     1       7.676   4.867  12.910  0.00  0.00    +0.000 A 
ATOM     12  C   UNL     1       7.089   4.015  11.977  0.00  0.00    +0.000 A 
ATOM     13  C   UNL     1       5.907   3.344  12.293  0.00  0.00    +0.000 A 
ATOM     14  C   UNL     1       5.318   3.518  13.548  0.00  0.00    +0.000 A 
ATOM     15  C   UNL     1       5.902   4.367  14.497  0.00  0.00    +0.000 A 
ENDROOT
BRANCH   3  16
ATOM     16  N   UNL     1       2.556   3.068  17.476  0.00  0.00    +0.000 N 
ATOM     17  H   UNL     1       2.584   2.221  16.909  0.00  0.00    +0.000 HD
ATOM     18  H   UNL     1       2.300   2.902  18.447  0.00  0.00    +0.000 HD
ENDBRANCH   3  16
BRANCH   1  20
ATOM     19  C   UNL     1       7.527   4.762  18.971  0.00  0.00    +0.000 C 
ATOM     20  C   UNL     1       6.279   5.591  19.238  0.00  0.00    +0.000 C 
ENDBRANCH   1  20
BRANCH   2  21
ATOM     21  C   UNL     1       3.319   4.930  19.505  0.00  0.00    +0.000 C 
ATOM     22  N   UNL     1       2.690   5.010  20.480  0.00  0.00    +0.000 NA
ENDBRANCH   2  21
TORSDOF 3
ENDMDL
MODEL 6
REMARK VINA RESULT:      -6.5      2.427      3.447
REMARK  Name = 
REMARK  4 active torsions:
REMARK  status: ('A' for Active; 'I' for Inactive)
REMARK    1  A    between atoms: C_1  and  C_2
REMARK    2  A    between atoms: C_2  and  C_3
REMARK    3  A    between atoms: C_4  and  C_5
REMARK    4  A    between atoms: C_7  and  N_8
REMARK                            x       y       z     vdW  Elec       q    Type
REMARK                         _______ _______ _______ _____ _____    ______ ____
ROOT
ATOM      1  C   UNL     1       4.941   6.846  17.637  0.00  0.00    +0.000 C 
ATOM      2  C   UNL     1       6.377   6.463  18.019  0.00  0.00    +0.000 C 
ATOM      3  C   UNL     1       6.641   5.438  18.867  0.00  0.00    +0.000 C 
ATOM      4  O   UNL     1       5.625   4.721  19.466  0.00  0.00    +0.000 OA
ATOM      5  C   UNL     1       4.306   4.996  19.180  0.00  0.00    +0.000 A 
ATOM      6  C   UNL     1       3.920   5.957  18.325  0.00  0.00    +0.000 A 
ATOM      7  C   UNL     1       2.475   6.199  18.102  0.00  0.00    +0.000 A 
ATOM      8  O   UNL     1       2.074   7.141  17.428  0.00  0.00    +0.000 OA
ATOM      9  O   UNL     1       1.576   5.309  18.681  0.00  0.00    +0.000 OA
ATOM     10  C   UNL     1       1.994   4.327  19.595  0.00  0.00    +0.000 A 
ATOM     11  C   UNL     1       1.009   3.553  20.207  0.00  0.00    +0.000 A 
ATOM     12  C   UNL     1       1.382   2.596  21.148  0.00  0.00    +0.000 A 
ATOM     13  C   UNL     1       2.729   2.424  21.470  0.00  0.00    +0.000 A 
ATOM     14  C   UNL     1       3.704   3.202  20.841  0.00  0.00    +0.000 A 
ATOM     15  C   UNL     1       3.341   4.162  19.887  0.00  0.00    +0.000 A 
ENDROOT
BRANCH   3  16
ATOM     16  N   UNL     1       7.885   4.991  19.236  0.00  0.00    +0.000 N 
ATOM     17  H   UNL     1       8.639   5.677  19.237  0.00  0.00    +0.000 HD
ATOM     18  H   UNL     1       7.861   4.409  20.071  0.00  0.00    +0.000 HD
ENDBRANCH   3  16
BRANCH   1  20
ATOM     19  C   UNL     1       5.252   5.719  15.309  0.00  0.00    +0.000 C 
ATOM     20  C   UNL     1       4.774   6.933  16.093  0.00  0.00    +0.000 C 
ENDBRANCH   1  20
BRANCH   2  21
ATOM     21  C   UNL     1       7.465   7.212  17.487  0.00  0.00    +0.000 C 
ATOM     22  N   UNL     1       8.329   7.860  17.054  0.00  0.00    +0.000 NA
ENDBRANCH   2  21
TORSDOF 3
ENDMDL
MODEL 7
REMARK VINA RESULT:      -6.2      8.287      9.518
REMARK  Name = 
REMARK  4 active torsions:
REMARK  status: ('A' for Active; 'I' for Inactive)
REMARK    1  A    between atoms: C_1  and  C_2
REMARK    2  A    between atoms: C_2  and  C_3
REMARK    3  A    between atoms: C_4  and  C_5
REMARK    4  A    between atoms: C_7  and  N_8
REMARK                            x       y       z     vdW  Elec       q    Type
REMARK                         _______ _______ _______ _____ _____    ______ ____
ROOT
ATOM      1  C   UNL     1      -0.592  12.027  21.448  0.00  0.00    +0.000 C 
ATOM      2  C   UNL     1      -0.877  12.901  20.219  0.00  0.00    +0.000 C 
ATOM      3  C   UNL     1      -0.516  12.517  18.970  0.00  0.00    +0.000 C 
ATOM      4  O   UNL     1       0.171  11.339  18.751  0.00  0.00    +0.000 OA
ATOM      5  C   UNL     1       0.468  10.492  19.795  0.00  0.00    +0.000 A 
ATOM      6  C   UNL     1       0.125  10.743  21.070  0.00  0.00    +0.000 A 
ATOM      7  C   UNL     1       0.514   9.785  22.132  0.00  0.00    +0.000 A 
ATOM      8  O   UNL     1       0.332  10.028  23.319  0.00  0.00    +0.000 OA
ATOM      9  O   UNL     1       1.090   8.583  21.736  0.00  0.00    +0.000 OA
ATOM     10  C   UNL     1       1.468   8.349  20.402  0.00  0.00    +0.000 A 
ATOM     11  C   UNL     1       2.137   7.159  20.120  0.00  0.00    +0.000 A 
ATOM     12  C   UNL     1       2.562   6.909  18.816  0.00  0.00    +0.000 A 
ATOM     13  C   UNL     1       2.317   7.847  17.813  0.00  0.00    +0.000 A 
ATOM     14  C   UNL     1       1.636   9.030  18.111  0.00  0.00    +0.000 A 
ATOM     15  C   UNL     1       1.197   9.289  19.417  0.00  0.00    +0.000 A 
ENDROOT
BRANCH   3  16
ATOM     16  N   UNL     1      -0.763  13.203  17.808  0.00  0.00    +0.000 N 
ATOM     17  H   UNL     1      -1.384  12.757  17.133  0.00  0.00    +0.000 HD
ATOM     18  H   UNL     1      -0.974  14.185  17.970  0.00  0.00    +0.000 HD
ENDBRANCH   3  16
BRANCH   1  20
ATOM     19  C   UNL     1      -2.025  12.723  23.508  0.00  0.00    +0.000 C 
ATOM     20  C   UNL     1      -1.877  11.813  22.297  0.00  0.00    +0.000 C 
ENDBRANCH   1  20
BRANCH   2  21
ATOM     21  C   UNL     1      -1.520  14.160  20.391  0.00  0.00    +0.000 C 
ATOM     22  N   UNL     1      -2.072  15.179  20.497  0.00  0.00    +0.000 NA
ENDBRANCH   2  21
TORSDOF 3
ENDMDL
MODEL 8
REMARK VINA RESULT:      -6.1      6.679      8.014
REMARK  Name = 
REMARK  4 active torsions:
REMARK  status: ('A' for Active; 'I' for Inactive)
REMARK    1  A    between atoms: C_1  and  C_2
REMARK    2  A    between atoms: C_2  and  C_3
REMARK    3  A    between atoms: C_4  and  C_5
REMARK    4  A    between atoms: C_7  and  N_8
REMARK                            x       y       z     vdW  Elec       q    Type
REMARK                         _______ _______ _______ _____ _____    ______ ____
ROOT
ATOM      1  C   UNL     1       0.507  10.526  19.783  0.00  0.00    +0.000 C 
ATOM      2  C   UNL     1      -0.205  10.443  21.140  0.00  0.00    +0.000 C 
ATOM      3  C   UNL     1      -0.117   9.342  21.926  0.00  0.00    +0.000 C 
ATOM      4  O   UNL     1       0.578   8.222  21.518  0.00  0.00    +0.000 OA
ATOM      5  C   UNL     1       1.248   8.208  20.315  0.00  0.00    +0.000 A 
ATOM      6  C   UNL     1       1.271   9.252  19.469  0.00  0.00    +0.000 A 
ATOM      7  C   UNL     1       1.995   9.134  18.182  0.00  0.00    +0.000 A 
ATOM      8  O   UNL     1       1.943  10.011  17.329  0.00  0.00    +0.000 OA
ATOM      9  O   UNL     1       2.754   7.986  17.973  0.00  0.00    +0.000 OA
ATOM     10  C   UNL     1       2.696   6.892  18.853  0.00  0.00    +0.000 A 
ATOM     11  C   UNL     1       3.407   5.745  18.504  0.00  0.00    +0.000 A 
ATOM     12  C   UNL     1       3.342   4.626  19.332  0.00  0.00    +0.000 A 
ATOM     13  C   UNL     1       2.571   4.663  20.494  0.00  0.00    +0.000 A 
ATOM     14  C   UNL     1       1.873   5.825  20.834  0.00  0.00    +0.000 A 
ATOM     15  C   UNL     1       1.936   6.959  20.013  0.00  0.00    +0.000 A 
ENDROOT
BRANCH   3  16
ATOM     16  N   UNL     1      -0.676   9.187  23.170  0.00  0.00    +0.000 N 
ATOM     17  H   UNL     1      -0.817   8.231  23.494  0.00  0.00    +0.000 HD
ATOM     18  H   UNL     1      -0.257   9.798  23.867  0.00  0.00    +0.000 HD
ENDBRANCH   3  16
BRANCH   1  20
ATOM     19  C   UNL     1       0.789  12.906  18.763  0.00  0.00    +0.000 C 
ATOM     20  C   UNL     1       1.356  11.824  19.670  0.00  0.00    +0.000 C 
ENDBRANCH   1  20
BRANCH   2  21
ATOM     21  C   UNL     1      -0.995  11.542  21.583  0.00  0.00    +0.000 C 
ATOM     22  N   UNL     1      -1.678  12.417  21.934  0.00  0.00    +0.000 NA
ENDBRANCH   2  21
TORSDOF 3
ENDMDL
MODEL 9
REMARK VINA RESULT:      -6.0      3.019      5.672
REMARK  Name = 
REMARK  4 active torsions:
REMARK  status: ('A' for Active; 'I' for Inactive)
REMARK    1  A    between atoms: C_1  and  C_2
REMARK    2  A    between atoms: C_2  and  C_3
REMARK    3  A    between atoms: C_4  and  C_5
REMARK    4  A    between atoms: C_7  and  N_8
REMARK                            x       y       z     vdW  Elec       q    Type
REMARK                         _______ _______ _______ _____ _____    ______ ____
ROOT
ATOM      1  C   UNL     1       2.575   5.080  18.825  0.00  0.00    +0.000 C 
ATOM      2  C   UNL     1       2.361   3.583  19.090  0.00  0.00    +0.000 C 
ATOM      3  C   UNL     1       3.037   2.633  18.399  0.00  0.00    +0.000 C 
ATOM      4  O   UNL     1       3.915   2.967  17.387  0.00  0.00    +0.000 OA
ATOM      5  C   UNL     1       4.168   4.286  17.082  0.00  0.00    +0.000 A 
ATOM      6  C   UNL     1       3.593   5.317  17.724  0.00  0.00    +0.000 A 
ATOM      7  C   UNL     1       3.906   6.704  17.306  0.00  0.00    +0.000 A 
ATOM      8  O   UNL     1       3.317   7.669  17.777  0.00  0.00    +0.000 OA
ATOM      9  O   UNL     1       4.907   6.880  16.356  0.00  0.00    +0.000 OA
ATOM     10  C   UNL     1       5.478   5.792  15.674  0.00  0.00    +0.000 A 
ATOM     11  C   UNL     1       6.395   6.073  14.662  0.00  0.00    +0.000 A 
ATOM     12  C   UNL     1       6.952   5.022  13.937  0.00  0.00    +0.000 A 
ATOM     13  C   UNL     1       6.588   3.706  14.227  0.00  0.00    +0.000 A 
ATOM     14  C   UNL     1       5.675   3.442  15.250  0.00  0.00    +0.000 A 
ATOM     15  C   UNL     1       5.113   4.490  15.991  0.00  0.00    +0.000 A 
ENDROOT
BRANCH   3  16
ATOM     16  N   UNL     1       2.951   1.277  18.589  0.00  0.00    +0.000 N 
ATOM     17  H   UNL     1       3.418   0.685  17.902  0.00  0.00    +0.000 HD
ATOM     18  H   UNL     1       3.131   1.004  19.553  0.00  0.00    +0.000 HD
ENDBRANCH   3  16
BRANCH   1  20
ATOM     19  C   UNL     1       1.737   6.718  20.668  0.00  0.00    +0.000 C 
ATOM     20  C   UNL     1       2.871   5.848  20.144  0.00  0.00    +0.000 C 
ENDBRANCH   1  20
BRANCH   2  21
ATOM     21  C   UNL     1       1.416   3.176  20.074  0.00  0.00    +0.000 C 
ATOM     22  N   UNL     1       0.674   2.851  20.909  0.00  0.00    +0.000 NA
ENDBRANCH   2  21
TORSDOF 3
ENDMDL
