MODEL 1
REMARK VINA RESULT:      -7.9      0.000      0.000
REMARK  Name = 
REMARK  4 active torsions:
REMARK  status: ('A' for Active; 'I' for Inactive)
REMARK    1  A    between atoms: C_1  and  C_2
REMARK    2  A    between atoms: C_2  and  C_3
REMARK    3  A    between atoms: C_6  and  C_7
REMARK    4  A    between atoms: C_19  and  C_20
REMARK                            x       y       z     vdW  Elec       q    Type
REMARK                         _______ _______ _______ _____ _____    ______ ____
ROOT
ATOM      1  C   UNL     1       2.486   1.934  19.839  0.00  0.00    +0.000 C 
ATOM      2  C   UNL     1       2.331   3.178  18.936  0.00  0.00    +0.000 C 
ATOM      3  C   UNL     1       1.942   2.663  17.537  0.00  0.00    +0.000 C 
ATOM      4  C   UNL     1       1.115   4.014  19.466  0.00  0.00    +0.000 C 
ATOM      5  O   UNL     1       1.362   4.854  20.594  0.00  0.00    +0.000 OA
ATOM      6  C   UNL     1       2.555   5.656  20.499  0.00  0.00    +0.000 C 
ATOM      7  C   UNL     1       3.782   4.770  20.228  0.00  0.00    +0.000 C 
ATOM      8  N   UNL     1       3.618   3.957  19.006  0.00  0.00    +0.000 N 
ATOM      9  C   UNL     1       4.515   4.178  17.974  0.00  0.00    +0.000 A 
ATOM     10  C   UNL     1       5.862   4.522  18.202  0.00  0.00    +0.000 A 
ATOM     11  N   UNL     1       6.780   4.823  17.239  0.00  0.00    +0.000 NA
ATOM     12  C   UNL     1       6.317   4.751  15.976  0.00  0.00    +0.000 A 
ATOM     13  C   UNL     1       5.011   4.387  15.711  0.00  0.00    +0.000 A 
ATOM     14  N   UNL     1       4.110   4.103  16.689  0.00  0.00    +0.000 NA
ENDROOT
BRANCH   6  15
ATOM     15  C   UNL     1       2.412   6.891  19.604  0.00  0.00    +0.000 A 
ATOM     16  C   UNL     1       3.000   6.939  18.325  0.00  0.00    +0.000 A 
ATOM     17  C   UNL     1       2.743   7.976  17.426  0.00  0.00    +0.000 A 
ATOM     18  C   UNL     1       1.932   9.032  17.805  0.00  0.00    +0.000 A 
ATOM     19  C   UNL     1       1.429   9.074  19.103  0.00  0.00    +0.000 A 
ATOM     20  C   UNL     1       1.678   8.024  19.999  0.00  0.00    +0.000 A 
ATOM     21 CL   UNL     1       1.087   8.235  21.612  0.00  0.00    +0.000 Cl
ENDBRANCH   6  15
BRANCH  12  22
ATOM     22  C   UNL     1       7.230   5.073  14.919  0.00  0.00    +0.000 C 
ATOM     23  N   UNL     1       7.962   5.379  14.073  0.00  0.00    +0.000 NA
ENDBRANCH  12  22
TORSDOF 2
ENDMDL
MODEL 2
REMARK VINA RESULT:      -7.4      3.074      5.438
REMARK  Name = 
REMARK  4 active torsions:
REMARK  status: ('A' for Active; 'I' for Inactive)
REMARK    1  A    between atoms: C_1  and  C_2
REMARK    2  A    between atoms: C_2  and  C_3
REMARK    3  A    between atoms: C_6  and  C_7
REMARK    4  A    between atoms: C_19  and  C_20
REMARK                            x       y       z     vdW  Elec       q    Type
REMARK                         _______ _______ _______ _____ _____    ______ ____
ROOT
ATOM      1  C   UNL     1       1.428   2.843  19.361  0.00  0.00    +0.000 C 
ATOM      2  C   UNL     1       2.522   3.877  19.715  0.00  0.00    +0.000 C 
ATOM      3  C   UNL     1       2.193   4.401  21.126  0.00  0.00    +0.000 C 
ATOM      4  C   UNL     1       3.890   3.119  19.820  0.00  0.00    +0.000 C 
ATOM      5  O   UNL     1       4.553   2.828  18.589  0.00  0.00    +0.000 OA
ATOM      6  C   UNL     1       4.628   3.934  17.668  0.00  0.00    +0.000 C 
ATOM      7  C   UNL     1       3.227   4.499  17.385  0.00  0.00    +0.000 C 
ATOM      8  N   UNL     1       2.539   4.916  18.624  0.00  0.00    +0.000 N 
ATOM      9  C   UNL     1       2.210   6.256  18.745  0.00  0.00    +0.000 A 
ATOM     10  C   UNL     1       1.834   7.046  17.641  0.00  0.00    +0.000 A 
ATOM     11  N   UNL     1       1.567   8.383  17.674  0.00  0.00    +0.000 NA
ATOM     12  C   UNL     1       1.665   8.948  18.892  0.00  0.00    +0.000 A 
ATOM     13  C   UNL     1       2.001   8.200  20.004  0.00  0.00    +0.000 A 
ATOM     14  N   UNL     1       2.275   6.869  19.945  0.00  0.00    +0.000 NA
ENDROOT
BRANCH   6  15
ATOM     15  C   UNL     1       5.708   4.964  18.011  0.00  0.00    +0.000 A 
ATOM     16  C   UNL     1       6.374   4.939  19.252  0.00  0.00    +0.000 A 
ATOM     17  C   UNL     1       7.475   5.755  19.522  0.00  0.00    +0.000 A 
ATOM     18  C   UNL     1       7.907   6.667  18.575  0.00  0.00    +0.000 A 
ATOM     19  C   UNL     1       7.199   6.798  17.383  0.00  0.00    +0.000 A 
ATOM     20  C   UNL     1       6.102   5.969  17.108  0.00  0.00    +0.000 A 
ATOM     21 CL   UNL     1       5.241   6.293  15.642  0.00  0.00    +0.000 Cl
ENDBRANCH   6  15
BRANCH  12  22
ATOM     22  C   UNL     1       1.414  10.356  18.990  0.00  0.00    +0.000 C 
ATOM     23  N   UNL     1       1.179  11.491  19.034  0.00  0.00    +0.000 NA
ENDBRANCH  12  22
TORSDOF 2
ENDMDL
MODEL 3
REMARK VINA RESULT:      -6.8      2.866      4.017
REMARK  Name = 
REMARK  4 active torsions:
REMARK  status: ('A' for Active; 'I' for Inactive)
REMARK    1  A    between atoms: C_1  and  C_2
REMARK    2  A    between atoms: C_2  and  C_3
REMARK    3  A    between atoms: C_6  and  C_7
REMARK    4  A    between atoms: C_19  and  C_20
REMARK                            x       y       z     vdW  Elec       q    Type
REMARK                         _______ _______ _______ _____ _____    ______ ____
ROOT
ATOM      1  C   UNL     1       6.150   3.286  15.505  0.00  0.00    +0.000 C 
ATOM      2  C   UNL     1       5.438   4.559  16.018  0.00  0.00    +0.000 C 
ATOM      3  C   UNL     1       5.574   5.617  14.907  0.00  0.00    +0.000 C 
ATOM      4  C   UNL     1       3.911   4.238  16.156  0.00  0.00    +0.000 C 
ATOM      5  O   UNL     1       3.511   3.532  17.331  0.00  0.00    +0.000 OA
ATOM      6  C   UNL     1       4.057   4.049  18.560  0.00  0.00    +0.000 C 
ATOM      7  C   UNL     1       5.591   4.113  18.485  0.00  0.00    +0.000 C 
ATOM      8  N   UNL     1       6.056   4.925  17.342  0.00  0.00    +0.000 N 
ATOM      9  C   UNL     1       6.794   6.061  17.631  0.00  0.00    +0.000 A 
ATOM     10  C   UNL     1       7.683   6.129  18.722  0.00  0.00    +0.000 A 
ATOM     11  N   UNL     1       8.386   7.233  19.107  0.00  0.00    +0.000 NA
ATOM     12  C   UNL     1       8.196   8.320  18.336  0.00  0.00    +0.000 A 
ATOM     13  C   UNL     1       7.357   8.283  17.239  0.00  0.00    +0.000 A 
ATOM     14  N   UNL     1       6.656   7.174  16.881  0.00  0.00    +0.000 NA
ENDROOT
BRANCH   6  15
ATOM     15  C   UNL     1       3.360   5.311  19.075  0.00  0.00    +0.000 A 
ATOM     16  C   UNL     1       3.457   6.534  18.383  0.00  0.00    +0.000 A 
ATOM     17  C   UNL     1       2.695   7.651  18.735  0.00  0.00    +0.000 A 
ATOM     18  C   UNL     1       1.854   7.594  19.833  0.00  0.00    +0.000 A 
ATOM     19  C   UNL     1       1.823   6.438  20.608  0.00  0.00    +0.000 A 
ATOM     20  C   UNL     1       2.578   5.313  20.245  0.00  0.00    +0.000 A 
ATOM     21 CL   UNL     1       2.535   3.973  21.339  0.00  0.00    +0.000 Cl
ENDBRANCH   6  15
BRANCH  12  22
ATOM     22  C   UNL     1       8.894   9.517  18.700  0.00  0.00    +0.000 C 
ATOM     23  N   UNL     1       9.464  10.469  19.037  0.00  0.00    +0.000 NA
ENDBRANCH  12  22
TORSDOF 2
ENDMDL
MODEL 4
REMARK VINA RESULT:      -6.0      7.776      9.547
REMARK  Name = 
REMARK  4 active torsions:
REMARK  status: ('A' for Active; 'I' for Inactive)
REMARK    1  A    between atoms: C_1  and  C_2
REMARK    2  A    between atoms: C_2  and  C_3
REMARK    3  A    between atoms: C_6  and  C_7
REMARK    4  A    between atoms: C_19  and  C_20
REMARK                            x       y       z     vdW  Elec       q    Type
REMARK                         _______ _______ _______ _____ _____    ______ ____
ROOT
ATOM      1  C   UNL     1      -1.418  11.299  23.128  0.00  0.00    +0.000 C 
ATOM      2  C   UNL     1      -1.564  12.360  22.013  0.00  0.00    +0.000 C 
ATOM      3  C   UNL     1      -3.074  12.607  21.836  0.00  0.00    +0.000 C 
ATOM      4  C   UNL     1      -0.943  13.701  22.537  0.00  0.00    +0.000 C 
ATOM      5  O   UNL     1       0.479  13.815  22.468  0.00  0.00    +0.000 OA
ATOM      6  C   UNL     1       1.055  13.420  21.209  0.00  0.00    +0.000 C 
ATOM      7  C   UNL     1       0.627  11.989  20.843  0.00  0.00    +0.000 C 
ATOM      8  N   UNL     1      -0.843  11.847  20.795  0.00  0.00    +0.000 N 
ATOM      9  C   UNL     1      -1.406  11.499  19.578  0.00  0.00    +0.000 A 
ATOM     10  C   UNL     1      -0.763  10.642  18.664  0.00  0.00    +0.000 A 
ATOM     11  N   UNL     1      -1.223  10.314  17.422  0.00  0.00    +0.000 NA
ATOM     12  C   UNL     1      -2.407  10.866  17.096  0.00  0.00    +0.000 A 
ATOM     13  C   UNL     1      -3.083  11.687  17.979  0.00  0.00    +0.000 A 
ATOM     14  N   UNL     1      -2.598  12.010  19.207  0.00  0.00    +0.000 NA
ENDROOT
BRANCH   6  15
ATOM     15  C   UNL     1       0.914  14.464  20.098  0.00  0.00    +0.000 A 
ATOM     16  C   UNL     1      -0.347  14.976  19.732  0.00  0.00    +0.000 A 
ATOM     17  C   UNL     1      -0.487  16.048  18.848  0.00  0.00    +0.000 A 
ATOM     18  C   UNL     1       0.634  16.604  18.255  0.00  0.00    +0.000 A 
ATOM     19  C   UNL     1       1.884  16.046  18.504  0.00  0.00    +0.000 A 
ATOM     20  C   UNL     1       2.024  14.978  19.404  0.00  0.00    +0.000 A 
ATOM     21 CL   UNL     1       3.611  14.304  19.556  0.00  0.00    +0.000 Cl
ENDBRANCH   6  15
BRANCH  12  22
ATOM     22  C   UNL     1      -2.936  10.573  15.797  0.00  0.00    +0.000 C 
ATOM     23  N   UNL     1      -3.408  10.336  14.764  0.00  0.00    +0.000 NA
ENDBRANCH  12  22
TORSDOF 2
ENDMDL
MODEL 5
REMARK VINA RESULT:      -6.0      9.688     11.855
REMARK  Name = 
REMARK  4 active torsions:
REMARK  status: ('A' for Active; 'I' for Inactive)
REMARK    1  A    between atoms: C_1  and  C_2
REMARK    2  A    between atoms: C_2  and  C_3
REMARK    3  A    between atoms: C_6  and  C_7
REMARK    4  A    between atoms: C_19  and  C_20
REMARK                            x       y       z     vdW  Elec       q    Type
REMARK                         _______ _______ _______ _____ _____    ______ ____
ROOT
ATOM      1  C   UNL     1       8.744  17.426  20.842  0.00  0.00    +0.000 C 
ATOM      2  C   UNL     1       8.344  15.984  20.454  0.00  0.00    +0.000 C 
ATOM      3  C   UNL     1       6.819  15.991  20.242  0.00  0.00    +0.000 C 
ATOM      4  C   UNL     1       8.995  15.657  19.066  0.00  0.00    +0.000 C 
ATOM      5  O   UNL     1      10.372  15.279  19.081  0.00  0.00    +0.000 OA
ATOM      6  C   UNL     1      10.717  14.294  20.073  0.00  0.00    +0.000 C 
ATOM      7  C   UNL     1      10.289  14.763  21.473  0.00  0.00    +0.000 C 
ATOM      8  N   UNL     1       8.844  15.065  21.538  0.00  0.00    +0.000 N 
ATOM      9  C   UNL     1       8.077  14.303  22.404  0.00  0.00    +0.000 A 
ATOM     10  C   UNL     1       8.572  13.826  23.634  0.00  0.00    +0.000 A 
ATOM     11  N   UNL     1       7.900  13.015  24.500  0.00  0.00    +0.000 NA
ATOM     12  C   UNL     1       6.653  12.686  24.113  0.00  0.00    +0.000 A 
ATOM     13  C   UNL     1       6.122  13.159  22.929  0.00  0.00    +0.000 A 
ATOM     14  N   UNL     1       6.816  13.958  22.074  0.00  0.00    +0.000 NA
ENDROOT
BRANCH   6  15
ATOM     15  C   UNL     1      10.324  12.862  19.699  0.00  0.00    +0.000 A 
ATOM     16  C   UNL     1       9.895  11.942  20.676  0.00  0.00    +0.000 A 
ATOM     17  C   UNL     1       9.370  10.692  20.343  0.00  0.00    +0.000 A 
ATOM     18  C   UNL     1       9.313  10.300  19.017  0.00  0.00    +0.000 A 
ATOM     19  C   UNL     1       9.835  11.137  18.035  0.00  0.00    +0.000 A 
ATOM     20  C   UNL     1      10.350  12.398  18.371  0.00  0.00    +0.000 A 
ATOM     21 CL   UNL     1      11.062  13.306  17.081  0.00  0.00    +0.000 Cl
ENDBRANCH   6  15
BRANCH  12  22
ATOM     22  C   UNL     1       5.901  11.820  24.974  0.00  0.00    +0.000 C 
ATOM     23  N   UNL     1       5.284  11.157  25.698  0.00  0.00    +0.000 NA
ENDBRANCH  12  22
TORSDOF 2
ENDMDL
MODEL 6
REMARK VINA RESULT:      -5.9     10.246     12.487
REMARK  Name = 
REMARK  4 active torsions:
REMARK  status: ('A' for Active; 'I' for Inactive)
REMARK    1  A    between atoms: C_1  and  C_2
REMARK    2  A    between atoms: C_2  and  C_3
REMARK    3  A    between atoms: C_6  and  C_7
REMARK    4  A    between atoms: C_19  and  C_20
REMARK                            x       y       z     vdW  Elec       q    Type
REMARK                         _______ _______ _______ _____ _____    ______ ____
ROOT
ATOM      1  C   UNL     1       9.147  18.077  19.176  0.00  0.00    +0.000 C 
ATOM      2  C   UNL     1       8.739  16.587  19.129  0.00  0.00    +0.000 C 
ATOM      3  C   UNL     1       7.229  16.553  18.828  0.00  0.00    +0.000 C 
ATOM      4  C   UNL     1       9.461  15.925  17.905  0.00  0.00    +0.000 C 
ATOM      5  O   UNL     1      10.826  15.552  18.095  0.00  0.00    +0.000 OA
ATOM      6  C   UNL     1      11.091  14.837  19.317  0.00  0.00    +0.000 C 
ATOM      7  C   UNL     1      10.594  15.638  20.531  0.00  0.00    +0.000 C 
ATOM      8  N   UNL     1       9.155  15.957  20.432  0.00  0.00    +0.000 N 
ATOM      9  C   UNL     1       8.322  15.437  21.409  0.00  0.00    +0.000 A 
ATOM     10  C   UNL     1       8.735  15.272  22.746  0.00  0.00    +0.000 A 
ATOM     11  N   UNL     1       7.996  14.703  23.742  0.00  0.00    +0.000 NA
ATOM     12  C   UNL     1       6.767  14.298  23.371  0.00  0.00    +0.000 A 
ATOM     13  C   UNL     1       6.315  14.472  22.077  0.00  0.00    +0.000 A 
ATOM     14  N   UNL     1       7.075  15.031  21.097  0.00  0.00    +0.000 NA
ENDROOT
BRANCH   6  15
ATOM     15  C   UNL     1      10.688  13.360  19.281  0.00  0.00    +0.000 A 
ATOM     16  C   UNL     1      10.251  12.692  20.442  0.00  0.00    +0.000 A 
ATOM     17  C   UNL     1       9.717  11.402  20.402  0.00  0.00    +0.000 A 
ATOM     18  C   UNL     1       9.660  10.716  19.202  0.00  0.00    +0.000 A 
ATOM     19  C   UNL     1      10.191  11.302  18.056  0.00  0.00    +0.000 A 
ATOM     20  C   UNL     1      10.714  12.603  18.095  0.00  0.00    +0.000 A 
ATOM     21 CL   UNL     1      11.436  13.186  16.634  0.00  0.00    +0.000 Cl
ENDBRANCH   6  15
BRANCH  12  22
ATOM     22  C   UNL     1       5.947  13.676  24.369  0.00  0.00    +0.000 C 
ATOM     23  N   UNL     1       5.271  13.215  25.190  0.00  0.00    +0.000 NA
ENDBRANCH  12  22
TORSDOF 2
ENDMDL
MODEL 7
REMARK VINA RESULT:      -5.9      2.310      4.359
REMARK  Name = 
REMARK  4 active torsions:
REMARK  status: ('A' for Active; 'I' for Inactive)
REMARK    1  A    between atoms: C_1  and  C_2
REMARK    2  A    between atoms: C_2  and  C_3
REMARK    3  A    between atoms: C_6  and  C_7
REMARK    4  A    between atoms: C_19  and  C_20
REMARK                            x       y       z     vdW  Elec       q    Type
REMARK                         _______ _______ _______ _____ _____    ______ ____
ROOT
ATOM      1  C   UNL     1       7.668   6.903  18.267  0.00  0.00    +0.000 C 
ATOM      2  C   UNL     1       6.852   5.598  18.129  0.00  0.00    +0.000 C 
ATOM      3  C   UNL     1       7.871   4.457  17.955  0.00  0.00    +0.000 C 
ATOM      4  C   UNL     1       6.113   5.343  19.487  0.00  0.00    +0.000 C 
ATOM      5  O   UNL     1       4.910   6.080  19.707  0.00  0.00    +0.000 OA
ATOM      6  C   UNL     1       3.992   6.082  18.597  0.00  0.00    +0.000 C 
ATOM      7  C   UNL     1       4.687   6.585  17.321  0.00  0.00    +0.000 C 
ATOM      8  N   UNL     1       5.883   5.782  16.990  0.00  0.00    +0.000 N 
ATOM      9  C   UNL     1       5.872   5.097  15.787  0.00  0.00    +0.000 A 
ATOM     10  C   UNL     1       5.241   5.602  14.633  0.00  0.00    +0.000 A 
ATOM     11  N   UNL     1       5.129   4.954  13.439  0.00  0.00    +0.000 NA
ATOM     12  C   UNL     1       5.706   3.737  13.402  0.00  0.00    +0.000 A 
ATOM     13  C   UNL     1       6.361   3.221  14.503  0.00  0.00    +0.000 A 
ATOM     14  N   UNL     1       6.449   3.881  15.688  0.00  0.00    +0.000 NA
ENDROOT
BRANCH   6  15
ATOM     15  C   UNL     1       3.180   4.792  18.451  0.00  0.00    +0.000 A 
ATOM     16  C   UNL     1       3.376   3.924  17.359  0.00  0.00    +0.000 A 
ATOM     17  C   UNL     1       2.776   2.665  17.292  0.00  0.00    +0.000 A 
ATOM     18  C   UNL     1       1.910   2.260  18.293  0.00  0.00    +0.000 A 
ATOM     19  C   UNL     1       1.603   3.140  19.327  0.00  0.00    +0.000 A 
ATOM     20  C   UNL     1       2.218   4.399  19.399  0.00  0.00    +0.000 A 
ATOM     21 CL   UNL     1       1.683   5.443  20.672  0.00  0.00    +0.000 Cl
ENDBRANCH   6  15
BRANCH  12  22
ATOM     22  C   UNL     1       5.607   2.997  12.178  0.00  0.00    +0.000 C 
ATOM     23  N   UNL     1       5.494   2.372  11.208  0.00  0.00    +0.000 NA
ENDBRANCH  12  22
TORSDOF 2
ENDMDL
MODEL 8
REMARK VINA RESULT:      -5.9      8.426     11.575
REMARK  Name = 
REMARK  4 active torsions:
REMARK  status: ('A' for Active; 'I' for Inactive)
REMARK    1  A    between atoms: C_1  and  C_2
REMARK    2  A    between atoms: C_2  and  C_3
REMARK    3  A    between atoms: C_6  and  C_7
REMARK    4  A    between atoms: C_19  and  C_20
REMARK                            x       y       z     vdW  Elec       q    Type
REMARK                         _______ _______ _______ _____ _____    ______ ____
ROOT
ATOM      1  C   UNL     1       0.370  15.408  21.525  0.00  0.00    +0.000 C 
ATOM      2  C   UNL     1      -0.783  14.796  20.697  0.00  0.00    +0.000 C 
ATOM      3  C   UNL     1      -1.810  15.921  20.472  0.00  0.00    +0.000 C 
ATOM      4  C   UNL     1      -0.216  14.410  19.288  0.00  0.00    +0.000 C 
ATOM      5  O   UNL     1       0.507  13.181  19.205  0.00  0.00    +0.000 OA
ATOM      6  C   UNL     1      -0.136  12.060  19.843  0.00  0.00    +0.000 C 
ATOM      7  C   UNL     1      -0.453  12.382  21.312  0.00  0.00    +0.000 C 
ATOM      8  N   UNL     1      -1.292  13.591  21.444  0.00  0.00    +0.000 N 
ATOM      9  C   UNL     1      -2.545  13.433  22.014  0.00  0.00    +0.000 A 
ATOM     10  C   UNL     1      -2.798  12.500  23.039  0.00  0.00    +0.000 A 
ATOM     11  N   UNL     1      -4.016  12.241  23.595  0.00  0.00    +0.000 NA
ATOM     12  C   UNL     1      -5.029  12.979  23.103  0.00  0.00    +0.000 A 
ATOM     13  C   UNL     1      -4.815  13.926  22.120  0.00  0.00    +0.000 A 
ATOM     14  N   UNL     1      -3.593  14.158  21.571  0.00  0.00    +0.000 NA
ENDROOT
BRANCH   6  15
ATOM     15  C   UNL     1      -1.280  11.447  19.031  0.00  0.00    +0.000 A 
ATOM     16  C   UNL     1      -2.602  11.917  19.160  0.00  0.00    +0.000 A 
ATOM     17  C   UNL     1      -3.628  11.496  18.311  0.00  0.00    +0.000 A 
ATOM     18  C   UNL     1      -3.373  10.543  17.341  0.00  0.00    +0.000 A 
ATOM     19  C   UNL     1      -2.106   9.972  17.263  0.00  0.00    +0.000 A 
ATOM     20  C   UNL     1      -1.073  10.407  18.107  0.00  0.00    +0.000 A 
ATOM     21 CL   UNL     1       0.428   9.554  17.985  0.00  0.00    +0.000 Cl
ENDBRANCH   6  15
BRANCH  12  22
ATOM     22  C   UNL     1      -6.339  12.741  23.635  0.00  0.00    +0.000 C 
ATOM     23  N   UNL     1      -7.407  12.519  24.030  0.00  0.00    +0.000 NA
ENDBRANCH  12  22
TORSDOF 2
ENDMDL
MODEL 9
REMARK VINA RESULT:      -5.7      6.909      9.628
REMARK  Name = 
REMARK  4 active torsions:
REMARK  status: ('A' for Active; 'I' for Inactive)
REMARK    1  A    between atoms: C_1  and  C_2
REMARK    2  A    between atoms: C_2  and  C_3
REMARK    3  A    between atoms: C_6  and  C_7
REMARK    4  A    between atoms: C_19  and  C_20
REMARK                            x       y       z     vdW  Elec       q    Type
REMARK                         _______ _______ _______ _____ _____    ______ ____
ROOT
ATOM      1  C   UNL     1      -1.596  13.760  23.600  0.00  0.00    +0.000 C 
ATOM      2  C   UNL     1      -2.184  12.644  22.705  0.00  0.00    +0.000 C 
ATOM      3  C   UNL     1      -1.735  11.305  23.319  0.00  0.00    +0.000 C 
ATOM      4  C   UNL     1      -3.745  12.699  22.827  0.00  0.00    +0.000 C 
ATOM      5  O   UNL     1      -4.412  13.689  22.043  0.00  0.00    +0.000 OA
ATOM      6  C   UNL     1      -3.984  13.759  20.669  0.00  0.00    +0.000 C 
ATOM      7  C   UNL     1      -2.463  13.964  20.586  0.00  0.00    +0.000 C 
ATOM      8  N   UNL     1      -1.722  12.900  21.295  0.00  0.00    +0.000 N 
ATOM      9  C   UNL     1      -0.878  12.104  20.537  0.00  0.00    +0.000 A 
ATOM     10  C   UNL     1      -0.160  12.600  19.432  0.00  0.00    +0.000 A 
ATOM     11  N   UNL     1       0.630  11.861  18.601  0.00  0.00    +0.000 NA
ATOM     12  C   UNL     1       0.716  10.555  18.917  0.00  0.00    +0.000 A 
ATOM     13  C   UNL     1       0.051  10.038  20.012  0.00  0.00    +0.000 A 
ATOM     14  N   UNL     1      -0.742  10.792  20.820  0.00  0.00    +0.000 NA
ENDROOT
BRANCH   6  15
ATOM     15  C   UNL     1      -4.560  12.658  19.775  0.00  0.00    +0.000 A 
ATOM     16  C   UNL     1      -3.760  11.996  18.822  0.00  0.00    +0.000 A 
ATOM     17  C   UNL     1      -4.211  10.877  18.119  0.00  0.00    +0.000 A 
ATOM     18  C   UNL     1      -5.505  10.421  18.306  0.00  0.00    +0.000 A 
ATOM     19  C   UNL     1      -6.359  11.122  19.153  0.00  0.00    +0.000 A 
ATOM     20  C   UNL     1      -5.899  12.237  19.869  0.00  0.00    +0.000 A 
ATOM     21 CL   UNL     1      -7.078  13.085  20.811  0.00  0.00    +0.000 Cl
ENDBRANCH   6  15
BRANCH  12  22
ATOM     22  C   UNL     1       1.518   9.722  18.071  0.00  0.00    +0.000 C 
ATOM     23  N   UNL     1       2.163   9.013  17.417  0.00  0.00    +0.000 NA
ENDBRANCH  12  22
TORSDOF 2
ENDMDL
