MODEL 1
REMARK VINA RESULT:      -9.9      0.000      0.000
REMARK  Name = 
REMARK  9 active torsions:
REMARK  status: ('A' for Active; 'I' for Inactive)
REMARK    1  A    between atoms: C_2  and  C_3
REMARK    2  A    between atoms: C_3  and  C_4
REMARK    3  A    between atoms: C_4  and  C_5
REMARK    4  A    between atoms: C_4  and  C_21
REMARK    5  A    between atoms: C_5  and  C_6
REMARK    6  A    between atoms: C_9  and  C_10
REMARK    7  A    between atoms: N_23  and  C_24
REMARK    8  A    between atoms: C_32  and  O_33
REMARK    9  A    between atoms: N_34  and  O_35
REMARK                            x       y       z     vdW  Elec       q    Type
REMARK                         _______ _______ _______ _____ _____    ______ ____
ROOT
ATOM      1  C   UNL     1       4.259   6.366  18.051  0.00  0.00    +0.000 C 
ENDROOT
BRANCH   1   2
ATOM      2  C   UNL     1       4.507   5.510  19.288  0.00  0.00    +0.000 C 
ATOM      3  O   UNL     1       5.629   5.307  19.760  0.00  0.00    +0.000 OA
ATOM      4  N   UNL     1       3.383   4.919  19.765  0.00  0.00    +0.000 N 
ATOM      5  H   UNL     1       2.498   5.366  19.564  0.00  0.00    +0.000 HD
BRANCH   4   6
ATOM      6  C   UNL     1       3.301   3.890  20.813  0.00  0.00    +0.000 C 
ATOM      7  C   UNL     1       3.255   2.493  20.112  0.00  0.00    +0.000 A 
ATOM      8  C   UNL     1       4.130   2.029  19.144  0.00  0.00    +0.000 A 
ATOM      9  C   UNL     1       3.640   1.911  17.848  0.00  0.00    +0.000 A 
ATOM     10  C   UNL     1       2.324   2.302  17.588  0.00  0.00    +0.000 A 
ATOM     11  C   UNL     1       1.427   2.453  18.653  0.00  0.00    +0.000 A 
ATOM     12  C   UNL     1       1.897   2.280  19.945  0.00  0.00    +0.000 A 
ATOM     13  C   UNL     1       1.246   2.595  21.256  0.00  0.00    +0.000 C 
ATOM     14  C   UNL     1       1.845   3.983  21.453  0.00  0.00    +0.000 C 
BRANCH  14  15
ATOM     15  O   UNL     1       0.995   4.930  20.750  0.00  0.00    +0.000 OA
ATOM     16  H   UNL     1       0.515   4.451  20.050  0.00  0.00    +0.000 HD
ENDBRANCH  14  15
ENDBRANCH   4   6
ENDBRANCH   1   2
BRANCH   1  17
ATOM     17  C   UNL     1       4.724   5.622  16.780  0.00  0.00    +0.000 C 
BRANCH  17  19
ATOM     18  O   UNL     1       6.947   6.341  16.131  0.00  0.00    +0.000 OA
ATOM     19  C   UNL     1       6.220   5.485  16.656  0.00  0.00    +0.000 C 
ATOM     20  N   UNL     1       6.748   4.301  17.142  0.00  0.00    +0.000 N 
ATOM     21  H   UNL     1       6.153   3.520  17.417  0.00  0.00    +0.000 HD
BRANCH  20  22
ATOM     22  O   UNL     1       8.118   4.043  16.929  0.00  0.00    +0.000 OA
ATOM     23  H   UNL     1       8.274   4.437  16.049  0.00  0.00    +0.000 HD
ENDBRANCH  20  22
ENDBRANCH  17  19
ENDBRANCH   1  17
BRANCH   1  24
ATOM     24  C   UNL     1       2.733   6.643  18.084  0.00  0.00    +0.000 C 
BRANCH  24  25
ATOM     25  C   UNL     1       2.253   7.994  18.544  0.00  0.00    +0.000 A 
ATOM     26  C   UNL     1       1.711   8.111  19.830  0.00  0.00    +0.000 A 
ATOM     27  C   UNL     1       0.999   9.252  20.189  0.00  0.00    +0.000 A 
ATOM     28  C   UNL     1       0.776  10.267  19.249  0.00  0.00    +0.000 A 
ATOM     29  C   UNL     1       1.507  10.228  18.050  0.00  0.00    +0.000 A 
ATOM     30  C   UNL     1       2.276   9.116  17.718  0.00  0.00    +0.000 A 
BRANCH  28  31
ATOM     31  C   UNL     1      -0.388  11.164  19.376  0.00  0.00    +0.000 A 
ATOM     32  C   UNL     1      -1.443  11.177  18.432  0.00  0.00    +0.000 A 
ATOM     33  C   UNL     1      -2.682  11.757  18.735  0.00  0.00    +0.000 A 
ATOM     34  C   UNL     1      -2.840  12.298  19.991  0.00  0.00    +0.000 A 
ATOM     35  C   UNL     1      -1.800  12.365  20.885  0.00  0.00    +0.000 A 
ATOM     36  C   UNL     1      -0.568  11.839  20.601  0.00  0.00    +0.000 A 
ATOM     37  O   UNL     1      -2.181  12.860  22.095  0.00  0.00    +0.000 OA
ATOM     38  C   UNL     1      -3.607  12.754  21.940  0.00  0.00    +0.000 C 
ATOM     39  O   UNL     1      -4.008  12.722  20.552  0.00  0.00    +0.000 OA
ENDBRANCH  28  31
ENDBRANCH  24  25
ENDBRANCH   1  24
TORSDOF 9
ENDMDL
MODEL 2
REMARK VINA RESULT:      -9.8      1.023      1.218
REMARK  Name = 
REMARK  9 active torsions:
REMARK  status: ('A' for Active; 'I' for Inactive)
REMARK    1  A    between atoms: C_2  and  C_3
REMARK    2  A    between atoms: C_3  and  C_4
REMARK    3  A    between atoms: C_4  and  C_5
REMARK    4  A    between atoms: C_4  and  C_21
REMARK    5  A    between atoms: C_5  and  C_6
REMARK    6  A    between atoms: C_9  and  C_10
REMARK    7  A    between atoms: N_23  and  C_24
REMARK    8  A    between atoms: C_32  and  O_33
REMARK    9  A    between atoms: N_34  and  O_35
REMARK                            x       y       z     vdW  Elec       q    Type
REMARK                         _______ _______ _______ _____ _____    ______ ____
ROOT
ATOM      1  C   UNL     1       4.680   6.074  18.221  0.00  0.00    +0.000 C 
ENDROOT
BRANCH   1   2
ATOM      2  C   UNL     1       4.912   4.874  19.133  0.00  0.00    +0.000 C 
ATOM      3  O   UNL     1       5.977   4.251  19.177  0.00  0.00    +0.000 OA
ATOM      4  N   UNL     1       3.805   4.503  19.824  0.00  0.00    +0.000 N 
ATOM      5  H   UNL     1       3.106   5.212  20.003  0.00  0.00    +0.000 HD
BRANCH   4   6
ATOM      6  C   UNL     1       3.635   3.287  20.633  0.00  0.00    +0.000 C 
ATOM      7  C   UNL     1       2.881   2.232  19.760  0.00  0.00    +0.000 A 
ATOM      8  C   UNL     1       3.220   1.832  18.477  0.00  0.00    +0.000 A 
ATOM      9  C   UNL     1       2.389   2.244  17.441  0.00  0.00    +0.000 A 
ATOM     10  C   UNL     1       1.296   3.063  17.742  0.00  0.00    +0.000 A 
ATOM     11  C   UNL     1       0.848   3.156  19.065  0.00  0.00    +0.000 A 
ATOM     12  C   UNL     1       1.551   2.485  20.052  0.00  0.00    +0.000 A 
ATOM     13  C   UNL     1       1.449   2.584  21.543  0.00  0.00    +0.000 C 
ATOM     14  C   UNL     1       2.553   3.614  21.755  0.00  0.00    +0.000 C 
BRANCH  14  15
ATOM     15  O   UNL     1       1.961   4.931  21.580  0.00  0.00    +0.000 OA
ATOM     16  H   UNL     1       2.322   5.325  20.765  0.00  0.00    +0.000 HD
ENDBRANCH  14  15
ENDBRANCH   4   6
ENDBRANCH   1   2
BRANCH   1  17
ATOM     17  C   UNL     1       5.269   5.806  16.819  0.00  0.00    +0.000 C 
BRANCH  17  19
ATOM     18  O   UNL     1       7.498   5.953  15.873  0.00  0.00    +0.000 OA
ATOM     19  C   UNL     1       6.610   6.453  16.579  0.00  0.00    +0.000 C 
ATOM     20  N   UNL     1       6.815   7.653  17.238  0.00  0.00    +0.000 N 
ATOM     21  H   UNL     1       6.170   7.992  17.952  0.00  0.00    +0.000 HD
BRANCH  20  22
ATOM     22  O   UNL     1       8.095   8.241  17.175  0.00  0.00    +0.000 OA
ATOM     23  H   UNL     1       8.126   8.584  16.262  0.00  0.00    +0.000 HD
ENDBRANCH  20  22
ENDBRANCH  17  19
ENDBRANCH   1  17
BRANCH   1  24
ATOM     24  C   UNL     1       3.139   6.253  18.221  0.00  0.00    +0.000 C 
BRANCH  24  25
ATOM     25  C   UNL     1       2.569   7.615  18.521  0.00  0.00    +0.000 A 
ATOM     26  C   UNL     1       1.898   7.809  19.734  0.00  0.00    +0.000 A 
ATOM     27  C   UNL     1       1.115   8.944  19.928  0.00  0.00    +0.000 A 
ATOM     28  C   UNL     1       0.952   9.872  18.891  0.00  0.00    +0.000 A 
ATOM     29  C   UNL     1       1.801   9.770  17.775  0.00  0.00    +0.000 A 
ATOM     30  C   UNL     1       2.636   8.669  17.611  0.00  0.00    +0.000 A 
BRANCH  28  31
ATOM     31  C   UNL     1      -0.248  10.727  18.830  0.00  0.00    +0.000 A 
ATOM     32  C   UNL     1      -1.341  10.442  17.976  0.00  0.00    +0.000 A 
ATOM     33  C   UNL     1      -2.593  11.038  18.175  0.00  0.00    +0.000 A 
ATOM     34  C   UNL     1      -2.726  11.896  19.243  0.00  0.00    +0.000 A 
ATOM     35  C   UNL     1      -1.655  12.243  20.029  0.00  0.00    +0.000 A 
ATOM     36  C   UNL     1      -0.411  11.704  19.833  0.00  0.00    +0.000 A 
ATOM     37  O   UNL     1      -2.010  13.036  21.077  0.00  0.00    +0.000 OA
ATOM     38  C   UNL     1      -3.434  12.840  21.033  0.00  0.00    +0.000 C 
ATOM     39  O   UNL     1      -3.890  12.414  19.729  0.00  0.00    +0.000 OA
ENDBRANCH  28  31
ENDBRANCH  24  25
ENDBRANCH   1  24
TORSDOF 9
ENDMDL
MODEL 3
REMARK VINA RESULT:      -9.7      1.816      4.624
REMARK  Name = 
REMARK  9 active torsions:
REMARK  status: ('A' for Active; 'I' for Inactive)
REMARK    1  A    between atoms: C_2  and  C_3
REMARK    2  A    between atoms: C_3  and  C_4
REMARK    3  A    between atoms: C_4  and  C_5
REMARK    4  A    between atoms: C_4  and  C_21
REMARK    5  A    between atoms: C_5  and  C_6
REMARK    6  A    between atoms: C_9  and  C_10
REMARK    7  A    between atoms: N_23  and  C_24
REMARK    8  A    between atoms: C_32  and  O_33
REMARK    9  A    between atoms: N_34  and  O_35
REMARK                            x       y       z     vdW  Elec       q    Type
REMARK                         _______ _______ _______ _____ _____    ______ ____
ROOT
ATOM      1  C   UNL     1       2.623   4.442  17.942  0.00  0.00    +0.000 C 
ENDROOT
BRANCH   1   2
ATOM      2  C   UNL     1       3.831   3.569  17.620  0.00  0.00    +0.000 C 
ATOM      3  O   UNL     1       4.173   2.602  18.308  0.00  0.00    +0.000 OA
ATOM      4  N   UNL     1       4.546   4.013  16.556  0.00  0.00    +0.000 N 
ATOM      5  H   UNL     1       4.059   4.568  15.865  0.00  0.00    +0.000 HD
BRANCH   4   6
ATOM      6  C   UNL     1       5.857   3.522  16.105  0.00  0.00    +0.000 C 
ATOM      7  C   UNL     1       6.958   4.402  16.782  0.00  0.00    +0.000 A 
ATOM      8  C   UNL     1       7.066   4.689  18.133  0.00  0.00    +0.000 A 
ATOM      9  C   UNL     1       6.777   5.990  18.532  0.00  0.00    +0.000 A 
ATOM     10  C   UNL     1       6.358   6.911  17.569  0.00  0.00    +0.000 A 
ATOM     11  C   UNL     1       6.577   6.639  16.213  0.00  0.00    +0.000 A 
ATOM     12  C   UNL     1       7.141   5.422  15.864  0.00  0.00    +0.000 A 
ATOM     13  C   UNL     1       7.278   4.775  14.521  0.00  0.00    +0.000 C 
ATOM     14  C   UNL     1       6.010   3.929  14.573  0.00  0.00    +0.000 C 
BRANCH  14  15
ATOM     15  O   UNL     1       4.910   4.762  14.112  0.00  0.00    +0.000 OA
ATOM     16  H   UNL     1       5.134   5.104  13.227  0.00  0.00    +0.000 HD
ENDBRANCH  14  15
ENDBRANCH   4   6
ENDBRANCH   1   2
BRANCH   1  17
ATOM     17  C   UNL     1       1.439   3.569  18.414  0.00  0.00    +0.000 C 
BRANCH  17  19
ATOM     18  O   UNL     1       0.602   4.283  20.575  0.00  0.00    +0.000 OA
ATOM     19  C   UNL     1       1.287   3.492  19.912  0.00  0.00    +0.000 C 
ATOM     20  N   UNL     1       2.004   2.481  20.528  0.00  0.00    +0.000 N 
ATOM     21  H   UNL     1       2.702   1.933  20.025  0.00  0.00    +0.000 HD
BRANCH  20  22
ATOM     22  O   UNL     1       2.025   2.438  21.937  0.00  0.00    +0.000 OA
ATOM     23  H   UNL     1       2.186   1.492  22.118  0.00  0.00    +0.000 HD
ENDBRANCH  20  22
ENDBRANCH  17  19
ENDBRANCH   1  17
BRANCH   1  24
ATOM     24  C   UNL     1       3.144   5.419  19.029  0.00  0.00    +0.000 C 
BRANCH  24  25
ATOM     25  C   UNL     1       2.690   6.854  18.989  0.00  0.00    +0.000 A 
ATOM     26  C   UNL     1       2.100   7.403  20.134  0.00  0.00    +0.000 A 
ATOM     27  C   UNL     1       1.411   8.610  20.057  0.00  0.00    +0.000 A 
ATOM     28  C   UNL     1       1.260   9.257  18.823  0.00  0.00    +0.000 A 
ATOM     29  C   UNL     1       2.039   8.807  17.743  0.00  0.00    +0.000 A 
ATOM     30  C   UNL     1       2.784   7.635  17.839  0.00  0.00    +0.000 A 
BRANCH  28  31
ATOM     31  C   UNL     1       0.122  10.164  18.586  0.00  0.00    +0.000 A 
ATOM     32  C   UNL     1      -0.908   9.865  17.662  0.00  0.00    +0.000 A 
ATOM     33  C   UNL     1      -2.136  10.540  17.698  0.00  0.00    +0.000 A 
ATOM     34  C   UNL     1      -2.308  11.492  18.677  0.00  0.00    +0.000 A 
ATOM     35  C   UNL     1      -1.290  11.849  19.526  0.00  0.00    +0.000 A 
ATOM     36  C   UNL     1      -0.067  11.231  19.488  0.00  0.00    +0.000 A 
ATOM     37  O   UNL     1      -1.685  12.746  20.471  0.00  0.00    +0.000 OA
ATOM     38  C   UNL     1      -3.110  12.621  20.315  0.00  0.00    +0.000 C 
ATOM     39  O   UNL     1      -3.476  12.110  19.013  0.00  0.00    +0.000 OA
ENDBRANCH  28  31
ENDBRANCH  24  25
ENDBRANCH   1  24
TORSDOF 9
ENDMDL
MODEL 4
REMARK VINA RESULT:      -9.5      0.826      1.325
REMARK  Name = 
REMARK  9 active torsions:
REMARK  status: ('A' for Active; 'I' for Inactive)
REMARK    1  A    between atoms: C_2  and  C_3
REMARK    2  A    between atoms: C_3  and  C_4
REMARK    3  A    between atoms: C_4  and  C_5
REMARK    4  A    between atoms: C_4  and  C_21
REMARK    5  A    between atoms: C_5  and  C_6
REMARK    6  A    between atoms: C_9  and  C_10
REMARK    7  A    between atoms: N_23  and  C_24
REMARK    8  A    between atoms: C_32  and  O_33
REMARK    9  A    between atoms: N_34  and  O_35
REMARK                            x       y       z     vdW  Elec       q    Type
REMARK                         _______ _______ _______ _____ _____    ______ ____
ROOT
ATOM      1  C   UNL     1       4.126   6.352  17.973  0.00  0.00    +0.000 C 
ENDROOT
BRANCH   1   2
ATOM      2  C   UNL     1       4.402   5.532  19.229  0.00  0.00    +0.000 C 
ATOM      3  O   UNL     1       5.527   5.405  19.723  0.00  0.00    +0.000 OA
ATOM      4  N   UNL     1       3.307   4.883  19.697  0.00  0.00    +0.000 N 
ATOM      5  H   UNL     1       2.401   5.273  19.475  0.00  0.00    +0.000 HD
BRANCH   4   6
ATOM      6  C   UNL     1       3.270   3.869  20.762  0.00  0.00    +0.000 C 
ATOM      7  C   UNL     1       3.253   2.461  20.083  0.00  0.00    +0.000 A 
ATOM      8  C   UNL     1       4.128   2.006  19.109  0.00  0.00    +0.000 A 
ATOM      9  C   UNL     1       3.625   1.854  17.822  0.00  0.00    +0.000 A 
ATOM     10  C   UNL     1       2.294   2.204  17.575  0.00  0.00    +0.000 A 
ATOM     11  C   UNL     1       1.408   2.347  18.650  0.00  0.00    +0.000 A 
ATOM     12  C   UNL     1       1.900   2.206  19.938  0.00  0.00    +0.000 A 
ATOM     13  C   UNL     1       1.258   2.523  21.253  0.00  0.00    +0.000 C 
ATOM     14  C   UNL     1       1.820   3.930  21.420  0.00  0.00    +0.000 C 
BRANCH  14  15
ATOM     15  O   UNL     1       0.934   4.842  20.715  0.00  0.00    +0.000 OA
ATOM     16  H   UNL     1       0.816   4.513  19.805  0.00  0.00    +0.000 HD
ENDBRANCH  14  15
ENDBRANCH   4   6
ENDBRANCH   1   2
BRANCH   1  17
ATOM     17  C   UNL     1       4.531   5.557  16.712  0.00  0.00    +0.000 C 
BRANCH  17  19
ATOM     18  O   UNL     1       6.685   6.249  15.838  0.00  0.00    +0.000 OA
ATOM     19  C   UNL     1       6.019   5.443  16.505  0.00  0.00    +0.000 C 
ATOM     20  N   UNL     1       6.615   4.338  17.089  0.00  0.00    +0.000 N 
ATOM     21  H   UNL     1       6.064   3.580  17.492  0.00  0.00    +0.000 HD
BRANCH  20  22
ATOM     22  O   UNL     1       7.976   4.089  16.817  0.00  0.00    +0.000 OA
ATOM     23  H   UNL     1       7.991   4.035  15.842  0.00  0.00    +0.000 HD
ENDBRANCH  20  22
ENDBRANCH  17  19
ENDBRANCH   1  17
BRANCH   1  24
ATOM     24  C   UNL     1       2.607   6.658  18.051  0.00  0.00    +0.000 C 
BRANCH  24  25
ATOM     25  C   UNL     1       2.152   7.868  18.824  0.00  0.00    +0.000 A 
ATOM     26  C   UNL     1       2.073   7.782  20.219  0.00  0.00    +0.000 A 
ATOM     27  C   UNL     1       1.394   8.756  20.944  0.00  0.00    +0.000 A 
ATOM     28  C   UNL     1       0.740   9.801  20.278  0.00  0.00    +0.000 A 
ATOM     29  C   UNL     1       1.015   9.987  18.913  0.00  0.00    +0.000 A 
ATOM     30  C   UNL     1       1.753   9.048  18.198  0.00  0.00    +0.000 A 
BRANCH  28  31
ATOM     31  C   UNL     1      -0.410  10.484  20.900  0.00  0.00    +0.000 A 
ATOM     32  C   UNL     1      -0.637  10.472  22.297  0.00  0.00    +0.000 A 
ATOM     33  C   UNL     1      -1.504  11.392  22.901  0.00  0.00    +0.000 A 
ATOM     34  C   UNL     1      -2.113  12.319  22.087  0.00  0.00    +0.000 A 
ATOM     35  C   UNL     1      -1.966  12.290  20.722  0.00  0.00    +0.000 A 
ATOM     36  C   UNL     1      -1.154  11.377  20.102  0.00  0.00    +0.000 A 
ATOM     37  O   UNL     1      -2.581  13.337  20.106  0.00  0.00    +0.000 OA
ATOM     38  C   UNL     1      -2.809  14.170  21.257  0.00  0.00    +0.000 C 
ATOM     39  O   UNL     1      -2.821  13.413  22.488  0.00  0.00    +0.000 OA
ENDBRANCH  28  31
ENDBRANCH  24  25
ENDBRANCH   1  24
TORSDOF 9
ENDMDL
MODEL 5
REMARK VINA RESULT:      -9.5      1.799      2.310
REMARK  Name = 
REMARK  9 active torsions:
REMARK  status: ('A' for Active; 'I' for Inactive)
REMARK    1  A    between atoms: C_2  and  C_3
REMARK    2  A    between atoms: C_3  and  C_4
REMARK    3  A    between atoms: C_4  and  C_5
REMARK    4  A    between atoms: C_4  and  C_21
REMARK    5  A    between atoms: C_5  and  C_6
REMARK    6  A    between atoms: C_9  and  C_10
REMARK    7  A    between atoms: N_23  and  C_24
REMARK    8  A    between atoms: C_32  and  O_33
REMARK    9  A    between atoms: N_34  and  O_35
REMARK                            x       y       z     vdW  Elec       q    Type
REMARK                         _______ _______ _______ _____ _____    ______ ____
ROOT
ATOM      1  C   UNL     1       5.186   6.096  18.384  0.00  0.00    +0.000 C 
ENDROOT
BRANCH   1   2
ATOM      2  C   UNL     1       5.257   4.699  18.991  0.00  0.00    +0.000 C 
ATOM      3  O   UNL     1       6.184   3.912  18.776  0.00  0.00    +0.000 OA
ATOM      4  N   UNL     1       4.158   4.372  19.716  0.00  0.00    +0.000 N 
ATOM      5  H   UNL     1       3.622   5.129  20.120  0.00  0.00    +0.000 HD
BRANCH   4   6
ATOM      6  C   UNL     1       3.823   3.051  20.267  0.00  0.00    +0.000 C 
ATOM      7  C   UNL     1       2.910   2.316  19.232  0.00  0.00    +0.000 A 
ATOM      8  C   UNL     1       3.169   2.148  17.881  0.00  0.00    +0.000 A 
ATOM      9  C   UNL     1       2.391   2.878  16.989  0.00  0.00    +0.000 A 
ATOM     10  C   UNL     1       1.435   3.761  17.497  0.00  0.00    +0.000 A 
ATOM     11  C   UNL     1       1.024   3.640  18.831  0.00  0.00    +0.000 A 
ATOM     12  C   UNL     1       1.637   2.687  19.629  0.00  0.00    +0.000 A 
ATOM     13  C   UNL     1       1.571   2.487  21.111  0.00  0.00    +0.000 C 
ATOM     14  C   UNL     1       2.817   3.286  21.479  0.00  0.00    +0.000 C 
BRANCH  14  15
ATOM     15  O   UNL     1       2.421   4.681  21.602  0.00  0.00    +0.000 OA
ATOM     16  H   UNL     1       1.616   4.724  22.150  0.00  0.00    +0.000 HD
ENDBRANCH  14  15
ENDBRANCH   4   6
ENDBRANCH   1   2
BRANCH   1  17
ATOM     17  C   UNL     1       6.354   6.314  17.398  0.00  0.00    +0.000 C 
BRANCH  17  19
ATOM     18  O   UNL     1       8.254   6.751  18.841  0.00  0.00    +0.000 OA
ATOM     19  C   UNL     1       7.484   7.144  17.953  0.00  0.00    +0.000 C 
ATOM     20  N   UNL     1       7.596   8.419  17.426  0.00  0.00    +0.000 N 
ATOM     21  H   UNL     1       6.875   8.818  16.825  0.00  0.00    +0.000 HD
BRANCH  20  22
ATOM     22  O   UNL     1       8.537   9.300  18.000  0.00  0.00    +0.000 OA
ATOM     23  H   UNL     1       8.347   9.220  18.954  0.00  0.00    +0.000 HD
ENDBRANCH  20  22
ENDBRANCH  17  19
ENDBRANCH   1  17
BRANCH   1  24
ATOM     24  C   UNL     1       3.789   6.142  17.709  0.00  0.00    +0.000 C 
BRANCH  24  25
ATOM     25  C   UNL     1       2.755   7.092  18.253  0.00  0.00    +0.000 A 
ATOM     26  C   UNL     1       2.294   8.125  17.428  0.00  0.00    +0.000 A 
ATOM     27  C   UNL     1       1.570   9.184  17.969  0.00  0.00    +0.000 A 
ATOM     28  C   UNL     1       1.343   9.248  19.351  0.00  0.00    +0.000 A 
ATOM     29  C   UNL     1       1.620   8.104  20.118  0.00  0.00    +0.000 A 
ATOM     30  C   UNL     1       2.284   7.014  19.562  0.00  0.00    +0.000 A 
BRANCH  28  31
ATOM     31  C   UNL     1       1.115  10.545  20.014  0.00  0.00    +0.000 A 
ATOM     32  C   UNL     1       1.099  11.770  19.304  0.00  0.00    +0.000 A 
ATOM     33  C   UNL     1       0.544  12.928  19.863  0.00  0.00    +0.000 A 
ATOM     34  C   UNL     1      -0.002  12.825  21.123  0.00  0.00    +0.000 A 
ATOM     35  C   UNL     1       0.080  11.666  21.855  0.00  0.00    +0.000 A 
ATOM     36  C   UNL     1       0.652  10.530  21.346  0.00  0.00    +0.000 A 
ATOM     37  O   UNL     1      -0.589  11.744  23.038  0.00  0.00    +0.000 OA
ATOM     38  C   UNL     1      -1.359  12.932  22.780  0.00  0.00    +0.000 C 
ATOM     39  O   UNL     1      -0.762  13.762  21.758  0.00  0.00    +0.000 OA
ENDBRANCH  28  31
ENDBRANCH  24  25
ENDBRANCH   1  24
TORSDOF 9
ENDMDL
MODEL 6
REMARK VINA RESULT:      -9.4      1.789      2.825
REMARK  Name = 
REMARK  9 active torsions:
REMARK  status: ('A' for Active; 'I' for Inactive)
REMARK    1  A    between atoms: C_2  and  C_3
REMARK    2  A    between atoms: C_3  and  C_4
REMARK    3  A    between atoms: C_4  and  C_5
REMARK    4  A    between atoms: C_4  and  C_21
REMARK    5  A    between atoms: C_5  and  C_6
REMARK    6  A    between atoms: C_9  and  C_10
REMARK    7  A    between atoms: N_23  and  C_24
REMARK    8  A    between atoms: C_32  and  O_33
REMARK    9  A    between atoms: N_34  and  O_35
REMARK                            x       y       z     vdW  Elec       q    Type
REMARK                         _______ _______ _______ _____ _____    ______ ____
ROOT
ATOM      1  C   UNL     1       5.126   6.093  18.013  0.00  0.00    +0.000 C 
ENDROOT
BRANCH   1   2
ATOM      2  C   UNL     1       4.651   4.766  17.430  0.00  0.00    +0.000 C 
ATOM      3  O   UNL     1       4.830   4.440  16.253  0.00  0.00    +0.000 OA
ATOM      4  N   UNL     1       3.934   4.020  18.307  0.00  0.00    +0.000 N 
ATOM      5  H   UNL     1       4.104   4.167  19.294  0.00  0.00    +0.000 HD
BRANCH   4   6
ATOM      6  C   UNL     1       3.177   2.795  18.013  0.00  0.00    +0.000 C 
ATOM      7  C   UNL     1       1.869   2.820  18.869  0.00  0.00    +0.000 A 
ATOM      8  C   UNL     1       0.958   3.861  18.947  0.00  0.00    +0.000 A 
ATOM      9  C   UNL     1       0.913   4.579  20.137  0.00  0.00    +0.000 A 
ATOM     10  C   UNL     1       1.806   4.244  21.158  0.00  0.00    +0.000 A 
ATOM     11  C   UNL     1       2.460   3.006  21.125  0.00  0.00    +0.000 A 
ATOM     12  C   UNL     1       2.253   2.177  20.034  0.00  0.00    +0.000 A 
ATOM     13  C   UNL     1       2.974   0.932  19.622  0.00  0.00    +0.000 C 
ATOM     14  C   UNL     1       3.973   1.580  18.669  0.00  0.00    +0.000 C 
BRANCH  14  15
ATOM     15  O   UNL     1       5.106   2.029  19.463  0.00  0.00    +0.000 OA
ATOM     16  H   UNL     1       4.922   2.934  19.775  0.00  0.00    +0.000 HD
ENDBRANCH  14  15
ENDBRANCH   4   6
ENDBRANCH   1   2
BRANCH   1  17
ATOM     17  C   UNL     1       6.642   6.271  17.782  0.00  0.00    +0.000 C 
BRANCH  17  19
ATOM     18  O   UNL     1       7.979   4.324  18.332  0.00  0.00    +0.000 OA
ATOM     19  C   UNL     1       7.508   5.418  18.674  0.00  0.00    +0.000 C 
ATOM     20  N   UNL     1       7.725   5.922  19.945  0.00  0.00    +0.000 N 
ATOM     21  H   UNL     1       7.210   6.728  20.299  0.00  0.00    +0.000 HD
BRANCH  20  22
ATOM     22  O   UNL     1       8.403   5.112  20.879  0.00  0.00    +0.000 OA
ATOM     23  H   UNL     1       7.706   4.914  21.533  0.00  0.00    +0.000 HD
ENDBRANCH  20  22
ENDBRANCH  17  19
ENDBRANCH   1  17
BRANCH   1  24
ATOM     24  C   UNL     1       4.259   7.155  17.286  0.00  0.00    +0.000 C 
BRANCH  24  25
ATOM     25  C   UNL     1       3.051   7.709  17.994  0.00  0.00    +0.000 A 
ATOM     26  C   UNL     1       2.258   8.651  17.328  0.00  0.00    +0.000 A 
ATOM     27  C   UNL     1       1.316   9.398  18.031  0.00  0.00    +0.000 A 
ATOM     28  C   UNL     1       1.194   9.248  19.419  0.00  0.00    +0.000 A 
ATOM     29  C   UNL     1       1.837   8.154  20.023  0.00  0.00    +0.000 A 
ATOM     30  C   UNL     1       2.728   7.362  19.304  0.00  0.00    +0.000 A 
BRANCH  28  31
ATOM     31  C   UNL     1       0.672  10.349  20.250  0.00  0.00    +0.000 A 
ATOM     32  C   UNL     1       0.295  11.600  19.704  0.00  0.00    +0.000 A 
ATOM     33  C   UNL     1      -0.512  12.493  20.421  0.00  0.00    +0.000 A 
ATOM     34  C   UNL     1      -0.939  12.100  21.670  0.00  0.00    +0.000 A 
ATOM     35  C   UNL     1      -0.514  10.927  22.243  0.00  0.00    +0.000 A 
ATOM     36  C   UNL     1       0.305  10.053  21.579  0.00  0.00    +0.000 A 
ATOM     37  O   UNL     1      -1.112  10.683  23.442  0.00  0.00    +0.000 OA
ATOM     38  C   UNL     1      -2.180  11.644  23.358  0.00  0.00    +0.000 C 
ATOM     39  O   UNL     1      -1.880  12.718  22.438  0.00  0.00    +0.000 OA
ENDBRANCH  28  31
ENDBRANCH  24  25
ENDBRANCH   1  24
TORSDOF 9
ENDMDL
MODEL 7
REMARK VINA RESULT:      -9.3      1.298      1.532
REMARK  Name = 
REMARK  9 active torsions:
REMARK  status: ('A' for Active; 'I' for Inactive)
REMARK    1  A    between atoms: C_2  and  C_3
REMARK    2  A    between atoms: C_3  and  C_4
REMARK    3  A    between atoms: C_4  and  C_5
REMARK    4  A    between atoms: C_4  and  C_21
REMARK    5  A    between atoms: C_5  and  C_6
REMARK    6  A    between atoms: C_9  and  C_10
REMARK    7  A    between atoms: N_23  and  C_24
REMARK    8  A    between atoms: C_32  and  O_33
REMARK    9  A    between atoms: N_34  and  O_35
REMARK                            x       y       z     vdW  Elec       q    Type
REMARK                         _______ _______ _______ _____ _____    ______ ____
ROOT
ATOM      1  C   UNL     1       4.145   6.188  17.884  0.00  0.00    +0.000 C 
ENDROOT
BRANCH   1   2
ATOM      2  C   UNL     1       4.436   5.428  19.173  0.00  0.00    +0.000 C 
ATOM      3  O   UNL     1       5.574   5.272  19.627  0.00  0.00    +0.000 OA
ATOM      4  N   UNL     1       3.333   4.862  19.724  0.00  0.00    +0.000 N 
ATOM      5  H   UNL     1       2.438   5.284  19.516  0.00  0.00    +0.000 HD
BRANCH   4   6
ATOM      6  C   UNL     1       3.293   3.913  20.846  0.00  0.00    +0.000 C 
ATOM      7  C   UNL     1       3.268   2.467  20.252  0.00  0.00    +0.000 A 
ATOM      8  C   UNL     1       4.139   1.952  19.306  0.00  0.00    +0.000 A 
ATOM      9  C   UNL     1       3.632   1.726  18.031  0.00  0.00    +0.000 A 
ATOM     10  C   UNL     1       2.303   2.067  17.766  0.00  0.00    +0.000 A 
ATOM     11  C   UNL     1       1.419   2.277  18.832  0.00  0.00    +0.000 A 
ATOM     12  C   UNL     1       1.913   2.211  20.125  0.00  0.00    +0.000 A 
ATOM     13  C   UNL     1       1.276   2.608  21.420  0.00  0.00    +0.000 C 
ATOM     14  C   UNL     1       1.845   4.021  21.503  0.00  0.00    +0.000 C 
BRANCH  14  15
ATOM     15  O   UNL     1       0.961   4.893  20.746  0.00  0.00    +0.000 OA
ATOM     16  H   UNL     1       1.382   5.770  20.677  0.00  0.00    +0.000 HD
ENDBRANCH  14  15
ENDBRANCH   4   6
ENDBRANCH   1   2
BRANCH   1  17
ATOM     17  C   UNL     1       4.449   5.301  16.656  0.00  0.00    +0.000 C 
BRANCH  17  19
ATOM     18  O   UNL     1       5.348   6.872  15.041  0.00  0.00    +0.000 OA
ATOM     19  C   UNL     1       5.507   5.859  15.738  0.00  0.00    +0.000 C 
ATOM     20  N   UNL     1       6.688   5.139  15.688  0.00  0.00    +0.000 N 
ATOM     21  H   UNL     1       6.774   4.218  16.118  0.00  0.00    +0.000 HD
BRANCH  20  22
ATOM     22  O   UNL     1       7.665   5.519  14.745  0.00  0.00    +0.000 OA
ATOM     23  H   UNL     1       8.497   5.277  15.193  0.00  0.00    +0.000 HD
ENDBRANCH  20  22
ENDBRANCH  17  19
ENDBRANCH   1  17
BRANCH   1  24
ATOM     24  C   UNL     1       2.649   6.581  18.008  0.00  0.00    +0.000 C 
BRANCH  24  25
ATOM     25  C   UNL     1       2.303   7.963  18.494  0.00  0.00    +0.000 A 
ATOM     26  C   UNL     1       1.774   8.108  19.782  0.00  0.00    +0.000 A 
ATOM     27  C   UNL     1       1.176   9.306  20.164  0.00  0.00    +0.000 A 
ATOM     28  C   UNL     1       1.054  10.356  19.244  0.00  0.00    +0.000 A 
ATOM     29  C   UNL     1       1.779  10.268  18.043  0.00  0.00    +0.000 A 
ATOM     30  C   UNL     1       2.436   9.093  17.689  0.00  0.00    +0.000 A 
BRANCH  28  31
ATOM     31  C   UNL     1      -0.017  11.359  19.388  0.00  0.00    +0.000 A 
ATOM     32  C   UNL     1      -1.097  11.194  20.289  0.00  0.00    +0.000 A 
ATOM     33  C   UNL     1      -1.896  12.279  20.673  0.00  0.00    +0.000 A 
ATOM     34  C   UNL     1      -1.581  13.515  20.155  0.00  0.00    +0.000 A 
ATOM     35  C   UNL     1      -0.590  13.674  19.218  0.00  0.00    +0.000 A 
ATOM     36  C   UNL     1       0.183  12.624  18.797  0.00  0.00    +0.000 A 
ATOM     37  O   UNL     1      -0.381  14.980  18.894  0.00  0.00    +0.000 OA
ATOM     38  C   UNL     1      -1.100  15.596  19.977  0.00  0.00    +0.000 C 
ATOM     39  O   UNL     1      -2.093  14.715  20.548  0.00  0.00    +0.000 OA
ENDBRANCH  28  31
ENDBRANCH  24  25
ENDBRANCH   1  24
TORSDOF 9
ENDMDL
MODEL 8
REMARK VINA RESULT:      -9.2      2.022      3.061
REMARK  Name = 
REMARK  9 active torsions:
REMARK  status: ('A' for Active; 'I' for Inactive)
REMARK    1  A    between atoms: C_2  and  C_3
REMARK    2  A    between atoms: C_3  and  C_4
REMARK    3  A    between atoms: C_4  and  C_5
REMARK    4  A    between atoms: C_4  and  C_21
REMARK    5  A    between atoms: C_5  and  C_6
REMARK    6  A    between atoms: C_9  and  C_10
REMARK    7  A    between atoms: N_23  and  C_24
REMARK    8  A    between atoms: C_32  and  O_33
REMARK    9  A    between atoms: N_34  and  O_35
REMARK                            x       y       z     vdW  Elec       q    Type
REMARK                         _______ _______ _______ _____ _____    ______ ____
ROOT
ATOM      1  C   UNL     1       5.066   6.252  18.010  0.00  0.00    +0.000 C 
ENDROOT
BRANCH   1   2
ATOM      2  C   UNL     1       4.476   5.007  17.357  0.00  0.00    +0.000 C 
ATOM      3  O   UNL     1       4.653   4.714  16.170  0.00  0.00    +0.000 OA
ATOM      4  N   UNL     1       3.662   4.302  18.182  0.00  0.00    +0.000 N 
ATOM      5  H   UNL     1       3.818   4.388  19.178  0.00  0.00    +0.000 HD
BRANCH   4   6
ATOM      6  C   UNL     1       2.793   3.174  17.815  0.00  0.00    +0.000 C 
ATOM      7  C   UNL     1       1.675   3.055  18.901  0.00  0.00    +0.000 A 
ATOM      8  C   UNL     1       0.857   4.077  19.354  0.00  0.00    +0.000 A 
ATOM      9  C   UNL     1       1.080   4.547  20.644  0.00  0.00    +0.000 A 
ATOM     10  C   UNL     1       2.130   3.999  21.386  0.00  0.00    +0.000 A 
ATOM     11  C   UNL     1       2.692   2.779  20.989  0.00  0.00    +0.000 A 
ATOM     12  C   UNL     1       2.235   2.187  19.823  0.00  0.00    +0.000 A 
ATOM     13  C   UNL     1       2.791   1.034  19.047  0.00  0.00    +0.000 C 
ATOM     14  C   UNL     1       3.627   1.838  18.058  0.00  0.00    +0.000 C 
BRANCH  14  15
ATOM     15  O   UNL     1       4.914   2.099  18.683  0.00  0.00    +0.000 OA
ATOM     16  H   UNL     1       4.923   1.668  19.557  0.00  0.00    +0.000 HD
ENDBRANCH  14  15
ENDBRANCH   4   6
ENDBRANCH   1   2
BRANCH   1  17
ATOM     17  C   UNL     1       6.570   6.371  17.681  0.00  0.00    +0.000 C 
BRANCH  17  19
ATOM     18  O   UNL     1       7.897   4.406  18.193  0.00  0.00    +0.000 OA
ATOM     19  C   UNL     1       7.461   5.512  18.543  0.00  0.00    +0.000 C 
ATOM     20  N   UNL     1       7.744   6.026  19.797  0.00  0.00    +0.000 N 
ATOM     21  H   UNL     1       7.260   6.845  20.165  0.00  0.00    +0.000 HD
BRANCH  20  22
ATOM     22  O   UNL     1       8.450   5.214  20.709  0.00  0.00    +0.000 OA
ATOM     23  H   UNL     1       7.773   4.566  20.984  0.00  0.00    +0.000 HD
ENDBRANCH  20  22
ENDBRANCH  17  19
ENDBRANCH   1  17
BRANCH   1  24
ATOM     24  C   UNL     1       4.213   7.416  17.440  0.00  0.00    +0.000 C 
BRANCH  24  25
ATOM     25  C   UNL     1       2.938   7.791  18.146  0.00  0.00    +0.000 A 
ATOM     26  C   UNL     1       2.033   8.637  17.494  0.00  0.00    +0.000 A 
ATOM     27  C   UNL     1       0.997   9.238  18.204  0.00  0.00    +0.000 A 
ATOM     28  C   UNL     1       0.885   9.041  19.586  0.00  0.00    +0.000 A 
ATOM     29  C   UNL     1       1.661   8.026  20.173  0.00  0.00    +0.000 A 
ATOM     30  C   UNL     1       2.653   7.374  19.445  0.00  0.00    +0.000 A 
BRANCH  28  31
ATOM     31  C   UNL     1       0.217  10.044  20.436  0.00  0.00    +0.000 A 
ATOM     32  C   UNL     1      -0.238   9.750  21.744  0.00  0.00    +0.000 A 
ATOM     33  C   UNL     1      -0.540  10.771  22.655  0.00  0.00    +0.000 A 
ATOM     34  C   UNL     1      -0.361  12.070  22.236  0.00  0.00    +0.000 A 
ATOM     35  C   UNL     1      -0.000  12.370  20.946  0.00  0.00    +0.000 A 
ATOM     36  C   UNL     1       0.266  11.392  20.023  0.00  0.00    +0.000 A 
ATOM     37  O   UNL     1       0.203  13.702  20.754  0.00  0.00    +0.000 OA
ATOM     38  C   UNL     1       0.265  14.118  22.130  0.00  0.00    +0.000 C 
ATOM     39  O   UNL     1      -0.400  13.188  23.015  0.00  0.00    +0.000 OA
ENDBRANCH  28  31
ENDBRANCH  24  25
ENDBRANCH   1  24
TORSDOF 9
ENDMDL
MODEL 9
REMARK VINA RESULT:      -9.2      1.647      1.946
REMARK  Name = 
REMARK  9 active torsions:
REMARK  status: ('A' for Active; 'I' for Inactive)
REMARK    1  A    between atoms: C_2  and  C_3
REMARK    2  A    between atoms: C_3  and  C_4
REMARK    3  A    between atoms: C_4  and  C_5
REMARK    4  A    between atoms: C_4  and  C_21
REMARK    5  A    between atoms: C_5  and  C_6
REMARK    6  A    between atoms: C_9  and  C_10
REMARK    7  A    between atoms: N_23  and  C_24
REMARK    8  A    between atoms: C_32  and  O_33
REMARK    9  A    between atoms: N_34  and  O_35
REMARK                            x       y       z     vdW  Elec       q    Type
REMARK                         _______ _______ _______ _____ _____    ______ ____
ROOT
ATOM      1  C   UNL     1       5.021   6.229  18.627  0.00  0.00    +0.000 C 
ENDROOT
BRANCH   1   2
ATOM      2  C   UNL     1       5.137   4.828  19.216  0.00  0.00    +0.000 C 
ATOM      3  O   UNL     1       6.120   4.100  19.047  0.00  0.00    +0.000 OA
ATOM      4  N   UNL     1       4.017   4.425  19.867  0.00  0.00    +0.000 N 
ATOM      5  H   UNL     1       3.414   5.142  20.249  0.00  0.00    +0.000 HD
BRANCH   4   6
ATOM      6  C   UNL     1       3.728   3.076  20.376  0.00  0.00    +0.000 C 
ATOM      7  C   UNL     1       2.876   2.328  19.300  0.00  0.00    +0.000 A 
ATOM      8  C   UNL     1       3.176   2.206  17.953  0.00  0.00    +0.000 A 
ATOM      9  C   UNL     1       2.390   2.924  17.058  0.00  0.00    +0.000 A 
ATOM     10  C   UNL     1       1.382   3.751  17.562  0.00  0.00    +0.000 A 
ATOM     11  C   UNL     1       0.943   3.577  18.880  0.00  0.00    +0.000 A 
ATOM     12  C   UNL     1       1.577   2.632  19.671  0.00  0.00    +0.000 A 
ATOM     13  C   UNL     1       1.483   2.392  21.146  0.00  0.00    +0.000 C 
ATOM     14  C   UNL     1       2.681   3.236  21.567  0.00  0.00    +0.000 C 
BRANCH  14  15
ATOM     15  O   UNL     1       2.220   4.608  21.713  0.00  0.00    +0.000 OA
ATOM     16  H   UNL     1       2.854   5.085  22.279  0.00  0.00    +0.000 HD
ENDBRANCH  14  15
ENDBRANCH   4   6
ENDBRANCH   1   2
BRANCH   1  17
ATOM     17  C   UNL     1       6.169   6.490  17.627  0.00  0.00    +0.000 C 
BRANCH  17  19
ATOM     18  O   UNL     1       5.347   6.822  15.370  0.00  0.00    +0.000 OA
ATOM     19  C   UNL     1       5.863   6.072  16.212  0.00  0.00    +0.000 C 
ATOM     20  N   UNL     1       6.165   4.757  15.904  0.00  0.00    +0.000 N 
ATOM     21  H   UNL     1       6.427   4.083  16.623  0.00  0.00    +0.000 HD
BRANCH  20  22
ATOM     22  O   UNL     1       5.773   4.257  14.645  0.00  0.00    +0.000 OA
ATOM     23  H   UNL     1       5.708   5.069  14.106  0.00  0.00    +0.000 HD
ENDBRANCH  20  22
ENDBRANCH  17  19
ENDBRANCH   1  17
BRANCH   1  24
ATOM     24  C   UNL     1       3.614   6.246  17.972  0.00  0.00    +0.000 C 
BRANCH  24  25
ATOM     25  C   UNL     1       2.611   7.265  18.442  0.00  0.00    +0.000 A 
ATOM     26  C   UNL     1       2.162   8.233  17.535  0.00  0.00    +0.000 A 
ATOM     27  C   UNL     1       1.471   9.353  17.989  0.00  0.00    +0.000 A 
ATOM     28  C   UNL     1       1.266   9.545  19.361  0.00  0.00    +0.000 A 
ATOM     29  C   UNL     1       1.528   8.466  20.224  0.00  0.00    +0.000 A 
ATOM     30  C   UNL     1       2.158   7.315  19.759  0.00  0.00    +0.000 A 
BRANCH  28  31
ATOM     31  C   UNL     1       1.078  10.900  19.910  0.00  0.00    +0.000 A 
ATOM     32  C   UNL     1       1.257  12.068  19.128  0.00  0.00    +0.000 A 
ATOM     33  C   UNL     1       0.745  13.305  19.542  0.00  0.00    +0.000 A 
ATOM     34  C   UNL     1       0.046  13.339  20.727  0.00  0.00    +0.000 A 
ATOM     35  C   UNL     1      -0.064  12.233  21.534  0.00  0.00    +0.000 A 
ATOM     36  C   UNL     1       0.460  11.020  21.171  0.00  0.00    +0.000 A 
ATOM     37  O   UNL     1      -0.859  12.451  22.617  0.00  0.00    +0.000 OA
ATOM     38  C   UNL     1      -1.483  13.676  22.192  0.00  0.00    +0.000 C 
ATOM     39  O   UNL     1      -0.696  14.378  21.203  0.00  0.00    +0.000 OA
ENDBRANCH  28  31
ENDBRANCH  24  25
ENDBRANCH   1  24
TORSDOF 9
ENDMDL
