MODEL 1
REMARK VINA RESULT:      -6.4      0.000      0.000
REMARK  Name = 
REMARK  15 active torsions:
REMARK  status: ('A' for Active; 'I' for Inactive)
REMARK    1  A    between atoms: C_1  and  C_2
REMARK    2  A    between atoms: C_2  and  C_3
REMARK    3  A    between atoms: C_2  and  C_4
REMARK    4  A    between atoms: C_4  and  C_5
REMARK    5  A    between atoms: C_5  and  C_6
REMARK    6  A    between atoms: C_6  and  C_7
REMARK    7  A    between atoms: C_7  and  C_8
REMARK    8  A    between atoms: C_7  and  C_9
REMARK    9  A    between atoms: C_18  and  O_19
REMARK   10  A    between atoms: O_19  and  C_20
REMARK   11  A    between atoms: C_20  and  O_21
REMARK   12  A    between atoms: C_20  and  C_22
REMARK   13  A    between atoms: C_22  and  O_23
REMARK   14  A    between atoms: C_26  and  C_27
REMARK   15  A    between atoms: C_31  and  C_32
REMARK                            x       y       z     vdW  Elec       q    Type
REMARK                         _______ _______ _______ _____ _____    ______ ____
ROOT
ATOM      1  C   UNL     1       3.388   3.712  19.410  0.00  0.00    +0.000 C 
ATOM      2  C   UNL     1       4.743   4.487  19.402  0.00  0.00    +0.000 C 
ATOM      3  C   UNL     1       4.431   5.960  19.081  0.00  0.00    +0.000 C 
ATOM      4  C   UNL     1       2.933   5.939  18.756  0.00  0.00    +0.000 C 
ATOM      5  C   UNL     1       2.111   7.186  18.846  0.00  0.00    +0.000 C 
ATOM      6  C   UNL     1       2.636   8.239  17.868  0.00  0.00    +0.000 C 
ATOM      7  C   UNL     1       1.682   9.375  17.862  0.00  0.00    +0.000 C 
ATOM      8  C   UNL     1       0.872   9.665  18.895  0.00  0.00    +0.000 C 
ATOM      9  C   UNL     1       0.111  10.961  18.848  0.00  0.00    +0.000 C 
ATOM     10  C   UNL     1       0.749  11.811  19.944  0.00  0.00    +0.000 C 
ATOM     11  C   UNL     1       0.431  11.180  21.306  0.00  0.00    +0.000 C 
ATOM     12  C   UNL     1       1.162   9.849  21.407  0.00  0.00    +0.000 C 
ATOM     13  C   UNL     1       0.837   8.879  20.240  0.00  0.00    +0.000 C 
ATOM     14  C   UNL     1      -0.593   8.319  20.468  0.00  0.00    +0.000 C 
ATOM     15  C   UNL     1       1.928   7.736  20.274  0.00  0.00    +0.000 C 
ATOM     16  C   UNL     1       1.667   6.653  21.361  0.00  0.00    +0.000 C 
ATOM     17  C   UNL     1       2.440   5.349  21.165  0.00  0.00    +0.000 C 
ATOM     18  C   UNL     1       2.368   4.855  19.698  0.00  0.00    +0.000 C 
ATOM     19  C   UNL     1       0.890   4.569  19.367  0.00  0.00    +0.000 C 
ENDROOT
BRANCH   1  20
ATOM     20  C   UNL     1       3.006   2.946  18.094  0.00  0.00    +0.000 C 
ATOM     21  C   UNL     1       3.629   1.518  18.114  0.00  0.00    +0.000 C 
BRANCH  20  22
ATOM     22  C   UNL     1       3.328   3.648  16.759  0.00  0.00    +0.000 C 
BRANCH  22  23
ATOM     23  C   UNL     1       4.827   3.467  16.487  0.00  0.00    +0.000 C 
BRANCH  23  24
ATOM     24  C   UNL     1       5.308   4.078  15.188  0.00  0.00    +0.000 C 
BRANCH  24  26
ATOM     25  C   UNL     1       5.219   6.521  15.708  0.00  0.00    +0.000 C 
ATOM     26  C   UNL     1       6.152   5.341  15.462  0.00  0.00    +0.000 C 
ATOM     27  C   UNL     1       7.116   5.184  16.649  0.00  0.00    +0.000 C 
ENDBRANCH  24  26
ENDBRANCH  23  24
ENDBRANCH  22  23
ENDBRANCH  20  22
ENDBRANCH   1  20
BRANCH  10  28
ATOM     28  O   UNL     1       0.337  13.164  19.815  0.00  0.00    +0.000 OA
BRANCH  28  29
ATOM     29  C   UNL     1       0.945  13.811  18.691  0.00  0.00    +0.000 C 
BRANCH  29  30
ATOM     30  O   UNL     1       0.871  15.225  18.787  0.00  0.00    +0.000 OA
ATOM     31  H   UNL     1       1.241  15.570  17.957  0.00  0.00    +0.000 HD
ENDBRANCH  29  30
BRANCH  29  32
ATOM     32  C   UNL     1       2.405  13.361  18.626  0.00  0.00    +0.000 C 
BRANCH  32  33
ATOM     33  O   UNL     1       2.710  12.790  17.357  0.00  0.00    +0.000 OA
ATOM     34  H   UNL     1       1.881  12.362  17.063  0.00  0.00    +0.000 HD
ENDBRANCH  32  33
ENDBRANCH  29  32
ENDBRANCH  28  29
ENDBRANCH  10  28
TORSDOF 10
ENDMDL
MODEL 2
REMARK VINA RESULT:      -6.2      4.306      9.703
REMARK  Name = 
REMARK  15 active torsions:
REMARK  status: ('A' for Active; 'I' for Inactive)
REMARK    1  A    between atoms: C_1  and  C_2
REMARK    2  A    between atoms: C_2  and  C_3
REMARK    3  A    between atoms: C_2  and  C_4
REMARK    4  A    between atoms: C_4  and  C_5
REMARK    5  A    between atoms: C_5  and  C_6
REMARK    6  A    between atoms: C_6  and  C_7
REMARK    7  A    between atoms: C_7  and  C_8
REMARK    8  A    between atoms: C_7  and  C_9
REMARK    9  A    between atoms: C_18  and  O_19
REMARK   10  A    between atoms: O_19  and  C_20
REMARK   11  A    between atoms: C_20  and  O_21
REMARK   12  A    between atoms: C_20  and  C_22
REMARK   13  A    between atoms: C_22  and  O_23
REMARK   14  A    between atoms: C_26  and  C_27
REMARK   15  A    between atoms: C_31  and  C_32
REMARK                            x       y       z     vdW  Elec       q    Type
REMARK                         _______ _______ _______ _____ _____    ______ ____
ROOT
ATOM      1  C   UNL     1      -0.817  12.419  20.142  0.00  0.00    +0.000 C 
ATOM      2  C   UNL     1       0.377  12.743  21.096  0.00  0.00    +0.000 C 
ATOM      3  C   UNL     1       1.139  11.429  21.346  0.00  0.00    +0.000 C 
ATOM      4  C   UNL     1       0.258  10.377  20.662  0.00  0.00    +0.000 C 
ATOM      5  C   UNL     1       0.823   9.055  20.248  0.00  0.00    +0.000 C 
ATOM      6  C   UNL     1       1.342   8.294  21.470  0.00  0.00    +0.000 C 
ATOM      7  C   UNL     1       1.717   6.927  21.033  0.00  0.00    +0.000 C 
ATOM      8  C   UNL     1       2.068   6.625  19.771  0.00  0.00    +0.000 C 
ATOM      9  C   UNL     1       2.629   5.255  19.506  0.00  0.00    +0.000 C 
ATOM     10  C   UNL     1       4.096   5.508  19.171  0.00  0.00    +0.000 C 
ATOM     11  C   UNL     1       4.174   6.264  17.838  0.00  0.00    +0.000 C 
ATOM     12  C   UNL     1       3.601   7.659  18.037  0.00  0.00    +0.000 C 
ATOM     13  C   UNL     1       2.158   7.656  18.606  0.00  0.00    +0.000 C 
ATOM     14  C   UNL     1       1.196   7.225  17.466  0.00  0.00    +0.000 C 
ATOM     15  C   UNL     1       1.856   9.125  19.105  0.00  0.00    +0.000 C 
ATOM     16  C   UNL     1       1.494  10.114  17.960  0.00  0.00    +0.000 C 
ATOM     17  C   UNL     1       0.811  11.402  18.417  0.00  0.00    +0.000 C 
ATOM     18  C   UNL     1      -0.319  11.120  19.439  0.00  0.00    +0.000 C 
ATOM     19  C   UNL     1      -1.386  10.256  18.737  0.00  0.00    +0.000 C 
ENDROOT
BRANCH   1  20
ATOM     20  C   UNL     1      -2.214  12.184  20.818  0.00  0.00    +0.000 C 
ATOM     21  C   UNL     1      -3.223  13.269  20.337  0.00  0.00    +0.000 C 
BRANCH  20  22
ATOM     22  C   UNL     1      -2.238  12.081  22.358  0.00  0.00    +0.000 C 
BRANCH  22  23
ATOM     23  C   UNL     1      -2.906  13.352  22.899  0.00  0.00    +0.000 C 
BRANCH  23  24
ATOM     24  C   UNL     1      -3.991  13.103  23.924  0.00  0.00    +0.000 C 
BRANCH  24  26
ATOM     25  C   UNL     1      -6.446  12.705  24.168  0.00  0.00    +0.000 C 
ATOM     26  C   UNL     1      -5.382  13.399  23.326  0.00  0.00    +0.000 C 
ATOM     27  C   UNL     1      -5.695  14.901  23.228  0.00  0.00    +0.000 C 
ENDBRANCH  24  26
ENDBRANCH  23  24
ENDBRANCH  22  23
ENDBRANCH  20  22
ENDBRANCH   1  20
BRANCH  10  28
ATOM     28  O   UNL     1       4.821   4.287  19.195  0.00  0.00    +0.000 OA
BRANCH  28  29
ATOM     29  C   UNL     1       4.168   3.255  18.446  0.00  0.00    +0.000 C 
BRANCH  29  30
ATOM     30  O   UNL     1       4.819   3.001  17.211  0.00  0.00    +0.000 OA
ATOM     31  H   UNL     1       4.326   3.502  16.539  0.00  0.00    +0.000 HD
ENDBRANCH  29  30
BRANCH  29  32
ATOM     32  C   UNL     1       4.154   1.990  19.306  0.00  0.00    +0.000 C 
BRANCH  32  33
ATOM     33  O   UNL     1       4.205   0.818  18.496  0.00  0.00    +0.000 OA
ATOM     34  H   UNL     1       3.273   0.619  18.277  0.00  0.00    +0.000 HD
ENDBRANCH  32  33
ENDBRANCH  29  32
ENDBRANCH  28  29
ENDBRANCH  10  28
TORSDOF 10
ENDMDL
MODEL 3
REMARK VINA RESULT:      -6.1      1.095      1.538
REMARK  Name = 
REMARK  15 active torsions:
REMARK  status: ('A' for Active; 'I' for Inactive)
REMARK    1  A    between atoms: C_1  and  C_2
REMARK    2  A    between atoms: C_2  and  C_3
REMARK    3  A    between atoms: C_2  and  C_4
REMARK    4  A    between atoms: C_4  and  C_5
REMARK    5  A    between atoms: C_5  and  C_6
REMARK    6  A    between atoms: C_6  and  C_7
REMARK    7  A    between atoms: C_7  and  C_8
REMARK    8  A    between atoms: C_7  and  C_9
REMARK    9  A    between atoms: C_18  and  O_19
REMARK   10  A    between atoms: O_19  and  C_20
REMARK   11  A    between atoms: C_20  and  O_21
REMARK   12  A    between atoms: C_20  and  C_22
REMARK   13  A    between atoms: C_22  and  O_23
REMARK   14  A    between atoms: C_26  and  C_27
REMARK   15  A    between atoms: C_31  and  C_32
REMARK                            x       y       z     vdW  Elec       q    Type
REMARK                         _______ _______ _______ _____ _____    ______ ____
ROOT
ATOM      1  C   UNL     1       3.609   3.736  19.265  0.00  0.00    +0.000 C 
ATOM      2  C   UNL     1       4.947   4.529  19.397  0.00  0.00    +0.000 C 
ATOM      3  C   UNL     1       4.630   6.016  19.157  0.00  0.00    +0.000 C 
ATOM      4  C   UNL     1       3.156   5.997  18.735  0.00  0.00    +0.000 C 
ATOM      5  C   UNL     1       2.307   7.223  18.854  0.00  0.00    +0.000 C 
ATOM      6  C   UNL     1       2.875   8.347  17.986  0.00  0.00    +0.000 C 
ATOM      7  C   UNL     1       1.903   9.468  17.996  0.00  0.00    +0.000 C 
ATOM      8  C   UNL     1       1.023   9.675  18.990  0.00  0.00    +0.000 C 
ATOM      9  C   UNL     1       0.242  10.960  18.982  0.00  0.00    +0.000 C 
ATOM     10  C   UNL     1       0.793  11.742  20.172  0.00  0.00    +0.000 C 
ATOM     11  C   UNL     1       0.399  11.014  21.465  0.00  0.00    +0.000 C 
ATOM     12  C   UNL     1       1.147   9.690  21.522  0.00  0.00    +0.000 C 
ATOM     13  C   UNL     1       0.915   8.798  20.274  0.00  0.00    +0.000 C 
ATOM     14  C   UNL     1      -0.515   8.204  20.369  0.00  0.00    +0.000 C 
ATOM     15  C   UNL     1       2.022   7.671  20.302  0.00  0.00    +0.000 C 
ATOM     16  C   UNL     1       1.712   6.512  21.293  0.00  0.00    +0.000 C 
ATOM     17  C   UNL     1       2.520   5.235  21.061  0.00  0.00    +0.000 C 
ATOM     18  C   UNL     1       2.552   4.843  19.562  0.00  0.00    +0.000 C 
ATOM     19  C   UNL     1       1.104   4.560  19.116  0.00  0.00    +0.000 C 
ENDROOT
BRANCH   1  20
ATOM     20  C   UNL     1       3.326   3.057  17.878  0.00  0.00    +0.000 C 
ATOM     21  C   UNL     1       2.704   1.646  18.097  0.00  0.00    +0.000 C 
BRANCH  20  22
ATOM     22  C   UNL     1       4.507   2.970  16.889  0.00  0.00    +0.000 C 
BRANCH  22  23
ATOM     23  C   UNL     1       4.304   4.055  15.823  0.00  0.00    +0.000 C 
BRANCH  23  24
ATOM     24  C   UNL     1       5.515   4.314  14.952  0.00  0.00    +0.000 C 
BRANCH  24  26
ATOM     25  C   UNL     1       5.104   6.682  15.638  0.00  0.00    +0.000 C 
ATOM     26  C   UNL     1       6.184   5.650  15.336  0.00  0.00    +0.000 C 
ATOM     27  C   UNL     1       7.138   5.530  16.536  0.00  0.00    +0.000 C 
ENDBRANCH  24  26
ENDBRANCH  23  24
ENDBRANCH  22  23
ENDBRANCH  20  22
ENDBRANCH   1  20
BRANCH  10  28
ATOM     28  O   UNL     1       0.365  13.095  20.108  0.00  0.00    +0.000 OA
BRANCH  28  29
ATOM     29  C   UNL     1      -0.546  13.425  21.163  0.00  0.00    +0.000 C 
BRANCH  29  30
ATOM     30  O   UNL     1      -0.035  14.442  22.009  0.00  0.00    +0.000 OA
ATOM     31  H   UNL     1       0.921  14.278  22.081  0.00  0.00    +0.000 HD
ENDBRANCH  29  30
BRANCH  29  32
ATOM     32  C   UNL     1      -1.858  13.880  20.522  0.00  0.00    +0.000 C 
BRANCH  32  33
ATOM     33  O   UNL     1      -1.627  14.883  19.536  0.00  0.00    +0.000 OA
ATOM     34  H   UNL     1      -1.060  15.548  19.976  0.00  0.00    +0.000 HD
ENDBRANCH  32  33
ENDBRANCH  29  32
ENDBRANCH  28  29
ENDBRANCH  10  28
TORSDOF 10
ENDMDL
MODEL 4
REMARK VINA RESULT:      -6.1      8.320     10.881
REMARK  Name = 
REMARK  15 active torsions:
REMARK  status: ('A' for Active; 'I' for Inactive)
REMARK    1  A    between atoms: C_1  and  C_2
REMARK    2  A    between atoms: C_2  and  C_3
REMARK    3  A    between atoms: C_2  and  C_4
REMARK    4  A    between atoms: C_4  and  C_5
REMARK    5  A    between atoms: C_5  and  C_6
REMARK    6  A    between atoms: C_6  and  C_7
REMARK    7  A    between atoms: C_7  and  C_8
REMARK    8  A    between atoms: C_7  and  C_9
REMARK    9  A    between atoms: C_18  and  O_19
REMARK   10  A    between atoms: O_19  and  C_20
REMARK   11  A    between atoms: C_20  and  O_21
REMARK   12  A    between atoms: C_20  and  C_22
REMARK   13  A    between atoms: C_22  and  O_23
REMARK   14  A    between atoms: C_26  and  C_27
REMARK   15  A    between atoms: C_31  and  C_32
REMARK                            x       y       z     vdW  Elec       q    Type
REMARK                         _______ _______ _______ _____ _____    ______ ____
ROOT
ATOM      1  C   UNL     1       9.237  16.278  18.701  0.00  0.00    +0.000 C 
ATOM      2  C   UNL     1       8.230  15.245  18.102  0.00  0.00    +0.000 C 
ATOM      3  C   UNL     1       7.929  14.205  19.196  0.00  0.00    +0.000 C 
ATOM      4  C   UNL     1       8.900  14.586  20.320  0.00  0.00    +0.000 C 
ATOM      5  C   UNL     1       8.646  14.159  21.731  0.00  0.00    +0.000 C 
ATOM      6  C   UNL     1       8.627  12.633  21.828  0.00  0.00    +0.000 C 
ATOM      7  C   UNL     1       8.558  12.266  23.264  0.00  0.00    +0.000 C 
ATOM      8  C   UNL     1       8.046  13.073  24.209  0.00  0.00    +0.000 C 
ATOM      9  C   UNL     1       7.841  12.501  25.585  0.00  0.00    +0.000 C 
ATOM     10  C   UNL     1       6.324  12.425  25.738  0.00  0.00    +0.000 C 
ATOM     11  C   UNL     1       5.760  13.852  25.782  0.00  0.00    +0.000 C 
ATOM     12  C   UNL     1       5.957  14.494  24.416  0.00  0.00    +0.000 C 
ATOM     13  C   UNL     1       7.432  14.478  23.935  0.00  0.00    +0.000 C 
ATOM     14  C   UNL     1       8.211  15.545  24.751  0.00  0.00    +0.000 C 
ATOM     15  C   UNL     1       7.417  14.815  22.391  0.00  0.00    +0.000 C 
ATOM     16  C   UNL     1       7.241  16.330  22.083  0.00  0.00    +0.000 C 
ATOM     17  C   UNL     1       7.625  16.743  20.661  0.00  0.00    +0.000 C 
ATOM     18  C   UNL     1       8.979  16.125  20.230  0.00  0.00    +0.000 C 
ATOM     19  C   UNL     1      10.069  16.665  21.178  0.00  0.00    +0.000 C 
ENDROOT
BRANCH   1  20
ATOM     20  C   UNL     1      10.755  16.055  18.369  0.00  0.00    +0.000 C 
ATOM     21  C   UNL     1      10.985  16.184  16.834  0.00  0.00    +0.000 C 
BRANCH  20  22
ATOM     22  C   UNL     1      11.402  14.757  18.896  0.00  0.00    +0.000 C 
BRANCH  22  23
ATOM     23  C   UNL     1      11.774  13.896  17.682  0.00  0.00    +0.000 C 
BRANCH  23  24
ATOM     24  C   UNL     1      10.706  12.906  17.264  0.00  0.00    +0.000 C 
BRANCH  24  26
ATOM     25  C   UNL     1      12.036  11.686  18.993  0.00  0.00    +0.000 C 
ATOM     26  C   UNL     1      10.926  11.546  17.958  0.00  0.00    +0.000 C 
ATOM     27  C   UNL     1       9.658  10.993  18.628  0.00  0.00    +0.000 C 
ENDBRANCH  24  26
ENDBRANCH  23  24
ENDBRANCH  22  23
ENDBRANCH  20  22
ENDBRANCH   1  20
BRANCH  10  28
ATOM     28  O   UNL     1       5.985  11.627  26.862  0.00  0.00    +0.000 OA
BRANCH  28  29
ATOM     29  C   UNL     1       4.791  10.866  26.646  0.00  0.00    +0.000 C 
BRANCH  29  30
ATOM     30  O   UNL     1       4.768  10.267  25.360  0.00  0.00    +0.000 OA
ATOM     31  H   UNL     1       4.747   9.306  25.510  0.00  0.00    +0.000 HD
ENDBRANCH  29  30
BRANCH  29  32
ATOM     32  C   UNL     1       4.719   9.790  27.731  0.00  0.00    +0.000 C 
BRANCH  32  33
ATOM     33  O   UNL     1       3.494   9.066  27.655  0.00  0.00    +0.000 OA
ATOM     34  H   UNL     1       3.482   8.500  28.453  0.00  0.00    +0.000 HD
ENDBRANCH  32  33
ENDBRANCH  29  32
ENDBRANCH  28  29
ENDBRANCH  10  28
TORSDOF 10
ENDMDL
MODEL 5
REMARK VINA RESULT:      -6.1      0.889      1.257
REMARK  Name = 
REMARK  15 active torsions:
REMARK  status: ('A' for Active; 'I' for Inactive)
REMARK    1  A    between atoms: C_1  and  C_2
REMARK    2  A    between atoms: C_2  and  C_3
REMARK    3  A    between atoms: C_2  and  C_4
REMARK    4  A    between atoms: C_4  and  C_5
REMARK    5  A    between atoms: C_5  and  C_6
REMARK    6  A    between atoms: C_6  and  C_7
REMARK    7  A    between atoms: C_7  and  C_8
REMARK    8  A    between atoms: C_7  and  C_9
REMARK    9  A    between atoms: C_18  and  O_19
REMARK   10  A    between atoms: O_19  and  C_20
REMARK   11  A    between atoms: C_20  and  O_21
REMARK   12  A    between atoms: C_20  and  C_22
REMARK   13  A    between atoms: C_22  and  O_23
REMARK   14  A    between atoms: C_26  and  C_27
REMARK   15  A    between atoms: C_31  and  C_32
REMARK                            x       y       z     vdW  Elec       q    Type
REMARK                         _______ _______ _______ _____ _____    ______ ____
ROOT
ATOM      1  C   UNL     1       3.696   3.830  19.145  0.00  0.00    +0.000 C 
ATOM      2  C   UNL     1       5.001   4.657  19.373  0.00  0.00    +0.000 C 
ATOM      3  C   UNL     1       4.641   6.144  19.207  0.00  0.00    +0.000 C 
ATOM      4  C   UNL     1       3.185   6.102  18.728  0.00  0.00    +0.000 C 
ATOM      5  C   UNL     1       2.291   7.291  18.886  0.00  0.00    +0.000 C 
ATOM      6  C   UNL     1       2.850   8.482  18.106  0.00  0.00    +0.000 C 
ATOM      7  C   UNL     1       1.840   9.568  18.143  0.00  0.00    +0.000 C 
ATOM      8  C   UNL     1       0.919   9.688  19.113  0.00  0.00    +0.000 C 
ATOM      9  C   UNL     1       0.095  10.946  19.149  0.00  0.00    +0.000 C 
ATOM     10  C   UNL     1       0.576  11.674  20.402  0.00  0.00    +0.000 C 
ATOM     11  C   UNL     1       0.162  10.860  21.635  0.00  0.00    +0.000 C 
ATOM     12  C   UNL     1       0.952   9.559  21.645  0.00  0.00    +0.000 C 
ATOM     13  C   UNL     1       0.796   8.735  20.340  0.00  0.00    +0.000 C 
ATOM     14  C   UNL     1      -0.616   8.090  20.347  0.00  0.00    +0.000 C 
ATOM     15  C   UNL     1       1.939   7.644  20.345  0.00  0.00    +0.000 C 
ATOM     16  C   UNL     1       1.634   6.420  21.256  0.00  0.00    +0.000 C 
ATOM     17  C   UNL     1       2.493   5.186  20.982  0.00  0.00    +0.000 C 
ATOM     18  C   UNL     1       2.592   4.883  19.465  0.00  0.00    +0.000 C 
ATOM     19  C   UNL     1       1.171   4.580  18.949  0.00  0.00    +0.000 C 
ENDROOT
BRANCH   1  20
ATOM     20  C   UNL     1       3.487   3.225  17.712  0.00  0.00    +0.000 C 
ATOM     21  C   UNL     1       2.946   1.768  17.827  0.00  0.00    +0.000 C 
BRANCH  20  22
ATOM     22  C   UNL     1       4.693   3.269  16.751  0.00  0.00    +0.000 C 
BRANCH  22  23
ATOM     23  C   UNL     1       4.377   4.294  15.654  0.00  0.00    +0.000 C 
BRANCH  23  24
ATOM     24  C   UNL     1       5.169   5.581  15.750  0.00  0.00    +0.000 C 
BRANCH  24  26
ATOM     25  C   UNL     1       7.430   4.943  14.897  0.00  0.00    +0.000 C 
ATOM     26  C   UNL     1       6.631   5.291  16.148  0.00  0.00    +0.000 C 
ATOM     27  C   UNL     1       7.305   6.458  16.886  0.00  0.00    +0.000 C 
ENDBRANCH  24  26
ENDBRANCH  23  24
ENDBRANCH  22  23
ENDBRANCH  20  22
ENDBRANCH   1  20
BRANCH  10  28
ATOM     28  O   UNL     1       0.105  13.014  20.400  0.00  0.00    +0.000 OA
BRANCH  28  29
ATOM     29  C   UNL     1       1.171  13.963  20.511  0.00  0.00    +0.000 C 
BRANCH  29  30
ATOM     30  O   UNL     1       2.309  13.413  21.157  0.00  0.00    +0.000 OA
ATOM     31  H   UNL     1       2.455  12.542  20.749  0.00  0.00    +0.000 HD
ENDBRANCH  29  30
BRANCH  29  32
ATOM     32  C   UNL     1       1.537  14.423  19.099  0.00  0.00    +0.000 C 
BRANCH  32  33
ATOM     33  O   UNL     1       1.115  15.766  18.871  0.00  0.00    +0.000 OA
ATOM     34  H   UNL     1       0.364  15.695  18.249  0.00  0.00    +0.000 HD
ENDBRANCH  32  33
ENDBRANCH  29  32
ENDBRANCH  28  29
ENDBRANCH  10  28
TORSDOF 10
ENDMDL
MODEL 6
REMARK VINA RESULT:      -6.0      4.017      9.406
REMARK  Name = 
REMARK  15 active torsions:
REMARK  status: ('A' for Active; 'I' for Inactive)
REMARK    1  A    between atoms: C_1  and  C_2
REMARK    2  A    between atoms: C_2  and  C_3
REMARK    3  A    between atoms: C_2  and  C_4
REMARK    4  A    between atoms: C_4  and  C_5
REMARK    5  A    between atoms: C_5  and  C_6
REMARK    6  A    between atoms: C_6  and  C_7
REMARK    7  A    between atoms: C_7  and  C_8
REMARK    8  A    between atoms: C_7  and  C_9
REMARK    9  A    between atoms: C_18  and  O_19
REMARK   10  A    between atoms: O_19  and  C_20
REMARK   11  A    between atoms: C_20  and  O_21
REMARK   12  A    between atoms: C_20  and  C_22
REMARK   13  A    between atoms: C_22  and  O_23
REMARK   14  A    between atoms: C_26  and  C_27
REMARK   15  A    between atoms: C_31  and  C_32
REMARK                            x       y       z     vdW  Elec       q    Type
REMARK                         _______ _______ _______ _____ _____    ______ ____
ROOT
ATOM      1  C   UNL     1      -0.851  12.214  20.015  0.00  0.00    +0.000 C 
ATOM      2  C   UNL     1       0.325  12.575  20.976  0.00  0.00    +0.000 C 
ATOM      3  C   UNL     1       1.112  11.281  21.250  0.00  0.00    +0.000 C 
ATOM      4  C   UNL     1       0.261  10.202  20.571  0.00  0.00    +0.000 C 
ATOM      5  C   UNL     1       0.858   8.887  20.181  0.00  0.00    +0.000 C 
ATOM      6  C   UNL     1       1.380   8.153  21.418  0.00  0.00    +0.000 C 
ATOM      7  C   UNL     1       1.789   6.789  21.002  0.00  0.00    +0.000 C 
ATOM      8  C   UNL     1       2.159   6.478  19.748  0.00  0.00    +0.000 C 
ATOM      9  C   UNL     1       2.752   5.117  19.507  0.00  0.00    +0.000 C 
ATOM     10  C   UNL     1       4.217   5.397  19.183  0.00  0.00    +0.000 C 
ATOM     11  C   UNL     1       4.293   6.137  17.841  0.00  0.00    +0.000 C 
ATOM     12  C   UNL     1       3.688   7.523  18.016  0.00  0.00    +0.000 C 
ATOM     13  C   UNL     1       2.239   7.495  18.571  0.00  0.00    +0.000 C 
ATOM     14  C   UNL     1       1.298   7.030  17.427  0.00  0.00    +0.000 C 
ATOM     15  C   UNL     1       1.901   8.964  19.047  0.00  0.00    +0.000 C 
ATOM     16  C   UNL     1       1.531   9.930  17.886  0.00  0.00    +0.000 C 
ATOM     17  C   UNL     1       0.816  11.210  18.320  0.00  0.00    +0.000 C 
ATOM     18  C   UNL     1      -0.319  10.917  19.333  0.00  0.00    +0.000 C 
ATOM     19  C   UNL     1      -1.360  10.021  18.632  0.00  0.00    +0.000 C 
ENDROOT
BRANCH   1  20
ATOM     20  C   UNL     1      -2.250  11.958  20.679  0.00  0.00    +0.000 C 
ATOM     21  C   UNL     1      -3.363  12.681  19.864  0.00  0.00    +0.000 C 
BRANCH  20  22
ATOM     22  C   UNL     1      -2.384  12.297  22.178  0.00  0.00    +0.000 C 
BRANCH  22  23
ATOM     23  C   UNL     1      -2.893  13.740  22.286  0.00  0.00    +0.000 C 
BRANCH  23  24
ATOM     24  C   UNL     1      -2.909  14.298  23.694  0.00  0.00    +0.000 C 
BRANCH  24  26
ATOM     25  C   UNL     1      -0.807  15.495  23.067  0.00  0.00    +0.000 C 
ATOM     26  C   UNL     1      -1.480  14.661  24.150  0.00  0.00    +0.000 C 
ATOM     27  C   UNL     1      -1.442  15.417  25.488  0.00  0.00    +0.000 C 
ENDBRANCH  24  26
ENDBRANCH  23  24
ENDBRANCH  22  23
ENDBRANCH  20  22
ENDBRANCH   1  20
BRANCH  10  28
ATOM     28  O   UNL     1       4.967   4.192  19.230  0.00  0.00    +0.000 OA
BRANCH  28  29
ATOM     29  C   UNL     1       4.132   3.031  19.158  0.00  0.00    +0.000 C 
BRANCH  29  30
ATOM     30  O   UNL     1       4.270   2.351  17.921  0.00  0.00    +0.000 OA
ATOM     31  H   UNL     1       5.082   2.698  17.512  0.00  0.00    +0.000 HD
ENDBRANCH  29  30
BRANCH  29  32
ATOM     32  C   UNL     1       4.514   2.106  20.315  0.00  0.00    +0.000 C 
BRANCH  32  33
ATOM     33  O   UNL     1       3.622   2.264  21.415  0.00  0.00    +0.000 OA
ATOM     34  H   UNL     1       3.649   1.408  21.889  0.00  0.00    +0.000 HD
ENDBRANCH  32  33
ENDBRANCH  29  32
ENDBRANCH  28  29
ENDBRANCH  10  28
TORSDOF 10
ENDMDL
MODEL 7
REMARK VINA RESULT:      -6.0      3.786      9.793
REMARK  Name = 
REMARK  15 active torsions:
REMARK  status: ('A' for Active; 'I' for Inactive)
REMARK    1  A    between atoms: C_1  and  C_2
REMARK    2  A    between atoms: C_2  and  C_3
REMARK    3  A    between atoms: C_2  and  C_4
REMARK    4  A    between atoms: C_4  and  C_5
REMARK    5  A    between atoms: C_5  and  C_6
REMARK    6  A    between atoms: C_6  and  C_7
REMARK    7  A    between atoms: C_7  and  C_8
REMARK    8  A    between atoms: C_7  and  C_9
REMARK    9  A    between atoms: C_18  and  O_19
REMARK   10  A    between atoms: O_19  and  C_20
REMARK   11  A    between atoms: C_20  and  O_21
REMARK   12  A    between atoms: C_20  and  C_22
REMARK   13  A    between atoms: C_22  and  O_23
REMARK   14  A    between atoms: C_26  and  C_27
REMARK   15  A    between atoms: C_31  and  C_32
REMARK                            x       y       z     vdW  Elec       q    Type
REMARK                         _______ _______ _______ _____ _____    ______ ____
ROOT
ATOM      1  C   UNL     1      -0.911  15.280  20.822  0.00  0.00    +0.000 C 
ATOM      2  C   UNL     1       0.543  15.437  21.369  0.00  0.00    +0.000 C 
ATOM      3  C   UNL     1       1.126  14.023  21.541  0.00  0.00    +0.000 C 
ATOM      4  C   UNL     1      -0.070  13.111  21.245  0.00  0.00    +0.000 C 
ATOM      5  C   UNL     1       0.134  11.685  20.838  0.00  0.00    +0.000 C 
ATOM      6  C   UNL     1       0.857  10.916  21.946  0.00  0.00    +0.000 C 
ATOM      7  C   UNL     1       0.868   9.480  21.574  0.00  0.00    +0.000 C 
ATOM      8  C   UNL     1       0.785   9.045  20.305  0.00  0.00    +0.000 C 
ATOM      9  C   UNL     1       1.021   7.582  20.047  0.00  0.00    +0.000 C 
ATOM     10  C   UNL     1       2.349   7.542  19.296  0.00  0.00    +0.000 C 
ATOM     11  C   UNL     1       2.156   8.190  17.918  0.00  0.00    +0.000 C 
ATOM     12  C   UNL     1       1.894   9.677  18.114  0.00  0.00    +0.000 C 
ATOM     13  C   UNL     1       0.696   9.971  19.055  0.00  0.00    +0.000 C 
ATOM     14  C   UNL     1      -0.610   9.657  18.278  0.00  0.00    +0.000 C 
ATOM     15  C   UNL     1       0.789  11.497  19.455  0.00  0.00    +0.000 C 
ATOM     16  C   UNL     1       0.272  12.466  18.352  0.00  0.00    +0.000 C 
ATOM     17  C   UNL     1      -0.036  13.883  18.837  0.00  0.00    +0.000 C 
ATOM     18  C   UNL     1      -0.852  13.873  20.154  0.00  0.00    +0.000 C 
ATOM     19  C   UNL     1      -2.199  13.179  19.872  0.00  0.00    +0.000 C 
ENDROOT
BRANCH   1  20
ATOM     20  C   UNL     1      -2.071  15.345  21.877  0.00  0.00    +0.000 C 
ATOM     21  C   UNL     1      -3.158  16.358  21.406  0.00  0.00    +0.000 C 
BRANCH  20  22
ATOM     22  C   UNL     1      -1.671  15.637  23.339  0.00  0.00    +0.000 C 
BRANCH  22  23
ATOM     23  C   UNL     1      -1.916  14.359  24.152  0.00  0.00    +0.000 C 
BRANCH  23  24
ATOM     24  C   UNL     1      -3.372  14.081  24.461  0.00  0.00    +0.000 C 
BRANCH  24  26
ATOM     25  C   UNL     1      -4.757  12.957  22.711  0.00  0.00    +0.000 C 
ATOM     26  C   UNL     1      -3.801  12.720  23.874  0.00  0.00    +0.000 C 
ATOM     27  C   UNL     1      -2.617  11.858  23.406  0.00  0.00    +0.000 C 
ENDBRANCH  24  26
ENDBRANCH  23  24
ENDBRANCH  22  23
ENDBRANCH  20  22
ENDBRANCH   1  20
BRANCH  10  28
ATOM     28  O   UNL     1       2.847   6.212  19.252  0.00  0.00    +0.000 OA
BRANCH  28  29
ATOM     29  C   UNL     1       4.049   6.109  18.481  0.00  0.00    +0.000 C 
BRANCH  29  30
ATOM     30  O   UNL     1       5.161   5.728  19.277  0.00  0.00    +0.000 OA
ATOM     31  H   UNL     1       5.592   4.995  18.804  0.00  0.00    +0.000 HD
ENDBRANCH  29  30
BRANCH  29  32
ATOM     32  C   UNL     1       3.811   5.078  17.378  0.00  0.00    +0.000 C 
BRANCH  32  33
ATOM     33  O   UNL     1       3.471   3.807  17.927  0.00  0.00    +0.000 OA
ATOM     34  H   UNL     1       2.689   3.511  17.419  0.00  0.00    +0.000 HD
ENDBRANCH  32  33
ENDBRANCH  29  32
ENDBRANCH  28  29
ENDBRANCH  10  28
TORSDOF 10
ENDMDL
MODEL 8
REMARK VINA RESULT:      -6.0      1.773      2.672
REMARK  Name = 
REMARK  15 active torsions:
REMARK  status: ('A' for Active; 'I' for Inactive)
REMARK    1  A    between atoms: C_1  and  C_2
REMARK    2  A    between atoms: C_2  and  C_3
REMARK    3  A    between atoms: C_2  and  C_4
REMARK    4  A    between atoms: C_4  and  C_5
REMARK    5  A    between atoms: C_5  and  C_6
REMARK    6  A    between atoms: C_6  and  C_7
REMARK    7  A    between atoms: C_7  and  C_8
REMARK    8  A    between atoms: C_7  and  C_9
REMARK    9  A    between atoms: C_18  and  O_19
REMARK   10  A    between atoms: O_19  and  C_20
REMARK   11  A    between atoms: C_20  and  O_21
REMARK   12  A    between atoms: C_20  and  C_22
REMARK   13  A    between atoms: C_22  and  O_23
REMARK   14  A    between atoms: C_26  and  C_27
REMARK   15  A    between atoms: C_31  and  C_32
REMARK                            x       y       z     vdW  Elec       q    Type
REMARK                         _______ _______ _______ _____ _____    ______ ____
ROOT
ATOM      1  C   UNL     1       4.032   3.966  18.559  0.00  0.00    +0.000 C 
ATOM      2  C   UNL     1       5.272   4.885  18.798  0.00  0.00    +0.000 C 
ATOM      3  C   UNL     1       4.761   6.335  18.886  0.00  0.00    +0.000 C 
ATOM      4  C   UNL     1       3.276   6.207  18.528  0.00  0.00    +0.000 C 
ATOM      5  C   UNL     1       2.295   7.261  18.934  0.00  0.00    +0.000 C 
ATOM      6  C   UNL     1       2.664   8.602  18.297  0.00  0.00    +0.000 C 
ATOM      7  C   UNL     1       1.566   9.560  18.578  0.00  0.00    +0.000 C 
ATOM      8  C   UNL     1       0.736   9.445  19.629  0.00  0.00    +0.000 C 
ATOM      9  C   UNL     1      -0.193  10.591  19.919  0.00  0.00    +0.000 C 
ATOM     10  C   UNL     1       0.338  11.184  21.222  0.00  0.00    +0.000 C 
ATOM     11  C   UNL     1       0.122  10.166  22.351  0.00  0.00    +0.000 C 
ATOM     12  C   UNL     1       1.026   8.967  22.102  0.00  0.00    +0.000 C 
ATOM     13  C   UNL     1       0.821   8.322  20.705  0.00  0.00    +0.000 C 
ATOM     14  C   UNL     1      -0.518   7.537  20.733  0.00  0.00    +0.000 C 
ATOM     15  C   UNL     1       2.056   7.368  20.454  0.00  0.00    +0.000 C 
ATOM     16  C   UNL     1       1.954   6.003  21.195  0.00  0.00    +0.000 C 
ATOM     17  C   UNL     1       2.893   4.917  20.669  0.00  0.00    +0.000 C 
ATOM     18  C   UNL     1       2.872   4.841  19.122  0.00  0.00    +0.000 C 
ATOM     19  C   UNL     1       1.442   4.465  18.686  0.00  0.00    +0.000 C 
ENDROOT
BRANCH   1  20
ATOM     20  C   UNL     1       3.742   3.548  17.073  0.00  0.00    +0.000 C 
ATOM     21  C   UNL     1       2.972   2.194  17.046  0.00  0.00    +0.000 C 
BRANCH  20  22
ATOM     22  C   UNL     1       4.949   3.493  16.114  0.00  0.00    +0.000 C 
BRANCH  22  23
ATOM     23  C   UNL     1       5.214   4.920  15.616  0.00  0.00    +0.000 C 
BRANCH  23  24
ATOM     24  C   UNL     1       5.322   5.050  14.112  0.00  0.00    +0.000 C 
BRANCH  24  26
ATOM     25  C   UNL     1       5.984   3.333  12.421  0.00  0.00    +0.000 C 
ATOM     26  C   UNL     1       6.487   4.194  13.574  0.00  0.00    +0.000 C 
ATOM     27  C   UNL     1       7.693   5.028  13.112  0.00  0.00    +0.000 C 
ENDBRANCH  24  26
ENDBRANCH  23  24
ENDBRANCH  22  23
ENDBRANCH  20  22
ENDBRANCH   1  20
BRANCH  10  28
ATOM     28  O   UNL     1      -0.253  12.454  21.459  0.00  0.00    +0.000 OA
BRANCH  28  29
ATOM     29  C   UNL     1      -1.146  12.435  22.578  0.00  0.00    +0.000 C 
BRANCH  29  30
ATOM     30  O   UNL     1      -0.852  13.463  23.511  0.00  0.00    +0.000 OA
ATOM     31  H   UNL     1       0.101  13.398  23.693  0.00  0.00    +0.000 HD
ENDBRANCH  29  30
BRANCH  29  32
ATOM     32  C   UNL     1      -2.570  12.598  22.045  0.00  0.00    +0.000 C 
BRANCH  32  33
ATOM     33  O   UNL     1      -3.532  12.229  23.029  0.00  0.00    +0.000 OA
ATOM     34  H   UNL     1      -4.132  12.999  23.100  0.00  0.00    +0.000 HD
ENDBRANCH  32  33
ENDBRANCH  29  32
ENDBRANCH  28  29
ENDBRANCH  10  28
TORSDOF 10
ENDMDL
MODEL 9
REMARK VINA RESULT:      -5.9      6.516     11.136
REMARK  Name = 
REMARK  15 active torsions:
REMARK  status: ('A' for Active; 'I' for Inactive)
REMARK    1  A    between atoms: C_1  and  C_2
REMARK    2  A    between atoms: C_2  and  C_3
REMARK    3  A    between atoms: C_2  and  C_4
REMARK    4  A    between atoms: C_4  and  C_5
REMARK    5  A    between atoms: C_5  and  C_6
REMARK    6  A    between atoms: C_6  and  C_7
REMARK    7  A    between atoms: C_7  and  C_8
REMARK    8  A    between atoms: C_7  and  C_9
REMARK    9  A    between atoms: C_18  and  O_19
REMARK   10  A    between atoms: O_19  and  C_20
REMARK   11  A    between atoms: C_20  and  O_21
REMARK   12  A    between atoms: C_20  and  C_22
REMARK   13  A    between atoms: C_22  and  O_23
REMARK   14  A    between atoms: C_26  and  C_27
REMARK   15  A    between atoms: C_31  and  C_32
REMARK                            x       y       z     vdW  Elec       q    Type
REMARK                         _______ _______ _______ _____ _____    ______ ____
ROOT
ATOM      1  C   UNL     1      -2.340  14.200  23.619  0.00  0.00    +0.000 C 
ATOM      2  C   UNL     1      -3.262  13.022  24.067  0.00  0.00    +0.000 C 
ATOM      3  C   UNL     1      -3.849  12.385  22.795  0.00  0.00    +0.000 C 
ATOM      4  C   UNL     1      -3.373  13.323  21.680  0.00  0.00    +0.000 C 
ATOM      5  C   UNL     1      -3.305  12.856  20.260  0.00  0.00    +0.000 C 
ATOM      6  C   UNL     1      -4.696  12.452  19.768  0.00  0.00    +0.000 C 
ATOM      7  C   UNL     1      -4.604  12.176  18.313  0.00  0.00    +0.000 C 
ATOM      8  C   UNL     1      -3.467  11.803  17.701  0.00  0.00    +0.000 C 
ATOM      9  C   UNL     1      -3.555  11.349  16.270  0.00  0.00    +0.000 C 
ATOM     10  C   UNL     1      -3.257   9.853  16.331  0.00  0.00    +0.000 C 
ATOM     11  C   UNL     1      -1.793   9.659  16.750  0.00  0.00    +0.000 C 
ATOM     12  C   UNL     1      -1.635  10.120  18.191  0.00  0.00    +0.000 C 
ATOM     13  C   UNL     1      -2.105  11.580  18.425  0.00  0.00    +0.000 C 
ATOM     14  C   UNL     1      -1.040  12.529  17.813  0.00  0.00    +0.000 C 
ATOM     15  C   UNL     1      -2.238  11.776  19.988  0.00  0.00    +0.000 C 
ATOM     16  C   UNL     1      -0.878  12.007  20.708  0.00  0.00    +0.000 C 
ATOM     17  C   UNL     1      -0.990  12.597  22.114  0.00  0.00    +0.000 C 
ATOM     18  C   UNL     1      -1.981  13.787  22.159  0.00  0.00    +0.000 C 
ATOM     19  C   UNL     1      -1.435  14.894  21.237  0.00  0.00    +0.000 C 
ENDROOT
BRANCH   1  20
ATOM     20  C   UNL     1      -2.970  15.638  23.649  0.00  0.00    +0.000 C 
ATOM     21  C   UNL     1      -3.170  16.096  25.125  0.00  0.00    +0.000 C 
BRANCH  20  22
ATOM     22  C   UNL     1      -4.270  15.850  22.846  0.00  0.00    +0.000 C 
BRANCH  22  23
ATOM     23  C   UNL     1      -5.434  15.887  23.845  0.00  0.00    +0.000 C 
BRANCH  23  24
ATOM     24  C   UNL     1      -6.798  16.062  23.213  0.00  0.00    +0.000 C 
BRANCH  24  26
ATOM     25  C   UNL     1      -7.381  14.197  21.654  0.00  0.00    +0.000 C 
ATOM     26  C   UNL     1      -7.516  14.702  23.086  0.00  0.00    +0.000 C 
ATOM     27  C   UNL     1      -6.987  13.640  24.063  0.00  0.00    +0.000 C 
ENDBRANCH  24  26
ENDBRANCH  23  24
ENDBRANCH  22  23
ENDBRANCH  20  22
ENDBRANCH   1  20
BRANCH  10  28
ATOM     28  O   UNL     1      -3.600   9.236  15.099  0.00  0.00    +0.000 OA
BRANCH  28  29
ATOM     29  C   UNL     1      -3.352  10.090  13.977  0.00  0.00    +0.000 C 
BRANCH  29  30
ATOM     30  O   UNL     1      -2.153   9.745  13.300  0.00  0.00    +0.000 OA
ATOM     31  H   UNL     1      -2.377   9.715  12.355  0.00  0.00    +0.000 HD
ENDBRANCH  29  30
BRANCH  29  32
ATOM     32  C   UNL     1      -4.546   9.977  13.029  0.00  0.00    +0.000 C 
BRANCH  32  33
ATOM     33  O   UNL     1      -4.128  10.036  11.667  0.00  0.00    +0.000 OA
ATOM     34  H   UNL     1      -4.514   9.241  11.247  0.00  0.00    +0.000 HD
ENDBRANCH  32  33
ENDBRANCH  29  32
ENDBRANCH  28  29
ENDBRANCH  10  28
TORSDOF 10
ENDMDL
