MODEL 1
REMARK VINA RESULT:      -8.0      0.000      0.000
REMARK  Name = 
REMARK  2 active torsions:
REMARK  status: ('A' for Active; 'I' for Inactive)
REMARK    1  A    between atoms: C_9  and  N_10
REMARK    2  A    between atoms: N_10  and  C_11
REMARK                            x       y       z     vdW  Elec       q    Type
REMARK                         _______ _______ _______ _____ _____    ______ ____
ROOT
ATOM      1  N   UNL     1       4.180   3.745  17.008  0.00  0.00    +0.000 N 
ATOM      2  H   UNL     1       3.317   4.198  16.717  0.00  0.00    +0.000 HD
ENDROOT
BRANCH   1   3
ATOM      3  C   UNL     1       5.275   4.585  16.780  0.00  0.00    +0.000 A 
ATOM      4  N   UNL     1       5.714   5.431  17.753  0.00  0.00    +0.000 NA
ATOM      5  C   UNL     1       6.788   6.213  17.514  0.00  0.00    +0.000 A 
ATOM      6  N   UNL     1       7.525   6.297  16.391  0.00  0.00    +0.000 NA
ATOM      7  C   UNL     1       7.056   5.456  15.459  0.00  0.00    +0.000 A 
ATOM      8  N   UNL     1       7.552   5.275  14.202  0.00  0.00    +0.000 N 
ATOM      9  C   UNL     1       6.774   4.334  13.584  0.00  0.00    +0.000 A 
ATOM     10  N   UNL     1       5.807   3.903  14.368  0.00  0.00    +0.000 NA
ATOM     11  C   UNL     1       5.977   4.594  15.556  0.00  0.00    +0.000 A 
ATOM     12  H   UNL     1       8.350   5.756  13.815  0.00  0.00    +0.000 HD
ENDBRANCH   1   3
BRANCH   1  21
ATOM     13  C   UNL     1       0.835   4.444  20.657  0.00  0.00    +0.000 A 
ATOM     14  C   UNL     1       1.982   5.254  20.652  0.00  0.00    +0.000 A 
ATOM     15  C   UNL     1       3.104   4.897  19.898  0.00  0.00    +0.000 A 
ATOM     16  C   UNL     1       3.060   3.718  19.169  0.00  0.00    +0.000 A 
ATOM     17  C   UNL     1       1.914   2.911  19.182  0.00  0.00    +0.000 A 
ATOM     18  C   UNL     1       0.792   3.267  19.909  0.00  0.00    +0.000 A 
ATOM     19  C   UNL     1       2.108   1.709  18.313  0.00  0.00    +0.000 C 
ATOM     20  C   UNL     1       3.640   1.653  18.232  0.00  0.00    +0.000 C 
ATOM     21  C   UNL     1       4.146   3.110  18.315  0.00  0.00    +0.000 C 
ENDBRANCH   1  21
TORSDOF 2
ENDMDL
MODEL 2
REMARK VINA RESULT:      -8.0      1.056      1.881
REMARK  Name = 
REMARK  2 active torsions:
REMARK  status: ('A' for Active; 'I' for Inactive)
REMARK    1  A    between atoms: C_9  and  N_10
REMARK    2  A    between atoms: N_10  and  C_11
REMARK                            x       y       z     vdW  Elec       q    Type
REMARK                         _______ _______ _______ _____ _____    ______ ____
ROOT
ATOM      1  N   UNL     1       5.108   3.802  18.209  0.00  0.00    +0.000 N 
ATOM      2  H   UNL     1       5.498   2.864  18.146  0.00  0.00    +0.000 HD
ENDROOT
BRANCH   1   3
ATOM      3  C   UNL     1       5.958   4.729  17.597  0.00  0.00    +0.000 A 
ATOM      4  N   UNL     1       6.476   5.769  18.306  0.00  0.00    +0.000 NA
ATOM      5  C   UNL     1       7.314   6.634  17.696  0.00  0.00    +0.000 A 
ATOM      6  N   UNL     1       7.729   6.630  16.415  0.00  0.00    +0.000 NA
ATOM      7  C   UNL     1       7.191   5.597  15.752  0.00  0.00    +0.000 A 
ATOM      8  N   UNL     1       7.386   5.281  14.440  0.00  0.00    +0.000 N 
ATOM      9  C   UNL     1       6.648   4.161  14.172  0.00  0.00    +0.000 A 
ATOM     10  N   UNL     1       5.987   3.741  15.232  0.00  0.00    +0.000 NA
ATOM     11  C   UNL     1       6.327   4.630  16.238  0.00  0.00    +0.000 A 
ATOM     12  H   UNL     1       7.973   5.792  13.799  0.00  0.00    +0.000 HD
ENDBRANCH   1   3
BRANCH   1  21
ATOM     13  C   UNL     1       1.153   3.315  21.229  0.00  0.00    +0.000 A 
ATOM     14  C   UNL     1       1.619   2.169  20.565  0.00  0.00    +0.000 A 
ATOM     15  C   UNL     1       2.471   2.279  19.463  0.00  0.00    +0.000 A 
ATOM     16  C   UNL     1       2.831   3.548  19.033  0.00  0.00    +0.000 A 
ATOM     17  C   UNL     1       2.358   4.689  19.696  0.00  0.00    +0.000 A 
ATOM     18  C   UNL     1       1.531   4.588  20.800  0.00  0.00    +0.000 A 
ATOM     19  C   UNL     1       2.894   5.929  19.055  0.00  0.00    +0.000 C 
ATOM     20  C   UNL     1       3.282   5.396  17.668  0.00  0.00    +0.000 C 
ATOM     21  C   UNL     1       3.702   3.922  17.859  0.00  0.00    +0.000 C 
ENDBRANCH   1  21
TORSDOF 2
ENDMDL
MODEL 3
REMARK VINA RESULT:      -8.0      1.106      2.773
REMARK  Name = 
REMARK  2 active torsions:
REMARK  status: ('A' for Active; 'I' for Inactive)
REMARK    1  A    between atoms: C_9  and  N_10
REMARK    2  A    between atoms: N_10  and  C_11
REMARK                            x       y       z     vdW  Elec       q    Type
REMARK                         _______ _______ _______ _____ _____    ______ ____
ROOT
ATOM      1  N   UNL     1       4.810   3.530  17.722  0.00  0.00    +0.000 N 
ATOM      2  H   UNL     1       5.009   2.534  17.774  0.00  0.00    +0.000 HD
ENDROOT
BRANCH   1   3
ATOM      3  C   UNL     1       5.641   4.148  16.782  0.00  0.00    +0.000 A 
ATOM      4  N   UNL     1       5.715   3.677  15.506  0.00  0.00    +0.000 NA
ATOM      5  C   UNL     1       6.507   4.308  14.613  0.00  0.00    +0.000 A 
ATOM      6  N   UNL     1       7.289   5.387  14.808  0.00  0.00    +0.000 NA
ATOM      7  C   UNL     1       7.193   5.812  16.075  0.00  0.00    +0.000 A 
ATOM      8  N   UNL     1       7.843   6.875  16.628  0.00  0.00    +0.000 N 
ATOM      9  C   UNL     1       7.465   6.951  17.941  0.00  0.00    +0.000 A 
ATOM     10  N   UNL     1       6.614   5.998  18.265  0.00  0.00    +0.000 NA
ATOM     11  C   UNL     1       6.426   5.279  17.097  0.00  0.00    +0.000 A 
ATOM     12  H   UNL     1       8.483   7.485  16.141  0.00  0.00    +0.000 HD
ENDBRANCH   1   3
BRANCH   1  21
ATOM     13  C   UNL     1       1.385   3.363  21.361  0.00  0.00    +0.000 A 
ATOM     14  C   UNL     1       1.546   2.224  20.556  0.00  0.00    +0.000 A 
ATOM     15  C   UNL     1       2.210   2.305  19.329  0.00  0.00    +0.000 A 
ATOM     16  C   UNL     1       2.690   3.540  18.920  0.00  0.00    +0.000 A 
ATOM     17  C   UNL     1       2.522   4.675  19.725  0.00  0.00    +0.000 A 
ATOM     18  C   UNL     1       1.884   4.600  20.951  0.00  0.00    +0.000 A 
ATOM     19  C   UNL     1       3.134   5.876  19.076  0.00  0.00    +0.000 C 
ATOM     20  C   UNL     1       3.196   5.414  17.612  0.00  0.00    +0.000 C 
ATOM     21  C   UNL     1       3.402   3.884  17.635  0.00  0.00    +0.000 C 
ENDBRANCH   1  21
TORSDOF 2
ENDMDL
MODEL 4
REMARK VINA RESULT:      -8.0      0.564      2.062
REMARK  Name = 
REMARK  2 active torsions:
REMARK  status: ('A' for Active; 'I' for Inactive)
REMARK    1  A    between atoms: C_9  and  N_10
REMARK    2  A    between atoms: N_10  and  C_11
REMARK                            x       y       z     vdW  Elec       q    Type
REMARK                         _______ _______ _______ _____ _____    ______ ____
ROOT
ATOM      1  N   UNL     1       3.929   4.024  16.704  0.00  0.00    +0.000 N 
ATOM      2  H   UNL     1       3.242   4.774  16.675  0.00  0.00    +0.000 HD
ENDROOT
BRANCH   1   3
ATOM      3  C   UNL     1       5.121   4.427  16.094  0.00  0.00    +0.000 A 
ATOM      4  N   UNL     1       5.556   3.821  14.955  0.00  0.00    +0.000 NA
ATOM      5  C   UNL     1       6.697   4.248  14.373  0.00  0.00    +0.000 A 
ATOM      6  N   UNL     1       7.524   5.230  14.779  0.00  0.00    +0.000 NA
ATOM      7  C   UNL     1       7.063   5.794  15.904  0.00  0.00    +0.000 A 
ATOM      8  N   UNL     1       7.640   6.815  16.598  0.00  0.00    +0.000 N 
ATOM      9  C   UNL     1       6.849   7.075  17.683  0.00  0.00    +0.000 A 
ATOM     10  N   UNL     1       5.800   6.280  17.729  0.00  0.00    +0.000 NA
ATOM     11  C   UNL     1       5.916   5.473  16.609  0.00  0.00    +0.000 A 
ATOM     12  H   UNL     1       8.497   7.283  16.342  0.00  0.00    +0.000 HD
ENDBRANCH   1   3
BRANCH   1  21
ATOM     13  C   UNL     1       0.964   4.416  20.711  0.00  0.00    +0.000 A 
ATOM     14  C   UNL     1       2.046   5.305  20.603  0.00  0.00    +0.000 A 
ATOM     15  C   UNL     1       3.100   5.043  19.723  0.00  0.00    +0.000 A 
ATOM     16  C   UNL     1       3.057   3.878  18.973  0.00  0.00    +0.000 A 
ATOM     17  C   UNL     1       1.978   2.991  19.088  0.00  0.00    +0.000 A 
ATOM     18  C   UNL     1       0.920   3.253  19.941  0.00  0.00    +0.000 A 
ATOM     19  C   UNL     1       2.156   1.823  18.172  0.00  0.00    +0.000 C 
ATOM     20  C   UNL     1       3.671   1.877  17.924  0.00  0.00    +0.000 C 
ATOM     21  C   UNL     1       4.082   3.364  17.990  0.00  0.00    +0.000 C 
ENDBRANCH   1  21
TORSDOF 2
ENDMDL
MODEL 5
REMARK VINA RESULT:      -7.8      1.753      3.112
REMARK  Name = 
REMARK  2 active torsions:
REMARK  status: ('A' for Active; 'I' for Inactive)
REMARK    1  A    between atoms: C_9  and  N_10
REMARK    2  A    between atoms: N_10  and  C_11
REMARK                            x       y       z     vdW  Elec       q    Type
REMARK                         _______ _______ _______ _____ _____    ______ ____
ROOT
ATOM      1  N   UNL     1       4.142   6.262  18.893  0.00  0.00    +0.000 N 
ATOM      2  H   UNL     1       4.481   5.615  19.602  0.00  0.00    +0.000 HD
ENDROOT
BRANCH   1   3
ATOM      3  C   UNL     1       4.872   6.115  17.709  0.00  0.00    +0.000 A 
ATOM      4  N   UNL     1       4.417   6.652  16.543  0.00  0.00    +0.000 NA
ATOM      5  C   UNL     1       5.154   6.516  15.420  0.00  0.00    +0.000 A 
ATOM      6  N   UNL     1       6.333   5.884  15.268  0.00  0.00    +0.000 NA
ATOM      7  C   UNL     1       6.740   5.365  16.434  0.00  0.00    +0.000 A 
ATOM      8  N   UNL     1       7.884   4.658  16.656  0.00  0.00    +0.000 N 
ATOM      9  C   UNL     1       7.906   4.313  17.979  0.00  0.00    +0.000 A 
ATOM     10  N   UNL     1       6.842   4.752  18.620  0.00  0.00    +0.000 NA
ATOM     11  C   UNL     1       6.103   5.425  17.662  0.00  0.00    +0.000 A 
ATOM     12  H   UNL     1       8.579   4.440  15.957  0.00  0.00    +0.000 HD
ENDBRANCH   1   3
BRANCH   1  21
ATOM     13  C   UNL     1       0.860   2.541  19.504  0.00  0.00    +0.000 A 
ATOM     14  C   UNL     1       1.398   2.740  18.222  0.00  0.00    +0.000 A 
ATOM     15  C   UNL     1       2.032   3.940  17.893  0.00  0.00    +0.000 A 
ATOM     16  C   UNL     1       2.102   4.935  18.857  0.00  0.00    +0.000 A 
ATOM     17  C   UNL     1       1.557   4.734  20.133  0.00  0.00    +0.000 A 
ATOM     18  C   UNL     1       0.946   3.540  20.474  0.00  0.00    +0.000 A 
ATOM     19  C   UNL     1       1.769   5.940  20.991  0.00  0.00    +0.000 C 
ATOM     20  C   UNL     1       2.013   7.017  19.924  0.00  0.00    +0.000 C 
ATOM     21  C   UNL     1       2.699   6.315  18.731  0.00  0.00    +0.000 C 
ENDBRANCH   1  21
TORSDOF 2
ENDMDL
MODEL 6
REMARK VINA RESULT:      -7.7      1.588      2.749
REMARK  Name = 
REMARK  2 active torsions:
REMARK  status: ('A' for Active; 'I' for Inactive)
REMARK    1  A    between atoms: C_9  and  N_10
REMARK    2  A    between atoms: N_10  and  C_11
REMARK                            x       y       z     vdW  Elec       q    Type
REMARK                         _______ _______ _______ _____ _____    ______ ____
ROOT
ATOM      1  N   UNL     1       4.677   5.650  19.426  0.00  0.00    +0.000 N 
ATOM      2  H   UNL     1       4.710   5.015  20.221  0.00  0.00    +0.000 HD
ENDROOT
BRANCH   1   3
ATOM      3  C   UNL     1       5.717   5.372  18.533  0.00  0.00    +0.000 A 
ATOM      4  N   UNL     1       6.833   4.712  18.952  0.00  0.00    +0.000 NA
ATOM      5  C   UNL     1       7.810   4.435  18.063  0.00  0.00    +0.000 A 
ATOM      6  N   UNL     1       7.857   4.740  16.753  0.00  0.00    +0.000 NA
ATOM      7  C   UNL     1       6.746   5.394  16.385  0.00  0.00    +0.000 A 
ATOM      8  N   UNL     1       6.450   5.858  15.138  0.00  0.00    +0.000 N 
ATOM      9  C   UNL     1       5.227   6.467  15.204  0.00  0.00    +0.000 A 
ATOM     10  N   UNL     1       4.721   6.424  16.420  0.00  0.00    +0.000 NA
ATOM     11  C   UNL     1       5.663   5.743  17.173  0.00  0.00    +0.000 A 
ATOM     12  H   UNL     1       7.039   5.760  14.324  0.00  0.00    +0.000 HD
ENDBRANCH   1   3
BRANCH   1  21
ATOM     13  C   UNL     1       0.983   2.297  19.095  0.00  0.00    +0.000 A 
ATOM     14  C   UNL     1       1.909   2.364  18.041  0.00  0.00    +0.000 A 
ATOM     15  C   UNL     1       2.739   3.477  17.889  0.00  0.00    +0.000 A 
ATOM     16  C   UNL     1       2.616   4.519  18.795  0.00  0.00    +0.000 A 
ATOM     17  C   UNL     1       1.687   4.451  19.843  0.00  0.00    +0.000 A 
ATOM     18  C   UNL     1       0.875   3.343  20.013  0.00  0.00    +0.000 A 
ATOM     19  C   UNL     1       1.753   5.684  20.687  0.00  0.00    +0.000 C 
ATOM     20  C   UNL     1       2.429   6.663  19.717  0.00  0.00    +0.000 C 
ATOM     21  C   UNL     1       3.368   5.828  18.820  0.00  0.00    +0.000 C 
ENDBRANCH   1  21
TORSDOF 2
ENDMDL
MODEL 7
REMARK VINA RESULT:      -7.7      1.442      1.609
REMARK  Name = 
REMARK  2 active torsions:
REMARK  status: ('A' for Active; 'I' for Inactive)
REMARK    1  A    between atoms: C_9  and  N_10
REMARK    2  A    between atoms: N_10  and  C_11
REMARK                            x       y       z     vdW  Elec       q    Type
REMARK                         _______ _______ _______ _____ _____    ______ ____
ROOT
ATOM      1  N   UNL     1       4.036   4.653  17.961  0.00  0.00    +0.000 N 
ATOM      2  H   UNL     1       3.838   5.268  18.747  0.00  0.00    +0.000 HD
ENDROOT
BRANCH   1   3
ATOM      3  C   UNL     1       5.404   4.658  17.668  0.00  0.00    +0.000 A 
ATOM      4  N   UNL     1       6.327   4.654  18.669  0.00  0.00    +0.000 NA
ATOM      5  C   UNL     1       7.640   4.634  18.357  0.00  0.00    +0.000 A 
ATOM      6  N   UNL     1       8.208   4.629  17.136  0.00  0.00    +0.000 NA
ATOM      7  C   UNL     1       7.266   4.641  16.183  0.00  0.00    +0.000 A 
ATOM      8  N   UNL     1       7.473   4.642  14.835  0.00  0.00    +0.000 N 
ATOM      9  C   UNL     1       6.246   4.664  14.231  0.00  0.00    +0.000 A 
ATOM     10  N   UNL     1       5.264   4.679  15.109  0.00  0.00    +0.000 NA
ATOM     11  C   UNL     1       5.892   4.656  16.343  0.00  0.00    +0.000 A 
ATOM     12  H   UNL     1       8.375   4.629  14.384  0.00  0.00    +0.000 HD
ENDBRANCH   1   3
BRANCH   1  21
ATOM     13  C   UNL     1       1.292   2.737  21.675  0.00  0.00    +0.000 A 
ATOM     14  C   UNL     1       2.678   2.512  21.697  0.00  0.00    +0.000 A 
ATOM     15  C   UNL     1       3.451   2.703  20.549  0.00  0.00    +0.000 A 
ATOM     16  C   UNL     1       2.812   3.103  19.384  0.00  0.00    +0.000 A 
ATOM     17  C   UNL     1       1.428   3.320  19.366  0.00  0.00    +0.000 A 
ATOM     18  C   UNL     1       0.658   3.154  20.504  0.00  0.00    +0.000 A 
ATOM     19  C   UNL     1       0.981   3.755  18.006  0.00  0.00    +0.000 C 
ATOM     20  C   UNL     1       2.151   3.259  17.144  0.00  0.00    +0.000 C 
ATOM     21  C   UNL     1       3.419   3.338  18.022  0.00  0.00    +0.000 C 
ENDBRANCH   1  21
TORSDOF 2
ENDMDL
MODEL 8
REMARK VINA RESULT:      -7.5      1.523      1.696
REMARK  Name = 
REMARK  2 active torsions:
REMARK  status: ('A' for Active; 'I' for Inactive)
REMARK    1  A    between atoms: C_9  and  N_10
REMARK    2  A    between atoms: N_10  and  C_11
REMARK                            x       y       z     vdW  Elec       q    Type
REMARK                         _______ _______ _______ _____ _____    ______ ____
ROOT
ATOM      1  N   UNL     1       5.879   3.471  18.765  0.00  0.00    +0.000 N 
ATOM      2  H   UNL     1       5.708   2.690  18.135  0.00  0.00    +0.000 HD
ENDROOT
BRANCH   1   3
ATOM      3  C   UNL     1       6.408   4.560  18.062  0.00  0.00    +0.000 A 
ATOM      4  N   UNL     1       6.918   5.632  18.728  0.00  0.00    +0.000 NA
ATOM      5  C   UNL     1       7.444   6.658  18.025  0.00  0.00    +0.000 A 
ATOM      6  N   UNL     1       7.534   6.793  16.688  0.00  0.00    +0.000 NA
ATOM      7  C   UNL     1       7.014   5.722  16.074  0.00  0.00    +0.000 A 
ATOM      8  N   UNL     1       6.933   5.515  14.728  0.00  0.00    +0.000 N 
ATOM      9  C   UNL     1       6.329   4.304  14.533  0.00  0.00    +0.000 A 
ATOM     10  N   UNL     1       6.015   3.721  15.672  0.00  0.00    +0.000 NA
ATOM     11  C   UNL     1       6.449   4.599  16.652  0.00  0.00    +0.000 A 
ATOM     12  H   UNL     1       7.265   6.153  14.020  0.00  0.00    +0.000 HD
ENDBRANCH   1   3
BRANCH   1  21
ATOM     13  C   UNL     1       1.218   4.861  17.609  0.00  0.00    +0.000 A 
ATOM     14  C   UNL     1       2.180   5.868  17.789  0.00  0.00    +0.000 A 
ATOM     15  C   UNL     1       3.385   5.596  18.441  0.00  0.00    +0.000 A 
ATOM     16  C   UNL     1       3.600   4.312  18.919  0.00  0.00    +0.000 A 
ATOM     17  C   UNL     1       2.635   3.312  18.743  0.00  0.00    +0.000 A 
ATOM     18  C   UNL     1       1.447   3.567  18.079  0.00  0.00    +0.000 A 
ATOM     19  C   UNL     1       3.103   2.019  19.331  0.00  0.00    +0.000 C 
ATOM     20  C   UNL     1       4.181   2.517  20.304  0.00  0.00    +0.000 C 
ATOM     21  C   UNL     1       4.795   3.789  19.679  0.00  0.00    +0.000 C 
ENDBRANCH   1  21
TORSDOF 2
ENDMDL
MODEL 9
REMARK VINA RESULT:      -7.5      1.494      3.157
REMARK  Name = 
REMARK  2 active torsions:
REMARK  status: ('A' for Active; 'I' for Inactive)
REMARK    1  A    between atoms: C_9  and  N_10
REMARK    2  A    between atoms: N_10  and  C_11
REMARK                            x       y       z     vdW  Elec       q    Type
REMARK                         _______ _______ _______ _____ _____    ______ ____
ROOT
ATOM      1  N   UNL     1       4.478   3.975  17.509  0.00  0.00    +0.000 N 
ATOM      2  H   UNL     1       4.569   3.095  17.005  0.00  0.00    +0.000 HD
ENDROOT
BRANCH   1   3
ATOM      3  C   UNL     1       5.547   4.825  17.205  0.00  0.00    +0.000 A 
ATOM      4  N   UNL     1       5.744   5.263  15.931  0.00  0.00    +0.000 NA
ATOM      5  C   UNL     1       6.769   6.103  15.672  0.00  0.00    +0.000 A 
ATOM      6  N   UNL     1       7.685   6.591  16.529  0.00  0.00    +0.000 NA
ATOM      7  C   UNL     1       7.459   6.129  17.767  0.00  0.00    +0.000 A 
ATOM      8  N   UNL     1       8.186   6.411  18.886  0.00  0.00    +0.000 N 
ATOM      9  C   UNL     1       7.619   5.730  19.928  0.00  0.00    +0.000 A 
ATOM     10  N   UNL     1       6.574   5.026  19.545  0.00  0.00    +0.000 NA
ATOM     11  C   UNL     1       6.455   5.275  18.188  0.00  0.00    +0.000 A 
ATOM     12  H   UNL     1       8.994   7.016  18.919  0.00  0.00    +0.000 HD
ENDBRANCH   1   3
BRANCH   1  21
ATOM     13  C   UNL     1       0.601   3.124  20.549  0.00  0.00    +0.000 A 
ATOM     14  C   UNL     1       0.704   2.351  19.381  0.00  0.00    +0.000 A 
ATOM     15  C   UNL     1       1.534   2.751  18.330  0.00  0.00    +0.000 A 
ATOM     16  C   UNL     1       2.239   3.938  18.463  0.00  0.00    +0.000 A 
ATOM     17  C   UNL     1       2.128   4.709  19.628  0.00  0.00    +0.000 A 
ATOM     18  C   UNL     1       1.325   4.310  20.682  0.00  0.00    +0.000 A 
ATOM     19  C   UNL     1       2.990   5.928  19.536  0.00  0.00    +0.000 C 
ATOM     20  C   UNL     1       3.184   6.032  18.017  0.00  0.00    +0.000 C 
ATOM     21  C   UNL     1       3.162   4.591  17.464  0.00  0.00    +0.000 C 
ENDBRANCH   1  21
TORSDOF 2
ENDMDL
