MODEL 1
REMARK VINA RESULT:      -7.3      0.000      0.000
REMARK  Name = 
REMARK  11 active torsions:
REMARK  status: ('A' for Active; 'I' for Inactive)
REMARK    1  A    between atoms: C_1  and  O_2
REMARK    2  A    between atoms: O_2  and  C_3
REMARK    3  A    between atoms: C_6  and  C_7
REMARK    4  A    between atoms: C_11  and  C_12
REMARK    5  A    between atoms: C_14  and  O_15
REMARK    6  A    between atoms: O_15  and  C_16
REMARK    7  A    between atoms: C_17  and  O_18
REMARK    8  A    between atoms: O_18  and  C_19
REMARK    9  A    between atoms: C_20  and  O_21
REMARK   10  A    between atoms: O_21  and  C_22
REMARK   11  A    between atoms: C_25  and  N_26
REMARK                            x       y       z     vdW  Elec       q    Type
REMARK                         _______ _______ _______ _____ _____    ______ ____
ROOT
ATOM      1  C   UNL     1       3.375   3.728  20.066  0.00  0.00    +0.000 A 
ATOM      2  C   UNL     1       3.123   2.556  20.819  0.00  0.00    +0.000 A 
ATOM      3  N   UNL     1       2.133   2.715  21.696  0.00  0.00    +0.000 NA
ATOM      4  O   UNL     1       1.696   4.016  21.518  0.00  0.00    +0.000 OA
ATOM      5  C   UNL     1       2.422   4.621  20.531  0.00  0.00    +0.000 A 
ENDROOT
BRANCH   1   9
ATOM      6  C   UNL     1       6.342   4.494  17.064  0.00  0.00    +0.000 A 
ATOM      7  C   UNL     1       5.192   3.751  16.770  0.00  0.00    +0.000 A 
ATOM      8  C   UNL     1       4.209   3.544  17.735  0.00  0.00    +0.000 A 
ATOM      9  C   UNL     1       4.385   3.980  19.050  0.00  0.00    +0.000 A 
ATOM     10  C   UNL     1       5.558   4.672  19.373  0.00  0.00    +0.000 A 
ATOM     11  C   UNL     1       6.533   4.930  18.386  0.00  0.00    +0.000 A 
BRANCH  11  12
ATOM     12  N   UNL     1       7.733   5.691  18.794  0.00  0.00    +0.000 N 
ATOM     13  O   UNL     1       8.544   5.182  19.574  0.00  0.00    +0.000 OA
ATOM     14  O   UNL     1       7.860   6.832  18.307  0.00  0.00    +0.000 OA
ENDBRANCH  11  12
BRANCH   6  16
ATOM     15  C   UNL     1       6.794   4.709  14.749  0.00  0.00    +0.000 C 
ATOM     16  O   UNL     1       7.265   4.767  16.094  0.00  0.00    +0.000 OA
ENDBRANCH   6  16
ENDBRANCH   1   9
BRANCH   5  17
ATOM     17  C   UNL     1       2.031   5.992  20.218  0.00  0.00    +0.000 A 
ATOM     18  C   UNL     1       1.225   6.732  21.084  0.00  0.00    +0.000 A 
ATOM     19  C   UNL     1       0.932   8.073  20.812  0.00  0.00    +0.000 A 
ATOM     20  C   UNL     1       1.452   8.696  19.653  0.00  0.00    +0.000 A 
ATOM     21  C   UNL     1       2.253   7.954  18.764  0.00  0.00    +0.000 A 
ATOM     22  C   UNL     1       2.500   6.607  19.049  0.00  0.00    +0.000 A 
BRANCH  19  23
ATOM     23  O   UNL     1       0.143   8.850  21.628  0.00  0.00    +0.000 OA
ATOM     24  C   UNL     1       0.736   9.327  22.831  0.00  0.00    +0.000 C 
ENDBRANCH  19  23
BRANCH  20  25
ATOM     25  O   UNL     1       1.053  10.001  19.463  0.00  0.00    +0.000 OA
ATOM     26  C   UNL     1      -0.053  10.230  18.600  0.00  0.00    +0.000 C 
ENDBRANCH  20  25
BRANCH  21  27
ATOM     27  O   UNL     1       2.740   8.564  17.640  0.00  0.00    +0.000 OA
ATOM     28  C   UNL     1       3.843   7.967  16.969  0.00  0.00    +0.000 C 
ENDBRANCH  21  27
ENDBRANCH   5  17
TORSDOF 7
ENDMDL
MODEL 2
REMARK VINA RESULT:      -7.3      0.197      2.469
REMARK  Name = 
REMARK  11 active torsions:
REMARK  status: ('A' for Active; 'I' for Inactive)
REMARK    1  A    between atoms: C_1  and  O_2
REMARK    2  A    between atoms: O_2  and  C_3
REMARK    3  A    between atoms: C_6  and  C_7
REMARK    4  A    between atoms: C_11  and  C_12
REMARK    5  A    between atoms: C_14  and  O_15
REMARK    6  A    between atoms: O_15  and  C_16
REMARK    7  A    between atoms: C_17  and  O_18
REMARK    8  A    between atoms: O_18  and  C_19
REMARK    9  A    between atoms: C_20  and  O_21
REMARK   10  A    between atoms: O_21  and  C_22
REMARK   11  A    between atoms: C_25  and  N_26
REMARK                            x       y       z     vdW  Elec       q    Type
REMARK                         _______ _______ _______ _____ _____    ______ ____
ROOT
ATOM      1  C   UNL     1       3.354   3.803  20.056  0.00  0.00    +0.000 A 
ATOM      2  C   UNL     1       3.062   2.603  20.748  0.00  0.00    +0.000 A 
ATOM      3  N   UNL     1       2.076   2.749  21.631  0.00  0.00    +0.000 NA
ATOM      4  O   UNL     1       1.681   4.071  21.520  0.00  0.00    +0.000 OA
ATOM      5  C   UNL     1       2.429   4.701  20.565  0.00  0.00    +0.000 A 
ENDROOT
BRANCH   1   9
ATOM      6  C   UNL     1       6.350   4.624  17.098  0.00  0.00    +0.000 A 
ATOM      7  C   UNL     1       5.188   3.915  16.771  0.00  0.00    +0.000 A 
ATOM      8  C   UNL     1       4.196   3.691  17.723  0.00  0.00    +0.000 A 
ATOM      9  C   UNL     1       4.373   4.074  19.054  0.00  0.00    +0.000 A 
ATOM     10  C   UNL     1       5.558   4.730  19.409  0.00  0.00    +0.000 A 
ATOM     11  C   UNL     1       6.543   5.007  18.437  0.00  0.00    +0.000 A 
BRANCH  11  12
ATOM     12  N   UNL     1       7.755   5.729  18.878  0.00  0.00    +0.000 N 
ATOM     13  O   UNL     1       7.971   6.871  18.462  0.00  0.00    +0.000 OA
ATOM     14  O   UNL     1       8.505   5.124  19.671  0.00  0.00    +0.000 OA
ENDBRANCH  11  12
BRANCH   6  16
ATOM     15  C   UNL     1       6.850   4.798  14.789  0.00  0.00    +0.000 C 
ATOM     16  O   UNL     1       7.284   4.916  16.144  0.00  0.00    +0.000 OA
ENDBRANCH   6  16
ENDBRANCH   1   9
BRANCH   5  17
ATOM     17  C   UNL     1       2.082   6.098  20.321  0.00  0.00    +0.000 A 
ATOM     18  C   UNL     1       2.559   6.780  19.201  0.00  0.00    +0.000 A 
ATOM     19  C   UNL     1       2.147   8.091  18.935  0.00  0.00    +0.000 A 
ATOM     20  C   UNL     1       1.238   8.741  19.803  0.00  0.00    +0.000 A 
ATOM     21  C   UNL     1       0.763   8.069  20.945  0.00  0.00    +0.000 A 
ATOM     22  C   UNL     1       1.220   6.771  21.198  0.00  0.00    +0.000 A 
BRANCH  19  23
ATOM     23  O   UNL     1       2.584   8.811  17.849  0.00  0.00    +0.000 OA
ATOM     24  C   UNL     1       3.668   8.261  17.107  0.00  0.00    +0.000 C 
ENDBRANCH  19  23
BRANCH  20  25
ATOM     25  O   UNL     1       0.946  10.046  19.470  0.00  0.00    +0.000 OA
ATOM     26  C   UNL     1      -0.283  10.294  18.801  0.00  0.00    +0.000 C 
ENDBRANCH  20  25
BRANCH  21  27
ATOM     27  O   UNL     1      -0.106   8.714  21.783  0.00  0.00    +0.000 OA
ATOM     28  C   UNL     1       0.423   9.388  22.919  0.00  0.00    +0.000 C 
ENDBRANCH  21  27
ENDBRANCH   5  17
TORSDOF 7
ENDMDL
MODEL 3
REMARK VINA RESULT:      -7.1      1.634      3.095
REMARK  Name = 
REMARK  11 active torsions:
REMARK  status: ('A' for Active; 'I' for Inactive)
REMARK    1  A    between atoms: C_1  and  O_2
REMARK    2  A    between atoms: O_2  and  C_3
REMARK    3  A    between atoms: C_6  and  C_7
REMARK    4  A    between atoms: C_11  and  C_12
REMARK    5  A    between atoms: C_14  and  O_15
REMARK    6  A    between atoms: O_15  and  C_16
REMARK    7  A    between atoms: C_17  and  O_18
REMARK    8  A    between atoms: O_18  and  C_19
REMARK    9  A    between atoms: C_20  and  O_21
REMARK   10  A    between atoms: O_21  and  C_22
REMARK   11  A    between atoms: C_25  and  N_26
REMARK                            x       y       z     vdW  Elec       q    Type
REMARK                         _______ _______ _______ _____ _____    ______ ____
ROOT
ATOM      1  C   UNL     1       2.912   5.138  19.381  0.00  0.00    +0.000 A 
ATOM      2  C   UNL     1       2.471   3.807  19.574  0.00  0.00    +0.000 A 
ATOM      3  N   UNL     1       1.351   3.738  20.291  0.00  0.00    +0.000 NA
ATOM      4  O   UNL     1       1.018   5.052  20.571  0.00  0.00    +0.000 OA
ATOM      5  C   UNL     1       1.938   5.894  20.013  0.00  0.00    +0.000 A 
ENDROOT
BRANCH   1   9
ATOM      6  C   UNL     1       6.411   6.618  17.391  0.00  0.00    +0.000 A 
ATOM      7  C   UNL     1       5.141   7.123  17.088  0.00  0.00    +0.000 A 
ATOM      8  C   UNL     1       4.013   6.673  17.770  0.00  0.00    +0.000 A 
ATOM      9  C   UNL     1       4.097   5.634  18.700  0.00  0.00    +0.000 A 
ATOM     10  C   UNL     1       5.354   5.078  18.968  0.00  0.00    +0.000 A 
ATOM     11  C   UNL     1       6.507   5.567  18.319  0.00  0.00    +0.000 A 
BRANCH  11  12
ATOM     12  N   UNL     1       7.804   4.952  18.673  0.00  0.00    +0.000 N 
ATOM     13  O   UNL     1       8.355   4.187  17.877  0.00  0.00    +0.000 OA
ATOM     14  O   UNL     1       8.277   5.255  19.787  0.00  0.00    +0.000 OA
ENDBRANCH  11  12
BRANCH   6  16
ATOM     15  C   UNL     1       8.078   8.301  17.363  0.00  0.00    +0.000 C 
ATOM     16  O   UNL     1       7.527   7.120  16.781  0.00  0.00    +0.000 OA
ENDBRANCH   6  16
ENDBRANCH   1   9
BRANCH   5  17
ATOM     17  C   UNL     1       1.678   7.318  20.203  0.00  0.00    +0.000 A 
ATOM     18  C   UNL     1       1.586   8.191  19.118  0.00  0.00    +0.000 A 
ATOM     19  C   UNL     1       1.248   9.535  19.312  0.00  0.00    +0.000 A 
ATOM     20  C   UNL     1       0.995  10.025  20.615  0.00  0.00    +0.000 A 
ATOM     21  C   UNL     1       1.100   9.158  21.719  0.00  0.00    +0.000 A 
ATOM     22  C   UNL     1       1.471   7.828  21.492  0.00  0.00    +0.000 A 
BRANCH  19  23
ATOM     23  O   UNL     1       1.145  10.440  18.282  0.00  0.00    +0.000 OA
ATOM     24  C   UNL     1       2.349  11.065  17.852  0.00  0.00    +0.000 C 
ENDBRANCH  19  23
BRANCH  20  25
ATOM     25  O   UNL     1       0.725  11.375  20.687  0.00  0.00    +0.000 OA
ATOM     26  C   UNL     1      -0.632  11.781  20.564  0.00  0.00    +0.000 C 
ENDBRANCH  20  25
BRANCH  21  27
ATOM     27  O   UNL     1       0.865   9.648  22.975  0.00  0.00    +0.000 OA
ATOM     28  C   UNL     1      -0.472   9.646  23.462  0.00  0.00    +0.000 C 
ENDBRANCH  21  27
ENDBRANCH   5  17
TORSDOF 7
ENDMDL
MODEL 4
REMARK VINA RESULT:      -7.0      1.077      2.575
REMARK  Name = 
REMARK  11 active torsions:
REMARK  status: ('A' for Active; 'I' for Inactive)
REMARK    1  A    between atoms: C_1  and  O_2
REMARK    2  A    between atoms: O_2  and  C_3
REMARK    3  A    between atoms: C_6  and  C_7
REMARK    4  A    between atoms: C_11  and  C_12
REMARK    5  A    between atoms: C_14  and  O_15
REMARK    6  A    between atoms: O_15  and  C_16
REMARK    7  A    between atoms: C_17  and  O_18
REMARK    8  A    between atoms: O_18  and  C_19
REMARK    9  A    between atoms: C_20  and  O_21
REMARK   10  A    between atoms: O_21  and  C_22
REMARK   11  A    between atoms: C_25  and  N_26
REMARK                            x       y       z     vdW  Elec       q    Type
REMARK                         _______ _______ _______ _____ _____    ______ ____
ROOT
ATOM      1  C   UNL     1       3.502   4.397  19.549  0.00  0.00    +0.000 A 
ATOM      2  C   UNL     1       3.408   3.171  20.249  0.00  0.00    +0.000 A 
ATOM      3  N   UNL     1       2.539   3.223  21.257  0.00  0.00    +0.000 NA
ATOM      4  O   UNL     1       2.023   4.506  21.226  0.00  0.00    +0.000 OA
ATOM      5  C   UNL     1       2.581   5.207  20.193  0.00  0.00    +0.000 A 
ENDROOT
BRANCH   1   9
ATOM      6  C   UNL     1       5.995   5.499  16.237  0.00  0.00    +0.000 A 
ATOM      7  C   UNL     1       4.938   4.596  16.076  0.00  0.00    +0.000 A 
ATOM      8  C   UNL     1       4.102   4.276  17.143  0.00  0.00    +0.000 A 
ATOM      9  C   UNL     1       4.352   4.764  18.427  0.00  0.00    +0.000 A 
ATOM     10  C   UNL     1       5.443   5.621  18.616  0.00  0.00    +0.000 A 
ATOM     11  C   UNL     1       6.262   5.989  17.527  0.00  0.00    +0.000 A 
BRANCH  11  12
ATOM     12  N   UNL     1       7.378   6.921  17.796  0.00  0.00    +0.000 N 
ATOM     13  O   UNL     1       7.513   7.930  17.097  0.00  0.00    +0.000 OA
ATOM     14  O   UNL     1       8.134   6.624  18.743  0.00  0.00    +0.000 OA
ENDBRANCH  11  12
BRANCH   6  16
ATOM     15  C   UNL     1       6.981   4.878  14.174  0.00  0.00    +0.000 C 
ATOM     16  O   UNL     1       6.763   5.876  15.171  0.00  0.00    +0.000 OA
ENDBRANCH   6  16
ENDBRANCH   1   9
BRANCH   5  17
ATOM     17  C   UNL     1       2.088   6.572  20.026  0.00  0.00    +0.000 A 
ATOM     18  C   UNL     1       2.343   7.298  18.862  0.00  0.00    +0.000 A 
ATOM     19  C   UNL     1       1.789   8.570  18.681  0.00  0.00    +0.000 A 
ATOM     20  C   UNL     1       0.960   9.135  19.679  0.00  0.00    +0.000 A 
ATOM     21  C   UNL     1       0.709   8.419  20.864  0.00  0.00    +0.000 A 
ATOM     22  C   UNL     1       1.305   7.163  21.027  0.00  0.00    +0.000 A 
BRANCH  19  23
ATOM     23  O   UNL     1       2.007   9.332  17.557  0.00  0.00    +0.000 OA
ATOM     24  C   UNL     1       2.710  10.557  17.736  0.00  0.00    +0.000 C 
ENDBRANCH  19  23
BRANCH  20  25
ATOM     25  O   UNL     1       0.517  10.413  19.413  0.00  0.00    +0.000 OA
ATOM     26  C   UNL     1      -0.845  10.571  19.039  0.00  0.00    +0.000 C 
ENDBRANCH  20  25
BRANCH  21  27
ATOM     27  O   UNL     1      -0.083   8.982  21.827  0.00  0.00    +0.000 OA
ATOM     28  C   UNL     1       0.537   9.494  23.000  0.00  0.00    +0.000 C 
ENDBRANCH  21  27
ENDBRANCH   5  17
TORSDOF 7
ENDMDL
MODEL 5
REMARK VINA RESULT:      -6.9      2.069      6.606
REMARK  Name = 
REMARK  11 active torsions:
REMARK  status: ('A' for Active; 'I' for Inactive)
REMARK    1  A    between atoms: C_1  and  O_2
REMARK    2  A    between atoms: O_2  and  C_3
REMARK    3  A    between atoms: C_6  and  C_7
REMARK    4  A    between atoms: C_11  and  C_12
REMARK    5  A    between atoms: C_14  and  O_15
REMARK    6  A    between atoms: O_15  and  C_16
REMARK    7  A    between atoms: C_17  and  O_18
REMARK    8  A    between atoms: O_18  and  C_19
REMARK    9  A    between atoms: C_20  and  O_21
REMARK   10  A    between atoms: O_21  and  C_22
REMARK   11  A    between atoms: C_25  and  N_26
REMARK                            x       y       z     vdW  Elec       q    Type
REMARK                         _______ _______ _______ _____ _____    ______ ____
ROOT
ATOM      1  C   UNL     1       2.890   4.612  18.913  0.00  0.00    +0.000 A 
ATOM      2  C   UNL     1       2.340   3.533  19.645  0.00  0.00    +0.000 A 
ATOM      3  N   UNL     1       2.908   2.367  19.343  0.00  0.00    +0.000 NA
ATOM      4  O   UNL     1       3.875   2.668  18.400  0.00  0.00    +0.000 OA
ATOM      5  C   UNL     1       3.882   4.013  18.153  0.00  0.00    +0.000 A 
ENDROOT
BRANCH   1   9
ATOM      6  C   UNL     1       1.794   8.759  18.922  0.00  0.00    +0.000 A 
ATOM      7  C   UNL     1       2.403   8.176  17.805  0.00  0.00    +0.000 A 
ATOM      8  C   UNL     1       2.715   6.819  17.788  0.00  0.00    +0.000 A 
ATOM      9  C   UNL     1       2.526   6.020  18.918  0.00  0.00    +0.000 A 
ATOM     10  C   UNL     1       1.973   6.604  20.064  0.00  0.00    +0.000 A 
ATOM     11  C   UNL     1       1.606   7.967  20.068  0.00  0.00    +0.000 A 
BRANCH  11  12
ATOM     12  N   UNL     1       1.001   8.509  21.304  0.00  0.00    +0.000 N 
ATOM     13  O   UNL     1      -0.226   8.504  21.436  0.00  0.00    +0.000 OA
ATOM     14  O   UNL     1       1.791   8.945  22.165  0.00  0.00    +0.000 OA
ENDBRANCH  11  12
BRANCH   6  16
ATOM     15  C   UNL     1       2.209  10.944  18.106  0.00  0.00    +0.000 C 
ATOM     16  O   UNL     1       1.412  10.071  18.906  0.00  0.00    +0.000 OA
ENDBRANCH   6  16
ENDBRANCH   1   9
BRANCH   5  17
ATOM     17  C   UNL     1       4.889   4.468  17.199  0.00  0.00    +0.000 A 
ATOM     18  C   UNL     1       5.787   5.486  17.523  0.00  0.00    +0.000 A 
ATOM     19  C   UNL     1       6.803   5.849  16.631  0.00  0.00    +0.000 A 
ATOM     20  C   UNL     1       6.931   5.186  15.388  0.00  0.00    +0.000 A 
ATOM     21  C   UNL     1       6.021   4.169  15.044  0.00  0.00    +0.000 A 
ATOM     22  C   UNL     1       4.998   3.852  15.945  0.00  0.00    +0.000 A 
BRANCH  19  23
ATOM     23  O   UNL     1       7.714   6.845  16.896  0.00  0.00    +0.000 OA
ATOM     24  C   UNL     1       7.968   7.136  18.266  0.00  0.00    +0.000 C 
ENDBRANCH  19  23
BRANCH  20  25
ATOM     25  O   UNL     1       7.933   5.665  14.573  0.00  0.00    +0.000 OA
ATOM     26  C   UNL     1       7.824   5.410  13.179  0.00  0.00    +0.000 C 
ENDBRANCH  20  25
BRANCH  21  27
ATOM     27  O   UNL     1       6.149   3.543  13.834  0.00  0.00    +0.000 OA
ATOM     28  C   UNL     1       5.054   3.596  12.926  0.00  0.00    +0.000 C 
ENDBRANCH  21  27
ENDBRANCH   5  17
TORSDOF 7
ENDMDL
MODEL 6
REMARK VINA RESULT:      -6.9      1.618      2.110
REMARK  Name = 
REMARK  11 active torsions:
REMARK  status: ('A' for Active; 'I' for Inactive)
REMARK    1  A    between atoms: C_1  and  O_2
REMARK    2  A    between atoms: O_2  and  C_3
REMARK    3  A    between atoms: C_6  and  C_7
REMARK    4  A    between atoms: C_11  and  C_12
REMARK    5  A    between atoms: C_14  and  O_15
REMARK    6  A    between atoms: O_15  and  C_16
REMARK    7  A    between atoms: C_17  and  O_18
REMARK    8  A    between atoms: O_18  and  C_19
REMARK    9  A    between atoms: C_20  and  O_21
REMARK   10  A    between atoms: O_21  and  C_22
REMARK   11  A    between atoms: C_25  and  N_26
REMARK                            x       y       z     vdW  Elec       q    Type
REMARK                         _______ _______ _______ _____ _____    ______ ____
ROOT
ATOM      1  C   UNL     1       2.867   5.085  19.404  0.00  0.00    +0.000 A 
ATOM      2  C   UNL     1       2.472   3.740  19.595  0.00  0.00    +0.000 A 
ATOM      3  N   UNL     1       1.347   3.633  20.301  0.00  0.00    +0.000 NA
ATOM      4  O   UNL     1       0.965   4.934  20.576  0.00  0.00    +0.000 OA
ATOM      5  C   UNL     1       1.861   5.808  20.025  0.00  0.00    +0.000 A 
ENDROOT
BRANCH   1   9
ATOM      6  C   UNL     1       6.331   6.687  17.446  0.00  0.00    +0.000 A 
ATOM      7  C   UNL     1       5.044   7.116  17.102  0.00  0.00    +0.000 A 
ATOM      8  C   UNL     1       3.925   6.628  17.772  0.00  0.00    +0.000 A 
ATOM      9  C   UNL     1       4.041   5.623  18.734  0.00  0.00    +0.000 A 
ATOM     10  C   UNL     1       5.318   5.141  19.046  0.00  0.00    +0.000 A 
ATOM     11  C   UNL     1       6.459   5.670  18.408  0.00  0.00    +0.000 A 
BRANCH  11  12
ATOM     12  N   UNL     1       7.777   5.133  18.809  0.00  0.00    +0.000 N 
ATOM     13  O   UNL     1       8.276   5.478  19.883  0.00  0.00    +0.000 OA
ATOM     14  O   UNL     1       8.317   4.336  18.016  0.00  0.00    +0.000 OA
ENDBRANCH  11  12
BRANCH   6  16
ATOM     15  C   UNL     1       7.999   8.369  17.492  0.00  0.00    +0.000 C 
ATOM     16  O   UNL     1       7.434   7.228  16.847  0.00  0.00    +0.000 OA
ENDBRANCH   6  16
ENDBRANCH   1   9
BRANCH   5  17
ATOM     17  C   UNL     1       1.548   7.222  20.211  0.00  0.00    +0.000 A 
ATOM     18  C   UNL     1       1.335   7.757  21.482  0.00  0.00    +0.000 A 
ATOM     19  C   UNL     1       1.124   9.130  21.651  0.00  0.00    +0.000 A 
ATOM     20  C   UNL     1       1.127   9.994  20.531  0.00  0.00    +0.000 A 
ATOM     21  C   UNL     1       1.325   9.463  19.242  0.00  0.00    +0.000 A 
ATOM     22  C   UNL     1       1.500   8.082  19.106  0.00  0.00    +0.000 A 
BRANCH  19  23
ATOM     23  O   UNL     1       0.908   9.712  22.878  0.00  0.00    +0.000 OA
ATOM     24  C   UNL     1      -0.415   9.637  23.400  0.00  0.00    +0.000 C 
ENDBRANCH  19  23
BRANCH  20  25
ATOM     25  O   UNL     1       0.856  11.315  20.814  0.00  0.00    +0.000 OA
ATOM     26  C   UNL     1      -0.419  11.819  20.439  0.00  0.00    +0.000 C 
ENDBRANCH  20  25
BRANCH  21  27
ATOM     27  O   UNL     1       1.312  10.308  18.166  0.00  0.00    +0.000 OA
ATOM     28  C   UNL     1       2.513  10.992  17.828  0.00  0.00    +0.000 C 
ENDBRANCH  21  27
ENDBRANCH   5  17
TORSDOF 7
ENDMDL
MODEL 7
REMARK VINA RESULT:      -6.9      1.143      1.190
REMARK  Name = 
REMARK  11 active torsions:
REMARK  status: ('A' for Active; 'I' for Inactive)
REMARK    1  A    between atoms: C_1  and  O_2
REMARK    2  A    between atoms: O_2  and  C_3
REMARK    3  A    between atoms: C_6  and  C_7
REMARK    4  A    between atoms: C_11  and  C_12
REMARK    5  A    between atoms: C_14  and  O_15
REMARK    6  A    between atoms: O_15  and  C_16
REMARK    7  A    between atoms: C_17  and  O_18
REMARK    8  A    between atoms: O_18  and  C_19
REMARK    9  A    between atoms: C_20  and  O_21
REMARK   10  A    between atoms: O_21  and  C_22
REMARK   11  A    between atoms: C_25  and  N_26
REMARK                            x       y       z     vdW  Elec       q    Type
REMARK                         _______ _______ _______ _____ _____    ______ ____
ROOT
ATOM      1  C   UNL     1       3.370   4.404  19.548  0.00  0.00    +0.000 A 
ATOM      2  C   UNL     1       3.243   3.161  20.213  0.00  0.00    +0.000 A 
ATOM      3  N   UNL     1       2.382   3.211  21.229  0.00  0.00    +0.000 NA
ATOM      4  O   UNL     1       1.904   4.509  21.238  0.00  0.00    +0.000 OA
ATOM      5  C   UNL     1       2.477   5.223  20.222  0.00  0.00    +0.000 A 
ENDROOT
BRANCH   1   9
ATOM      6  C   UNL     1       5.875   5.526  16.253  0.00  0.00    +0.000 A 
ATOM      7  C   UNL     1       4.799   4.650  16.075  0.00  0.00    +0.000 A 
ATOM      8  C   UNL     1       3.959   4.325  17.138  0.00  0.00    +0.000 A 
ATOM      9  C   UNL     1       4.224   4.778  18.432  0.00  0.00    +0.000 A 
ATOM     10  C   UNL     1       5.334   5.607  18.636  0.00  0.00    +0.000 A 
ATOM     11  C   UNL     1       6.157   5.982  17.552  0.00  0.00    +0.000 A 
BRANCH  11  12
ATOM     12  N   UNL     1       7.293   6.883  17.838  0.00  0.00    +0.000 N 
ATOM     13  O   UNL     1       8.108   6.580  18.715  0.00  0.00    +0.000 OA
ATOM     14  O   UNL     1       7.366   7.921  17.151  0.00  0.00    +0.000 OA
ENDBRANCH  11  12
BRANCH   6  16
ATOM     15  C   UNL     1       7.097   4.862  14.335  0.00  0.00    +0.000 C 
ATOM     16  O   UNL     1       6.648   5.911  15.193  0.00  0.00    +0.000 OA
ENDBRANCH   6  16
ENDBRANCH   1   9
BRANCH   5  17
ATOM     17  C   UNL     1       2.024   6.605  20.098  0.00  0.00    +0.000 A 
ATOM     18  C   UNL     1       1.524   7.307  21.195  0.00  0.00    +0.000 A 
ATOM     19  C   UNL     1       1.178   8.658  21.079  0.00  0.00    +0.000 A 
ATOM     20  C   UNL     1       1.333   9.330  19.844  0.00  0.00    +0.000 A 
ATOM     21  C   UNL     1       1.822   8.628  18.726  0.00  0.00    +0.000 A 
ATOM     22  C   UNL     1       2.128   7.270  18.868  0.00  0.00    +0.000 A 
BRANCH  19  23
ATOM     23  O   UNL     1       0.678   9.398  22.126  0.00  0.00    +0.000 OA
ATOM     24  C   UNL     1      -0.614   9.043  22.605  0.00  0.00    +0.000 C 
ENDBRANCH  19  23
BRANCH  20  25
ATOM     25  O   UNL     1       0.909  10.641  19.837  0.00  0.00    +0.000 OA
ATOM     26  C   UNL     1      -0.415  10.901  19.390  0.00  0.00    +0.000 C 
ENDBRANCH  20  25
BRANCH  21  27
ATOM     27  O   UNL     1       1.955   9.286  17.534  0.00  0.00    +0.000 OA
ATOM     28  C   UNL     1       2.652  10.527  17.520  0.00  0.00    +0.000 C 
ENDBRANCH  21  27
ENDBRANCH   5  17
TORSDOF 7
ENDMDL
MODEL 8
REMARK VINA RESULT:      -6.8      1.323      2.662
REMARK  Name = 
REMARK  11 active torsions:
REMARK  status: ('A' for Active; 'I' for Inactive)
REMARK    1  A    between atoms: C_1  and  O_2
REMARK    2  A    between atoms: O_2  and  C_3
REMARK    3  A    between atoms: C_6  and  C_7
REMARK    4  A    between atoms: C_11  and  C_12
REMARK    5  A    between atoms: C_14  and  O_15
REMARK    6  A    between atoms: O_15  and  C_16
REMARK    7  A    between atoms: C_17  and  O_18
REMARK    8  A    between atoms: O_18  and  C_19
REMARK    9  A    between atoms: C_20  and  O_21
REMARK   10  A    between atoms: O_21  and  C_22
REMARK   11  A    between atoms: C_25  and  N_26
REMARK                            x       y       z     vdW  Elec       q    Type
REMARK                         _______ _______ _______ _____ _____    ______ ____
ROOT
ATOM      1  C   UNL     1       2.921   4.614  19.560  0.00  0.00    +0.000 A 
ATOM      2  C   UNL     1       2.510   3.345  20.033  0.00  0.00    +0.000 A 
ATOM      3  N   UNL     1       1.515   3.426  20.916  0.00  0.00    +0.000 NA
ATOM      4  O   UNL     1       1.237   4.777  21.027  0.00  0.00    +0.000 OA
ATOM      5  C   UNL     1       2.062   5.491  20.203  0.00  0.00    +0.000 A 
ENDROOT
BRANCH   1   9
ATOM      6  C   UNL     1       6.065   5.654  16.835  0.00  0.00    +0.000 A 
ATOM      7  C   UNL     1       4.721   5.814  16.481  0.00  0.00    +0.000 A 
ATOM      8  C   UNL     1       3.704   5.519  17.385  0.00  0.00    +0.000 A 
ATOM      9  C   UNL     1       3.986   4.959  18.632  0.00  0.00    +0.000 A 
ATOM     10  C   UNL     1       5.325   4.736  18.977  0.00  0.00    +0.000 A 
ATOM     11  C   UNL     1       6.362   5.082  18.084  0.00  0.00    +0.000 A 
BRANCH  11  12
ATOM     12  N   UNL     1       7.752   4.845  18.527  0.00  0.00    +0.000 N 
ATOM     13  O   UNL     1       8.487   4.106  17.866  0.00  0.00    +0.000 OA
ATOM     14  O   UNL     1       8.110   5.428  19.570  0.00  0.00    +0.000 OA
ENDBRANCH  11  12
BRANCH   6  16
ATOM     15  C   UNL     1       7.242   5.191  14.832  0.00  0.00    +0.000 C 
ATOM     16  O   UNL     1       7.064   6.022  15.978  0.00  0.00    +0.000 OA
ENDBRANCH   6  16
ENDBRANCH   1   9
BRANCH   5  17
ATOM     17  C   UNL     1       1.841   6.934  20.197  0.00  0.00    +0.000 A 
ATOM     18  C   UNL     1       1.844   7.664  19.007  0.00  0.00    +0.000 A 
ATOM     19  C   UNL     1       1.543   9.031  19.010  0.00  0.00    +0.000 A 
ATOM     20  C   UNL     1       1.232   9.689  20.222  0.00  0.00    +0.000 A 
ATOM     21  C   UNL     1       1.242   8.967  21.431  0.00  0.00    +0.000 A 
ATOM     22  C   UNL     1       1.578   7.609  21.396  0.00  0.00    +0.000 A 
BRANCH  19  23
ATOM     23  O   UNL     1       1.533   9.800  17.870  0.00  0.00    +0.000 OA
ATOM     24  C   UNL     1       2.632  10.683  17.680  0.00  0.00    +0.000 C 
ENDBRANCH  19  23
BRANCH  20  25
ATOM     25  O   UNL     1       1.006  11.044  20.108  0.00  0.00    +0.000 OA
ATOM     26  C   UNL     1      -0.339  11.475  19.951  0.00  0.00    +0.000 C 
ENDBRANCH  20  25
BRANCH  21  27
ATOM     27  O   UNL     1       0.951   9.619  22.598  0.00  0.00    +0.000 OA
ATOM     28  C   UNL     1      -0.388   9.584  23.077  0.00  0.00    +0.000 C 
ENDBRANCH  21  27
ENDBRANCH   5  17
TORSDOF 7
ENDMDL
MODEL 9
REMARK VINA RESULT:      -6.8      1.797      6.603
REMARK  Name = 
REMARK  11 active torsions:
REMARK  status: ('A' for Active; 'I' for Inactive)
REMARK    1  A    between atoms: C_1  and  O_2
REMARK    2  A    between atoms: O_2  and  C_3
REMARK    3  A    between atoms: C_6  and  C_7
REMARK    4  A    between atoms: C_11  and  C_12
REMARK    5  A    between atoms: C_14  and  O_15
REMARK    6  A    between atoms: O_15  and  C_16
REMARK    7  A    between atoms: C_17  and  O_18
REMARK    8  A    between atoms: O_18  and  C_19
REMARK    9  A    between atoms: C_20  and  O_21
REMARK   10  A    between atoms: O_21  and  C_22
REMARK   11  A    between atoms: C_25  and  N_26
REMARK                            x       y       z     vdW  Elec       q    Type
REMARK                         _______ _______ _______ _____ _____    ______ ____
ROOT
ATOM      1  C   UNL     1       2.267   4.471  19.773  0.00  0.00    +0.000 A 
ATOM      2  C   UNL     1       1.462   3.558  20.494  0.00  0.00    +0.000 A 
ATOM      3  N   UNL     1       1.902   2.304  20.400  0.00  0.00    +0.000 NA
ATOM      4  O   UNL     1       3.038   2.375  19.613  0.00  0.00    +0.000 OA
ATOM      5  C   UNL     1       3.272   3.673  19.251  0.00  0.00    +0.000 A 
ENDROOT
BRANCH   1   9
ATOM      6  C   UNL     1       1.777   8.697  19.224  0.00  0.00    +0.000 A 
ATOM      7  C   UNL     1       2.308   7.894  18.208  0.00  0.00    +0.000 A 
ATOM      8  C   UNL     1       2.423   6.516  18.372  0.00  0.00    +0.000 A 
ATOM      9  C   UNL     1       2.109   5.906  19.589  0.00  0.00    +0.000 A 
ATOM     10  C   UNL     1       1.633   6.705  20.635  0.00  0.00    +0.000 A 
ATOM     11  C   UNL     1       1.466   8.095  20.455  0.00  0.00    +0.000 A 
BRANCH  11  12
ATOM     12  N   UNL     1       0.931   8.872  21.593  0.00  0.00    +0.000 N 
ATOM     13  O   UNL     1      -0.290   8.957  21.756  0.00  0.00    +0.000 OA
ATOM     14  O   UNL     1       1.771   9.406  22.345  0.00  0.00    +0.000 OA
ENDBRANCH  11  12
BRANCH   6  16
ATOM     15  C   UNL     1       0.320  10.417  18.494  0.00  0.00    +0.000 C 
ATOM     16  O   UNL     1       1.587  10.037  19.030  0.00  0.00    +0.000 OA
ENDBRANCH   6  16
ENDBRANCH   1   9
BRANCH   5  17
ATOM     17  C   UNL     1       4.472   3.890  18.447  0.00  0.00    +0.000 A 
ATOM     18  C   UNL     1       4.542   3.467  17.119  0.00  0.00    +0.000 A 
ATOM     19  C   UNL     1       5.664   3.762  16.336  0.00  0.00    +0.000 A 
ATOM     20  C   UNL     1       6.743   4.493  16.885  0.00  0.00    +0.000 A 
ATOM     21  C   UNL     1       6.691   4.910  18.229  0.00  0.00    +0.000 A 
ATOM     22  C   UNL     1       5.569   4.572  18.992  0.00  0.00    +0.000 A 
BRANCH  19  23
ATOM     23  O   UNL     1       5.788   3.370  15.024  0.00  0.00    +0.000 OA
ATOM     24  C   UNL     1       5.075   4.133  14.056  0.00  0.00    +0.000 C 
ENDBRANCH  19  23
BRANCH  20  25
ATOM     25  O   UNL     1       7.814   4.676  16.037  0.00  0.00    +0.000 OA
ATOM     26  C   UNL     1       7.715   5.709  15.067  0.00  0.00    +0.000 C 
ENDBRANCH  20  25
BRANCH  21  27
ATOM     27  O   UNL     1       7.747   5.606  18.751  0.00  0.00    +0.000 OA
ATOM     28  C   UNL     1       7.871   6.987  18.433  0.00  0.00    +0.000 C 
ENDBRANCH  21  27
ENDBRANCH   5  17
TORSDOF 7
ENDMDL
