MODEL 1
REMARK VINA RESULT:      -9.4      0.000      0.000
REMARK  Name = 
REMARK  4 active torsions:
REMARK  status: ('A' for Active; 'I' for Inactive)
REMARK    1  A    between atoms: C_4  and  C_5
REMARK    2  A    between atoms: C_20  and  O_21
REMARK    3  A    between atoms: C_22  and  C_23
REMARK    4  A    between atoms: C_23  and  N_24
REMARK                            x       y       z     vdW  Elec       q    Type
REMARK                         _______ _______ _______ _____ _____    ______ ____
ROOT
ATOM      1  O   UNL     1       0.685   9.631  23.687  0.00  0.00    +0.000 OA
ATOM      2  C   UNL     1       0.272   9.909  22.580  0.00  0.00    +0.000 C 
ATOM      3  C   UNL     1       0.565   9.273  21.267  0.00  0.00    +0.000 C 
ATOM      4  C   UNL     1       1.337   8.188  21.249  0.00  0.00    +0.000 C 
ATOM      5  O   UNL     1      -0.034   9.969  20.232  0.00  0.00    +0.000 OA
ATOM      6  C   UNL     1      -0.787  10.955  20.841  0.00  0.00    +0.000 A 
ATOM      7  C   UNL     1      -0.659  10.950  22.224  0.00  0.00    +0.000 A 
ATOM      8  C   UNL     1      -1.382  11.771  23.076  0.00  0.00    +0.000 A 
ATOM      9  C   UNL     1      -2.327  12.607  22.492  0.00  0.00    +0.000 A 
ATOM     10  C   UNL     1      -2.460  12.641  21.090  0.00  0.00    +0.000 A 
ATOM     11  C   UNL     1      -1.646  11.873  20.226  0.00  0.00    +0.000 A 
ENDROOT
BRANCH   4  12
ATOM     12  C   UNL     1       1.803   7.339  20.201  0.00  0.00    +0.000 A 
ATOM     13  C   UNL     1       2.208   7.930  19.026  0.00  0.00    +0.000 A 
ATOM     14  N   UNL     1       2.979   7.004  18.390  0.00  0.00    +0.000 N 
ATOM     15  C   UNL     1       2.573   5.767  18.793  0.00  0.00    +0.000 A 
ATOM     16  N   UNL     1       2.779   4.634  18.100  0.00  0.00    +0.000 NA
ATOM     17  C   UNL     1       2.375   3.548  18.784  0.00  0.00    +0.000 A 
ATOM     18 CL   UNL     1       2.267   2.125  17.824  0.00  0.00    +0.000 Cl
ATOM     19  C   UNL     1       2.009   3.529  20.122  0.00  0.00    +0.000 A 
ATOM     20  C   UNL     1       1.869   4.745  20.812  0.00  0.00    +0.000 A 
ATOM     21  C   UNL     1       2.026   5.928  20.068  0.00  0.00    +0.000 A 
ATOM     22  H   UNL     1       3.788   7.188  17.816  0.00  0.00    +0.000 HD
ENDBRANCH   4  12
BRANCH  10  23
ATOM     23  O   UNL     1      -3.448  13.426  20.549  0.00  0.00    +0.000 OA
ATOM     24  H   UNL     1      -3.085  13.967  19.833  0.00  0.00    +0.000 HD
ENDBRANCH  10  23
BRANCH  11  25
ATOM     25  C   UNL     1      -1.760  11.995  18.742  0.00  0.00    +0.000 C 
BRANCH  25  26
ATOM     26  N   UNL     1      -2.615  11.027  18.053  0.00  0.00    +0.000 NA
ATOM     27  C   UNL     1      -4.065  11.181  18.043  0.00  0.00    +0.000 C 
ATOM     28  C   UNL     1      -4.677  11.505  16.659  0.00  0.00    +0.000 C 
ATOM     29  N   UNL     1      -4.167  10.681  15.554  0.00  0.00    +0.000 NA
ATOM     30  C   UNL     1      -2.699  10.638  15.566  0.00  0.00    +0.000 C 
ATOM     31  C   UNL     1      -2.094  10.259  16.932  0.00  0.00    +0.000 C 
ATOM     32  H   UNL     1      -4.485  11.069  14.666  0.00  0.00    +0.000 HD
ENDBRANCH  25  26
ENDBRANCH  11  25
TORSDOF 4
ENDMDL
MODEL 2
REMARK VINA RESULT:      -8.8      1.243      1.842
REMARK  Name = 
REMARK  4 active torsions:
REMARK  status: ('A' for Active; 'I' for Inactive)
REMARK    1  A    between atoms: C_4  and  C_5
REMARK    2  A    between atoms: C_20  and  O_21
REMARK    3  A    between atoms: C_22  and  C_23
REMARK    4  A    between atoms: C_23  and  N_24
REMARK                            x       y       z     vdW  Elec       q    Type
REMARK                         _______ _______ _______ _____ _____    ______ ____
ROOT
ATOM      1  O   UNL     1       0.866   9.562  23.553  0.00  0.00    +0.000 OA
ATOM      2  C   UNL     1       0.496   9.725  22.408  0.00  0.00    +0.000 C 
ATOM      3  C   UNL     1       0.763   8.904  21.196  0.00  0.00    +0.000 C 
ATOM      4  C   UNL     1       1.448   7.771  21.338  0.00  0.00    +0.000 C 
ATOM      5  O   UNL     1       0.239   9.503  20.064  0.00  0.00    +0.000 OA
ATOM      6  C   UNL     1      -0.446  10.614  20.521  0.00  0.00    +0.000 A 
ATOM      7  C   UNL     1      -0.344  10.778  21.897  0.00  0.00    +0.000 A 
ATOM      8  C   UNL     1      -1.015  11.754  22.616  0.00  0.00    +0.000 A 
ATOM      9  C   UNL     1      -1.881  12.576  21.904  0.00  0.00    +0.000 A 
ATOM     10  C   UNL     1      -1.987  12.438  20.506  0.00  0.00    +0.000 A 
ATOM     11  C   UNL     1      -1.219  11.506  19.770  0.00  0.00    +0.000 A 
ENDROOT
BRANCH   4  12
ATOM     12  C   UNL     1       1.865   6.761  20.420  0.00  0.00    +0.000 A 
ATOM     13  C   UNL     1       1.525   5.457  20.702  0.00  0.00    +0.000 A 
ATOM     14  N   UNL     1       1.642   4.780  19.525  0.00  0.00    +0.000 N 
ATOM     15  C   UNL     1       2.564   5.424  18.756  0.00  0.00    +0.000 A 
ATOM     16  N   UNL     1       3.249   4.854  17.750  0.00  0.00    +0.000 NA
ATOM     17  C   UNL     1       4.006   5.749  17.089  0.00  0.00    +0.000 A 
ATOM     18 CL   UNL     1       5.173   5.036  16.047  0.00  0.00    +0.000 Cl
ATOM     19  C   UNL     1       3.939   7.127  17.238  0.00  0.00    +0.000 A 
ATOM     20  C   UNL     1       3.156   7.668  18.271  0.00  0.00    +0.000 A 
ATOM     21  C   UNL     1       2.548   6.762  19.159  0.00  0.00    +0.000 A 
ATOM     22  H   UNL     1       1.067   4.011  19.215  0.00  0.00    +0.000 HD
ENDBRANCH   4  12
BRANCH  10  23
ATOM     23  O   UNL     1      -2.901  13.219  19.842  0.00  0.00    +0.000 OA
ATOM     24  H   UNL     1      -2.683  13.252  18.899  0.00  0.00    +0.000 HD
ENDBRANCH  10  23
BRANCH  11  25
ATOM     25  C   UNL     1      -1.297  11.444  18.280  0.00  0.00    +0.000 C 
BRANCH  25  26
ATOM     26  N   UNL     1      -2.353  10.613  17.698  0.00  0.00    +0.000 NA
ATOM     27  C   UNL     1      -3.759  10.927  17.917  0.00  0.00    +0.000 C 
ATOM     28  C   UNL     1      -4.529  11.389  16.655  0.00  0.00    +0.000 C 
ATOM     29  N   UNL     1      -4.290  10.572  15.457  0.00  0.00    +0.000 NA
ATOM     30  C   UNL     1      -2.851  10.367  15.242  0.00  0.00    +0.000 C 
ATOM     31  C   UNL     1      -2.099   9.852  16.484  0.00  0.00    +0.000 C 
ATOM     32  H   UNL     1      -4.689  11.039  14.643  0.00  0.00    +0.000 HD
ENDBRANCH  25  26
ENDBRANCH  11  25
TORSDOF 4
ENDMDL
MODEL 3
REMARK VINA RESULT:      -8.4      1.998      2.890
REMARK  Name = 
REMARK  4 active torsions:
REMARK  status: ('A' for Active; 'I' for Inactive)
REMARK    1  A    between atoms: C_4  and  C_5
REMARK    2  A    between atoms: C_20  and  O_21
REMARK    3  A    between atoms: C_22  and  C_23
REMARK    4  A    between atoms: C_23  and  N_24
REMARK                            x       y       z     vdW  Elec       q    Type
REMARK                         _______ _______ _______ _____ _____    ______ ____
ROOT
ATOM      1  O   UNL     1       0.326   9.462  23.778  0.00  0.00    +0.000 OA
ATOM      2  C   UNL     1       0.123   9.872  22.654  0.00  0.00    +0.000 C 
ATOM      3  C   UNL     1       0.552   9.311  21.344  0.00  0.00    +0.000 C 
ATOM      4  C   UNL     1       1.202   8.149  21.338  0.00  0.00    +0.000 C 
ATOM      5  O   UNL     1       0.198  10.150  20.303  0.00  0.00    +0.000 OA
ATOM      6  C   UNL     1      -0.537  11.167  20.886  0.00  0.00    +0.000 A 
ATOM      7  C   UNL     1      -0.630  11.038  22.265  0.00  0.00    +0.000 A 
ATOM      8  C   UNL     1      -1.389  11.868  23.075  0.00  0.00    +0.000 A 
ATOM      9  C   UNL     1      -2.140  12.851  22.440  0.00  0.00    +0.000 A 
ATOM     10  C   UNL     1      -2.047  13.009  21.043  0.00  0.00    +0.000 A 
ATOM     11  C   UNL     1      -1.190  12.222  20.240  0.00  0.00    +0.000 A 
ENDROOT
BRANCH   4  12
ATOM     12  C   UNL     1       1.738   7.336  20.294  0.00  0.00    +0.000 A 
ATOM     13  C   UNL     1       2.208   7.967  19.165  0.00  0.00    +0.000 A 
ATOM     14  N   UNL     1       3.024   7.067  18.548  0.00  0.00    +0.000 N 
ATOM     15  C   UNL     1       2.605   5.815  18.887  0.00  0.00    +0.000 A 
ATOM     16  N   UNL     1       2.862   4.706  18.173  0.00  0.00    +0.000 NA
ATOM     17  C   UNL     1       2.428   3.596  18.798  0.00  0.00    +0.000 A 
ATOM     18 CL   UNL     1       2.390   2.203  17.790  0.00  0.00    +0.000 Cl
ATOM     19  C   UNL     1       1.982   3.532  20.110  0.00  0.00    +0.000 A 
ATOM     20  C   UNL     1       1.790   4.725  20.827  0.00  0.00    +0.000 A 
ATOM     21  C   UNL     1       1.981   5.932  20.131  0.00  0.00    +0.000 A 
ATOM     22  H   UNL     1       3.864   7.274  18.030  0.00  0.00    +0.000 HD
ENDBRANCH   4  12
BRANCH  10  23
ATOM     23  O   UNL     1      -2.852  13.944  20.440  0.00  0.00    +0.000 OA
ATOM     24  H   UNL     1      -2.586  14.834  20.712  0.00  0.00    +0.000 HD
ENDBRANCH  10  23
BRANCH  11  25
ATOM     25  C   UNL     1      -1.056  12.473  18.774  0.00  0.00    +0.000 C 
BRANCH  25  26
ATOM     26  N   UNL     1       0.027  13.358  18.342  0.00  0.00    +0.000 NA
ATOM     27  C   UNL     1      -0.042  14.796  18.575  0.00  0.00    +0.000 C 
ATOM     28  C   UNL     1       0.992  15.342  19.590  0.00  0.00    +0.000 C 
ATOM     29  N   UNL     1       2.361  14.843  19.401  0.00  0.00    +0.000 NA
ATOM     30  C   UNL     1       2.371  13.381  19.262  0.00  0.00    +0.000 C 
ATOM     31  C   UNL     1       1.382  12.845  18.209  0.00  0.00    +0.000 C 
ATOM     32  H   UNL     1       2.933  15.109  20.202  0.00  0.00    +0.000 HD
ENDBRANCH  25  26
ENDBRANCH  11  25
TORSDOF 4
ENDMDL
MODEL 4
REMARK VINA RESULT:      -8.3      0.870      1.170
REMARK  Name = 
REMARK  4 active torsions:
REMARK  status: ('A' for Active; 'I' for Inactive)
REMARK    1  A    between atoms: C_4  and  C_5
REMARK    2  A    between atoms: C_20  and  O_21
REMARK    3  A    between atoms: C_22  and  C_23
REMARK    4  A    between atoms: C_23  and  N_24
REMARK                            x       y       z     vdW  Elec       q    Type
REMARK                         _______ _______ _______ _____ _____    ______ ____
ROOT
ATOM      1  O   UNL     1       0.798   9.962  23.025  0.00  0.00    +0.000 OA
ATOM      2  C   UNL     1       0.341  10.105  21.910  0.00  0.00    +0.000 C 
ATOM      3  C   UNL     1       0.638   9.358  20.657  0.00  0.00    +0.000 C 
ATOM      4  C   UNL     1       1.472   8.323  20.722  0.00  0.00    +0.000 C 
ATOM      5  O   UNL     1      -0.028   9.913  19.578  0.00  0.00    +0.000 OA
ATOM      6  C   UNL     1      -0.823  10.911  20.111  0.00  0.00    +0.000 A 
ATOM      7  C   UNL     1      -0.659  11.050  21.483  0.00  0.00    +0.000 A 
ATOM      8  C   UNL     1      -1.407  11.910  22.272  0.00  0.00    +0.000 A 
ATOM      9  C   UNL     1      -2.415  12.629  21.639  0.00  0.00    +0.000 A 
ATOM     10  C   UNL     1      -2.586  12.515  20.245  0.00  0.00    +0.000 A 
ATOM     11  C   UNL     1      -1.749  11.712  19.436  0.00  0.00    +0.000 A 
ENDROOT
BRANCH   4  12
ATOM     12  C   UNL     1       1.961   7.401  19.747  0.00  0.00    +0.000 A 
ATOM     13  C   UNL     1       2.405   7.908  18.548  0.00  0.00    +0.000 A 
ATOM     14  N   UNL     1       3.186   6.936  17.999  0.00  0.00    +0.000 N 
ATOM     15  C   UNL     1       2.758   5.732  18.472  0.00  0.00    +0.000 A 
ATOM     16  N   UNL     1       2.974   4.553  17.864  0.00  0.00    +0.000 NA
ATOM     17  C   UNL     1       2.542   3.519  18.608  0.00  0.00    +0.000 A 
ATOM     18 CL   UNL     1       2.449   2.034  17.745  0.00  0.00    +0.000 Cl
ATOM     19  C   UNL     1       2.136   3.593  19.933  0.00  0.00    +0.000 A 
ATOM     20  C   UNL     1       1.987   4.854  20.534  0.00  0.00    +0.000 A 
ATOM     21  C   UNL     1       2.176   5.983  19.717  0.00  0.00    +0.000 A 
ATOM     22  H   UNL     1       4.013   7.075  17.438  0.00  0.00    +0.000 HD
ENDBRANCH   4  12
BRANCH  10  23
ATOM     23  O   UNL     1      -3.632  13.186  19.662  0.00  0.00    +0.000 OA
ATOM     24  H   UNL     1      -3.889  13.940  20.212  0.00  0.00    +0.000 HD
ENDBRANCH  10  23
BRANCH  11  25
ATOM     25  C   UNL     1      -1.908  11.680  17.952  0.00  0.00    +0.000 C 
BRANCH  25  26
ATOM     26  N   UNL     1      -3.083  10.987  17.418  0.00  0.00    +0.000 NA
ATOM     27  C   UNL     1      -3.810  10.015  18.225  0.00  0.00    +0.000 C 
ATOM     28  C   UNL     1      -5.240  10.445  18.634  0.00  0.00    +0.000 C 
ATOM     29  N   UNL     1      -6.043  11.022  17.546  0.00  0.00    +0.000 NA
ATOM     30  C   UNL     1      -5.286  12.057  16.829  0.00  0.00    +0.000 C 
ATOM     31  C   UNL     1      -3.884  11.605  16.373  0.00  0.00    +0.000 C 
ATOM     32  H   UNL     1      -6.892  11.433  17.932  0.00  0.00    +0.000 HD
ENDBRANCH  25  26
ENDBRANCH  11  25
TORSDOF 4
ENDMDL
MODEL 5
REMARK VINA RESULT:      -7.9      4.552      8.113
REMARK  Name = 
REMARK  4 active torsions:
REMARK  status: ('A' for Active; 'I' for Inactive)
REMARK    1  A    between atoms: C_4  and  C_5
REMARK    2  A    between atoms: C_20  and  O_21
REMARK    3  A    between atoms: C_22  and  C_23
REMARK    4  A    between atoms: C_23  and  N_24
REMARK                            x       y       z     vdW  Elec       q    Type
REMARK                         _______ _______ _______ _____ _____    ______ ____
ROOT
ATOM      1  O   UNL     1      -0.045   9.764  23.772  0.00  0.00    +0.000 OA
ATOM      2  C   UNL     1      -0.386  10.253  22.715  0.00  0.00    +0.000 C 
ATOM      3  C   UNL     1      -1.366  11.339  22.441  0.00  0.00    +0.000 C 
ATOM      4  C   UNL     1      -1.936  11.951  23.477  0.00  0.00    +0.000 C 
ATOM      5  O   UNL     1      -1.539  11.522  21.080  0.00  0.00    +0.000 OA
ATOM      6  C   UNL     1      -0.627  10.674  20.478  0.00  0.00    +0.000 A 
ATOM      7  C   UNL     1       0.092   9.921  21.397  0.00  0.00    +0.000 A 
ATOM      8  C   UNL     1       1.132   9.068  21.060  0.00  0.00    +0.000 A 
ATOM      9  C   UNL     1       1.497   9.021  19.720  0.00  0.00    +0.000 A 
ATOM     10  C   UNL     1       0.770   9.764  18.769  0.00  0.00    +0.000 A 
ATOM     11  C   UNL     1      -0.355  10.550  19.112  0.00  0.00    +0.000 A 
ENDROOT
BRANCH   4  12
ATOM     12  C   UNL     1      -2.885  13.012  23.582  0.00  0.00    +0.000 A 
ATOM     13  C   UNL     1      -4.077  12.878  22.908  0.00  0.00    +0.000 A 
ATOM     14  N   UNL     1      -4.936  13.760  23.491  0.00  0.00    +0.000 N 
ATOM     15  C   UNL     1      -4.202  14.778  24.020  0.00  0.00    +0.000 A 
ATOM     16  N   UNL     1      -4.681  16.006  24.285  0.00  0.00    +0.000 NA
ATOM     17  C   UNL     1      -3.771  16.776  24.908  0.00  0.00    +0.000 A 
ATOM     18 CL   UNL     1      -4.180  18.445  24.942  0.00  0.00    +0.000 Cl
ATOM     19  C   UNL     1      -2.568  16.332  25.438  0.00  0.00    +0.000 A 
ATOM     20  C   UNL     1      -2.148  15.017  25.178  0.00  0.00    +0.000 A 
ATOM     21  C   UNL     1      -2.943  14.248  24.309  0.00  0.00    +0.000 A 
ATOM     22  H   UNL     1      -5.928  13.634  23.623  0.00  0.00    +0.000 HD
ENDBRANCH   4  12
BRANCH  10  23
ATOM     23  O   UNL     1       1.198   9.748  17.464  0.00  0.00    +0.000 OA
ATOM     24  H   UNL     1       0.512   9.368  16.897  0.00  0.00    +0.000 HD
ENDBRANCH  10  23
BRANCH  11  25
ATOM     25  C   UNL     1      -1.151  11.259  18.066  0.00  0.00    +0.000 C 
BRANCH  25  26
ATOM     26  N   UNL     1      -2.358  10.591  17.575  0.00  0.00    +0.000 NA
ATOM     27  C   UNL     1      -3.682  11.030  17.998  0.00  0.00    +0.000 C 
ATOM     28  C   UNL     1      -4.545  11.667  16.881  0.00  0.00    +0.000 C 
ATOM     29  N   UNL     1      -4.550  10.929  15.611  0.00  0.00    +0.000 NA
ATOM     30  C   UNL     1      -3.181  10.594  15.195  0.00  0.00    +0.000 C 
ATOM     31  C   UNL     1      -2.343   9.907  16.291  0.00  0.00    +0.000 C 
ATOM     32  H   UNL     1      -4.991  11.497  14.889  0.00  0.00    +0.000 HD
ENDBRANCH  25  26
ENDBRANCH  11  25
TORSDOF 4
ENDMDL
MODEL 6
REMARK VINA RESULT:      -7.9      4.299      7.707
REMARK  Name = 
REMARK  4 active torsions:
REMARK  status: ('A' for Active; 'I' for Inactive)
REMARK    1  A    between atoms: C_4  and  C_5
REMARK    2  A    between atoms: C_20  and  O_21
REMARK    3  A    between atoms: C_22  and  C_23
REMARK    4  A    between atoms: C_23  and  N_24
REMARK                            x       y       z     vdW  Elec       q    Type
REMARK                         _______ _______ _______ _____ _____    ______ ____
ROOT
ATOM      1  O   UNL     1       0.138   9.791  23.678  0.00  0.00    +0.000 OA
ATOM      2  C   UNL     1      -0.207  10.259  22.612  0.00  0.00    +0.000 C 
ATOM      3  C   UNL     1      -1.139  11.382  22.324  0.00  0.00    +0.000 C 
ATOM      4  C   UNL     1      -1.652  12.057  23.350  0.00  0.00    +0.000 C 
ATOM      5  O   UNL     1      -1.337  11.527  20.962  0.00  0.00    +0.000 OA
ATOM      6  C   UNL     1      -0.483  10.615  20.369  0.00  0.00    +0.000 A 
ATOM      7  C   UNL     1       0.221   9.859  21.296  0.00  0.00    +0.000 A 
ATOM      8  C   UNL     1       1.210   8.945  20.965  0.00  0.00    +0.000 A 
ATOM      9  C   UNL     1       1.538   8.833  19.619  0.00  0.00    +0.000 A 
ATOM     10  C   UNL     1       0.824   9.578  18.660  0.00  0.00    +0.000 A 
ATOM     11  C   UNL     1      -0.252  10.431  19.002  0.00  0.00    +0.000 A 
ENDROOT
BRANCH   4  12
ATOM     12  C   UNL     1      -2.546  13.167  23.440  0.00  0.00    +0.000 A 
ATOM     13  C   UNL     1      -2.095  14.307  24.066  0.00  0.00    +0.000 A 
ATOM     14  N   UNL     1      -2.920  15.309  23.653  0.00  0.00    +0.000 N 
ATOM     15  C   UNL     1      -4.126  14.760  23.334  0.00  0.00    +0.000 A 
ATOM     16  N   UNL     1      -5.287  15.436  23.302  0.00  0.00    +0.000 NA
ATOM     17  C   UNL     1      -6.298  14.675  22.845  0.00  0.00    +0.000 A 
ATOM     18 CL   UNL     1      -7.855  15.348  23.125  0.00  0.00    +0.000 Cl
ATOM     19  C   UNL     1      -6.163  13.428  22.251  0.00  0.00    +0.000 A 
ATOM     20  C   UNL     1      -4.908  12.796  22.261  0.00  0.00    +0.000 A 
ATOM     21  C   UNL     1      -3.870  13.438  22.961  0.00  0.00    +0.000 A 
ATOM     22  H   UNL     1      -2.663  16.271  23.491  0.00  0.00    +0.000 HD
ENDBRANCH   4  12
BRANCH  10  23
ATOM     23  O   UNL     1       1.217   9.496  17.347  0.00  0.00    +0.000 OA
ATOM     24  H   UNL     1       0.624  10.022  16.792  0.00  0.00    +0.000 HD
ENDBRANCH  10  23
BRANCH  11  25
ATOM     25  C   UNL     1      -1.039  11.141  17.951  0.00  0.00    +0.000 C 
BRANCH  25  26
ATOM     26  N   UNL     1      -2.278  10.506  17.496  0.00  0.00    +0.000 NA
ATOM     27  C   UNL     1      -3.577  10.981  17.955  0.00  0.00    +0.000 C 
ATOM     28  C   UNL     1      -4.454  11.640  16.863  0.00  0.00    +0.000 C 
ATOM     29  N   UNL     1      -4.515  10.900  15.595  0.00  0.00    +0.000 NA
ATOM     30  C   UNL     1      -3.169  10.527  15.140  0.00  0.00    +0.000 C 
ATOM     31  C   UNL     1      -2.319   9.820  16.213  0.00  0.00    +0.000 C 
ATOM     32  H   UNL     1      -4.962  11.479  14.885  0.00  0.00    +0.000 HD
ENDBRANCH  25  26
ENDBRANCH  11  25
TORSDOF 4
ENDMDL
MODEL 7
REMARK VINA RESULT:      -7.8      2.348      3.512
REMARK  Name = 
REMARK  4 active torsions:
REMARK  status: ('A' for Active; 'I' for Inactive)
REMARK    1  A    between atoms: C_4  and  C_5
REMARK    2  A    between atoms: C_20  and  O_21
REMARK    3  A    between atoms: C_22  and  C_23
REMARK    4  A    between atoms: C_23  and  N_24
REMARK                            x       y       z     vdW  Elec       q    Type
REMARK                         _______ _______ _______ _____ _____    ______ ____
ROOT
ATOM      1  O   UNL     1       0.004   9.367  23.925  0.00  0.00    +0.000 OA
ATOM      2  C   UNL     1      -0.104   9.748  22.778  0.00  0.00    +0.000 C 
ATOM      3  C   UNL     1       0.434   9.156  21.523  0.00  0.00    +0.000 C 
ATOM      4  C   UNL     1       1.082   7.996  21.600  0.00  0.00    +0.000 C 
ATOM      5  O   UNL     1       0.168   9.969  20.435  0.00  0.00    +0.000 OA
ATOM      6  C   UNL     1      -0.614  10.998  20.929  0.00  0.00    +0.000 A 
ATOM      7  C   UNL     1      -0.821  10.903  22.299  0.00  0.00    +0.000 A 
ATOM      8  C   UNL     1      -1.646  11.751  23.021  0.00  0.00    +0.000 A 
ATOM      9  C   UNL     1      -2.341  12.716  22.302  0.00  0.00    +0.000 A 
ATOM     10  C   UNL     1      -2.132  12.840  20.914  0.00  0.00    +0.000 A 
ATOM     11  C   UNL     1      -1.210  12.036  20.205  0.00  0.00    +0.000 A 
ENDROOT
BRANCH   4  12
ATOM     12  C   UNL     1       1.704   7.159  20.625  0.00  0.00    +0.000 A 
ATOM     13  C   UNL     1       1.765   5.808  20.882  0.00  0.00    +0.000 A 
ATOM     14  N   UNL     1       1.987   5.209  19.679  0.00  0.00    +0.000 N 
ATOM     15  C   UNL     1       2.636   6.100  18.877  0.00  0.00    +0.000 A 
ATOM     16  N   UNL     1       3.384   5.763  17.813  0.00  0.00    +0.000 NA
ATOM     17  C   UNL     1       3.811   6.845  17.137  0.00  0.00    +0.000 A 
ATOM     18 CL   UNL     1       5.059   6.508  16.003  0.00  0.00    +0.000 Cl
ATOM     19  C   UNL     1       3.370   8.145  17.336  0.00  0.00    +0.000 A 
ATOM     20  C   UNL     1       2.537   8.426  18.433  0.00  0.00    +0.000 A 
ATOM     21  C   UNL     1       2.271   7.372  19.325  0.00  0.00    +0.000 A 
ATOM     22  H   UNL     1       1.633   4.314  19.379  0.00  0.00    +0.000 HD
ENDBRANCH   4  12
BRANCH  10  23
ATOM     23  O   UNL     1      -2.884  13.758  20.223  0.00  0.00    +0.000 OA
ATOM     24  H   UNL     1      -2.306  14.324  19.690  0.00  0.00    +0.000 HD
ENDBRANCH  10  23
BRANCH  11  25
ATOM     25  C   UNL     1      -0.954  12.251  18.750  0.00  0.00    +0.000 C 
BRANCH  25  26
ATOM     26  N   UNL     1       0.140  13.154  18.388  0.00  0.00    +0.000 NA
ATOM     27  C   UNL     1      -0.002  14.598  18.531  0.00  0.00    +0.000 C 
ATOM     28  C   UNL     1       0.895  15.237  19.620  0.00  0.00    +0.000 C 
ATOM     29  N   UNL     1       2.293  14.783  19.609  0.00  0.00    +0.000 NA
ATOM     30  C   UNL     1       2.367  13.317  19.554  0.00  0.00    +0.000 C 
ATOM     31  C   UNL     1       1.518  12.688  18.432  0.00  0.00    +0.000 C 
ATOM     32  H   UNL     1       2.763  15.112  20.452  0.00  0.00    +0.000 HD
ENDBRANCH  25  26
ENDBRANCH  11  25
TORSDOF 4
ENDMDL
MODEL 8
REMARK VINA RESULT:      -7.8      4.290      8.559
REMARK  Name = 
REMARK  4 active torsions:
REMARK  status: ('A' for Active; 'I' for Inactive)
REMARK    1  A    between atoms: C_4  and  C_5
REMARK    2  A    between atoms: C_20  and  O_21
REMARK    3  A    between atoms: C_22  and  C_23
REMARK    4  A    between atoms: C_23  and  N_24
REMARK                            x       y       z     vdW  Elec       q    Type
REMARK                         _______ _______ _______ _____ _____    ______ ____
ROOT
ATOM      1  O   UNL     1       2.256  10.015  17.427  0.00  0.00    +0.000 OA
ATOM      2  C   UNL     1       2.250   9.083  18.205  0.00  0.00    +0.000 C 
ATOM      3  C   UNL     1       1.548   8.936  19.509  0.00  0.00    +0.000 C 
ATOM      4  C   UNL     1       0.735   9.913  19.902  0.00  0.00    +0.000 C 
ATOM      5  O   UNL     1       1.896   7.749  20.130  0.00  0.00    +0.000 OA
ATOM      6  C   UNL     1       2.703   7.084  19.224  0.00  0.00    +0.000 A 
ATOM      7  C   UNL     1       2.925   7.818  18.066  0.00  0.00    +0.000 A 
ATOM      8  C   UNL     1       3.618   7.340  16.964  0.00  0.00    +0.000 A 
ATOM      9  C   UNL     1       4.063   6.025  17.022  0.00  0.00    +0.000 A 
ATOM     10  C   UNL     1       3.864   5.269  18.195  0.00  0.00    +0.000 A 
ATOM     11  C   UNL     1       3.246   5.802  19.350  0.00  0.00    +0.000 A 
ENDROOT
BRANCH   4  12
ATOM     12  C   UNL     1      -0.084  10.096  21.057  0.00  0.00    +0.000 A 
ATOM     13  C   UNL     1      -0.200   9.044  21.936  0.00  0.00    +0.000 A 
ATOM     14  N   UNL     1      -0.644   9.583  23.106  0.00  0.00    +0.000 N 
ATOM     15  C   UNL     1      -1.343  10.715  22.811  0.00  0.00    +0.000 A 
ATOM     16  N   UNL     1      -2.266  11.272  23.614  0.00  0.00    +0.000 NA
ATOM     17  C   UNL     1      -2.714  12.443  23.126  0.00  0.00    +0.000 A 
ATOM     18 CL   UNL     1      -4.140  13.017  23.898  0.00  0.00    +0.000 Cl
ATOM     19  C   UNL     1      -2.157  13.139  22.062  0.00  0.00    +0.000 A 
ATOM     20  C   UNL     1      -1.151  12.528  21.295  0.00  0.00    +0.000 A 
ATOM     21  C   UNL     1      -0.827  11.195  21.604  0.00  0.00    +0.000 A 
ATOM     22  H   UNL     1      -0.403   9.280  24.037  0.00  0.00    +0.000 HD
ENDBRANCH   4  12
BRANCH  10  23
ATOM     23  O   UNL     1       4.255   3.953  18.195  0.00  0.00    +0.000 OA
ATOM     24  H   UNL     1       5.221   3.897  18.156  0.00  0.00    +0.000 HD
ENDBRANCH  10  23
BRANCH  11  25
ATOM     25  C   UNL     1       3.125   4.998  20.603  0.00  0.00    +0.000 C 
BRANCH  25  26
ATOM     26  N   UNL     1       2.222   3.846  20.576  0.00  0.00    +0.000 NA
ATOM     27  C   UNL     1       0.937   3.917  19.890  0.00  0.00    +0.000 C 
ATOM     28  C   UNL     1       0.821   3.027  18.628  0.00  0.00    +0.000 C 
ATOM     29  N   UNL     1       1.322   1.655  18.796  0.00  0.00    +0.000 NA
ATOM     30  C   UNL     1       2.656   1.656  19.410  0.00  0.00    +0.000 C 
ATOM     31  C   UNL     1       2.753   2.497  20.698  0.00  0.00    +0.000 C 
ATOM     32  H   UNL     1       1.370   1.198  17.886  0.00  0.00    +0.000 HD
ENDBRANCH  25  26
ENDBRANCH  11  25
TORSDOF 4
ENDMDL
MODEL 9
REMARK VINA RESULT:      -7.8      4.393      7.904
REMARK  Name = 
REMARK  4 active torsions:
REMARK  status: ('A' for Active; 'I' for Inactive)
REMARK    1  A    between atoms: C_4  and  C_5
REMARK    2  A    between atoms: C_20  and  O_21
REMARK    3  A    between atoms: C_22  and  C_23
REMARK    4  A    between atoms: C_23  and  N_24
REMARK                            x       y       z     vdW  Elec       q    Type
REMARK                         _______ _______ _______ _____ _____    ______ ____
ROOT
ATOM      1  O   UNL     1       0.044   9.719  23.747  0.00  0.00    +0.000 OA
ATOM      2  C   UNL     1      -0.309  10.210  22.694  0.00  0.00    +0.000 C 
ATOM      3  C   UNL     1      -1.290  11.299  22.434  0.00  0.00    +0.000 C 
ATOM      4  C   UNL     1      -1.845  11.911  23.477  0.00  0.00    +0.000 C 
ATOM      5  O   UNL     1      -1.478  11.483  21.075  0.00  0.00    +0.000 OA
ATOM      6  C   UNL     1      -0.576  10.634  20.461  0.00  0.00    +0.000 A 
ATOM      7  C   UNL     1       0.152   9.877  21.371  0.00  0.00    +0.000 A 
ATOM      8  C   UNL     1       1.186   9.023  21.020  0.00  0.00    +0.000 A 
ATOM      9  C   UNL     1       1.535   8.976  19.676  0.00  0.00    +0.000 A 
ATOM     10  C   UNL     1       0.797   9.722  18.734  0.00  0.00    +0.000 A 
ATOM     11  C   UNL     1      -0.321  10.511  19.092  0.00  0.00    +0.000 A 
ENDROOT
BRANCH   4  12
ATOM     12  C   UNL     1      -2.791  12.975  23.594  0.00  0.00    +0.000 A 
ATOM     13  C   UNL     1      -3.937  12.739  24.319  0.00  0.00    +0.000 A 
ATOM     14  N   UNL     1      -4.434  13.966  24.639  0.00  0.00    +0.000 N 
ATOM     15  C   UNL     1      -4.023  14.850  23.687  0.00  0.00    +0.000 A 
ATOM     16  N   UNL     1      -4.632  16.017  23.416  0.00  0.00    +0.000 NA
ATOM     17  C   UNL     1      -3.949  16.742  22.512  0.00  0.00    +0.000 A 
ATOM     18 CL   UNL     1      -4.845  18.053  21.853  0.00  0.00    +0.000 Cl
ATOM     19  C   UNL     1      -2.663  16.469  22.067  0.00  0.00    +0.000 A 
ATOM     20  C   UNL     1      -2.053  15.258  22.433  0.00  0.00    +0.000 A 
ATOM     21  C   UNL     1      -2.829  14.344  23.168  0.00  0.00    +0.000 A 
ATOM     22  H   UNL     1      -4.918  14.215  25.488  0.00  0.00    +0.000 HD
ENDBRANCH   4  12
BRANCH  10  23
ATOM     23  O   UNL     1       1.210   9.705  17.425  0.00  0.00    +0.000 OA
ATOM     24  H   UNL     1       2.139   9.438  17.375  0.00  0.00    +0.000 HD
ENDBRANCH  10  23
BRANCH  11  25
ATOM     25  C   UNL     1      -1.128  11.222  18.057  0.00  0.00    +0.000 C 
BRANCH  25  26
ATOM     26  N   UNL     1      -2.348  10.563  17.588  0.00  0.00    +0.000 NA
ATOM     27  C   UNL     1      -3.663  11.042  17.996  0.00  0.00    +0.000 C 
ATOM     28  C   UNL     1      -4.514  11.659  16.860  0.00  0.00    +0.000 C 
ATOM     29  N   UNL     1      -4.534  10.880  15.614  0.00  0.00    +0.000 NA
ATOM     30  C   UNL     1      -3.173  10.504  15.209  0.00  0.00    +0.000 C 
ATOM     31  C   UNL     1      -2.348   9.837  16.327  0.00  0.00    +0.000 C 
ATOM     32  H   UNL     1      -4.965  11.433  14.874  0.00  0.00    +0.000 HD
ENDBRANCH  25  26
ENDBRANCH  11  25
TORSDOF 4
ENDMDL
