MODEL 1
REMARK VINA RESULT:      -8.1      0.000      0.000
REMARK  Name = 
REMARK  6 active torsions:
REMARK  status: ('A' for Active; 'I' for Inactive)
REMARK    1  A    between atoms: C_1  and  C_2
REMARK    2  A    between atoms: C_8  and  C_9
REMARK    3  A    between atoms: N_11  and  N_12
REMARK    4  A    between atoms: N_12  and  C_13
REMARK    5  A    between atoms: C_13  and  N_15
REMARK    6  A    between atoms: N_15  and  C_16
REMARK                            x       y       z     vdW  Elec       q    Type
REMARK                         _______ _______ _______ _____ _____    ______ ____
ROOT
ATOM      1  C   UNL     1       2.247   8.133  18.290  0.00  0.00    +0.000 C 
ATOM      2  O   UNL     1       2.650   8.484  17.181  0.00  0.00    +0.000 OA
ATOM      3  N   UNL     1       2.465   6.865  18.789  0.00  0.00    +0.000 N 
ATOM      4  H   UNL     1       2.039   6.554  19.668  0.00  0.00    +0.000 HD
ENDROOT
BRANCH   1  12
ATOM      5  C   UNL     1      -2.260  12.586  23.182  0.00  0.00    +0.000 C 
ATOM      6  C   UNL     1      -1.374  11.553  22.547  0.00  0.00    +0.000 A 
ATOM      7  C   UNL     1      -1.010  10.404  23.246  0.00  0.00    +0.000 A 
ATOM      8  C   UNL     1      -0.196   9.465  22.618  0.00  0.00    +0.000 A 
ATOM      9  C   UNL     1       0.225   9.705  21.312  0.00  0.00    +0.000 A 
ATOM     10  C   UNL     1       1.073   8.739  20.576  0.00  0.00    +0.000 A 
ATOM     11  O   UNL     1       1.434   7.698  21.119  0.00  0.00    +0.000 OA
ATOM     12  C   UNL     1       1.457   9.049  19.167  0.00  0.00    +0.000 A 
ATOM     13  C   UNL     1       1.010  10.219  18.670  0.00  0.00    +0.000 A 
ATOM     14  N   UNL     1       0.249  11.120  19.366  0.00  0.00    +0.000 N 
ATOM     15  C   UNL     1      -0.174  10.879  20.674  0.00  0.00    +0.000 A 
ATOM     16  N   UNL     1      -0.963  11.799  21.274  0.00  0.00    +0.000 NA
ATOM     17  H   UNL     1      -0.086  11.977  18.946  0.00  0.00    +0.000 HD
ENDBRANCH   1  12
BRANCH   3  18
ATOM     18  N   UNL     1       2.907   5.864  17.898  0.00  0.00    +0.000 N 
ATOM     19  H   UNL     1       2.627   6.004  16.928  0.00  0.00    +0.000 HD
BRANCH  18  20
ATOM     20  C   UNL     1       4.013   5.085  18.157  0.00  0.00    +0.000 C 
ATOM     21  S   UNL     1       5.211   4.702  17.058  0.00  0.00    +0.000 S 
BRANCH  20  22
ATOM     22  N   UNL     1       4.145   4.653  19.459  0.00  0.00    +0.000 N 
ATOM     23  H   UNL     1       4.315   5.410  20.114  0.00  0.00    +0.000 HD
BRANCH  22  24
ATOM     24  C   UNL     1       3.483   3.456  19.993  0.00  0.00    +0.000 C 
ATOM     25  C   UNL     1       2.277   3.804  20.878  0.00  0.00    +0.000 C 
ATOM     26  C   UNL     1       0.925   3.833  20.168  0.00  0.00    +0.000 C 
ATOM     27  C   UNL     1       0.716   2.615  19.281  0.00  0.00    +0.000 C 
ATOM     28  C   UNL     1       1.817   2.536  18.235  0.00  0.00    +0.000 C 
ATOM     29  C   UNL     1       3.191   2.424  18.888  0.00  0.00    +0.000 C 
ENDBRANCH  22  24
ENDBRANCH  20  22
ENDBRANCH  18  20
ENDBRANCH   3  18
TORSDOF 5
ENDMDL
MODEL 2
REMARK VINA RESULT:      -8.0      0.677      1.003
REMARK  Name = 
REMARK  6 active torsions:
REMARK  status: ('A' for Active; 'I' for Inactive)
REMARK    1  A    between atoms: C_1  and  C_2
REMARK    2  A    between atoms: C_8  and  C_9
REMARK    3  A    between atoms: N_11  and  N_12
REMARK    4  A    between atoms: N_12  and  C_13
REMARK    5  A    between atoms: C_13  and  N_15
REMARK    6  A    between atoms: N_15  and  C_16
REMARK                            x       y       z     vdW  Elec       q    Type
REMARK                         _______ _______ _______ _____ _____    ______ ____
ROOT
ATOM      1  C   UNL     1       2.398   7.801  18.324  0.00  0.00    +0.000 C 
ATOM      2  O   UNL     1       2.947   8.161  17.283  0.00  0.00    +0.000 OA
ATOM      3  N   UNL     1       2.447   6.497  18.773  0.00  0.00    +0.000 N 
ATOM      4  H   UNL     1       1.902   6.189  19.586  0.00  0.00    +0.000 HD
ENDROOT
BRANCH   1  12
ATOM      5  C   UNL     1      -2.126  12.427  23.035  0.00  0.00    +0.000 C 
ATOM      6  C   UNL     1      -1.233  11.376  22.442  0.00  0.00    +0.000 A 
ATOM      7  C   UNL     1      -0.852  10.264  23.191  0.00  0.00    +0.000 A 
ATOM      8  C   UNL     1      -0.033   9.306  22.602  0.00  0.00    +0.000 A 
ATOM      9  C   UNL     1       0.378   9.490  21.283  0.00  0.00    +0.000 A 
ATOM     10  C   UNL     1       1.232   8.499  20.587  0.00  0.00    +0.000 A 
ATOM     11  O   UNL     1       1.607   7.488  21.175  0.00  0.00    +0.000 OA
ATOM     12  C   UNL     1       1.603   8.748  19.163  0.00  0.00    +0.000 A 
ATOM     13  C   UNL     1       1.141   9.889  18.615  0.00  0.00    +0.000 A 
ATOM     14  N   UNL     1       0.374  10.813  19.274  0.00  0.00    +0.000 N 
ATOM     15  C   UNL     1      -0.038  10.629  20.594  0.00  0.00    +0.000 A 
ATOM     16  N   UNL     1      -0.833  11.567  21.157  0.00  0.00    +0.000 NA
ATOM     17  H   UNL     1       0.027  11.647  18.817  0.00  0.00    +0.000 HD
ENDBRANCH   1  12
BRANCH   3  18
ATOM     18  N   UNL     1       2.890   5.499  17.879  0.00  0.00    +0.000 N 
ATOM     19  H   UNL     1       2.624   5.650  16.908  0.00  0.00    +0.000 HD
BRANCH  18  20
ATOM     20  C   UNL     1       3.985   4.707  18.146  0.00  0.00    +0.000 C 
ATOM     21  S   UNL     1       5.419   5.228  18.825  0.00  0.00    +0.000 S 
BRANCH  20  22
ATOM     22  N   UNL     1       3.829   3.365  17.875  0.00  0.00    +0.000 N 
ATOM     23  H   UNL     1       4.529   3.005  17.234  0.00  0.00    +0.000 HD
BRANCH  22  24
ATOM     24  C   UNL     1       3.245   2.404  18.820  0.00  0.00    +0.000 C 
ATOM     25  C   UNL     1       3.536   2.774  20.281  0.00  0.00    +0.000 C 
ATOM     26  C   UNL     1       2.462   3.608  20.977  0.00  0.00    +0.000 C 
ATOM     27  C   UNL     1       1.064   3.056  20.740  0.00  0.00    +0.000 C 
ATOM     28  C   UNL     1       0.765   3.015  19.249  0.00  0.00    +0.000 C 
ATOM     29  C   UNL     1       1.762   2.128  18.510  0.00  0.00    +0.000 C 
ENDBRANCH  22  24
ENDBRANCH  20  22
ENDBRANCH  18  20
ENDBRANCH   3  18
TORSDOF 5
ENDMDL
MODEL 3
REMARK VINA RESULT:      -7.9      1.740      2.703
REMARK  Name = 
REMARK  6 active torsions:
REMARK  status: ('A' for Active; 'I' for Inactive)
REMARK    1  A    between atoms: C_1  and  C_2
REMARK    2  A    between atoms: C_8  and  C_9
REMARK    3  A    between atoms: N_11  and  N_12
REMARK    4  A    between atoms: N_12  and  C_13
REMARK    5  A    between atoms: C_13  and  N_15
REMARK    6  A    between atoms: N_15  and  C_16
REMARK                            x       y       z     vdW  Elec       q    Type
REMARK                         _______ _______ _______ _____ _____    ______ ____
ROOT
ATOM      1  C   UNL     1       3.368   6.382  19.168  0.00  0.00    +0.000 C 
ATOM      2  O   UNL     1       3.664   5.491  19.965  0.00  0.00    +0.000 OA
ATOM      3  N   UNL     1       3.981   6.507  17.938  0.00  0.00    +0.000 N 
ATOM      4  H   UNL     1       3.797   7.310  17.327  0.00  0.00    +0.000 HD
ENDROOT
BRANCH   1  12
ATOM      5  C   UNL     1      -1.787  12.321  20.657  0.00  0.00    +0.000 C 
ATOM      6  C   UNL     1      -0.815  11.344  20.059  0.00  0.00    +0.000 A 
ATOM      7  C   UNL     1      -0.323  11.533  18.769  0.00  0.00    +0.000 A 
ATOM      8  C   UNL     1       0.585  10.612  18.255  0.00  0.00    +0.000 A 
ATOM      9  C   UNL     1       0.972   9.533  19.049  0.00  0.00    +0.000 A 
ATOM     10  C   UNL     1       1.950   8.528  18.573  0.00  0.00    +0.000 A 
ATOM     11  O   UNL     1       2.437   8.625  17.449  0.00  0.00    +0.000 OA
ATOM     12  C   UNL     1       2.344   7.420  19.493  0.00  0.00    +0.000 A 
ATOM     13  C   UNL     1       1.748   7.406  20.701  0.00  0.00    +0.000 A 
ATOM     14  N   UNL     1       0.823   8.325  21.123  0.00  0.00    +0.000 N 
ATOM     15  C   UNL     1       0.436   9.405  20.329  0.00  0.00    +0.000 A 
ATOM     16  N   UNL     1      -0.448  10.293  20.839  0.00  0.00    +0.000 NA
ATOM     17  H   UNL     1       0.417   8.291  22.049  0.00  0.00    +0.000 HD
ENDBRANCH   1  12
BRANCH   3  18
ATOM     18  N   UNL     1       5.165   5.777  17.704  0.00  0.00    +0.000 N 
ATOM     19  H   UNL     1       5.947   6.033  18.305  0.00  0.00    +0.000 HD
BRANCH  18  20
ATOM     20  C   UNL     1       5.157   4.524  17.134  0.00  0.00    +0.000 C 
ATOM     21  S   UNL     1       5.672   4.155  15.588  0.00  0.00    +0.000 S 
BRANCH  20  22
ATOM     22  N   UNL     1       4.740   3.499  17.956  0.00  0.00    +0.000 N 
ATOM     23  H   UNL     1       4.899   3.689  18.940  0.00  0.00    +0.000 HD
BRANCH  22  24
ATOM     24  C   UNL     1       3.632   2.592  17.631  0.00  0.00    +0.000 C 
ATOM     25  C   UNL     1       3.277   1.664  18.802  0.00  0.00    +0.000 C 
ATOM     26  C   UNL     1       2.166   2.161  19.724  0.00  0.00    +0.000 C 
ATOM     27  C   UNL     1       0.962   2.672  18.948  0.00  0.00    +0.000 C 
ATOM     28  C   UNL     1       1.379   3.808  18.026  0.00  0.00    +0.000 C 
ATOM     29  C   UNL     1       2.434   3.347  17.025  0.00  0.00    +0.000 C 
ENDBRANCH  22  24
ENDBRANCH  20  22
ENDBRANCH  18  20
ENDBRANCH   3  18
TORSDOF 5
ENDMDL
MODEL 4
REMARK VINA RESULT:      -7.8      2.218      3.735
REMARK  Name = 
REMARK  6 active torsions:
REMARK  status: ('A' for Active; 'I' for Inactive)
REMARK    1  A    between atoms: C_1  and  C_2
REMARK    2  A    between atoms: C_8  and  C_9
REMARK    3  A    between atoms: N_11  and  N_12
REMARK    4  A    between atoms: N_12  and  C_13
REMARK    5  A    between atoms: C_13  and  N_15
REMARK    6  A    between atoms: N_15  and  C_16
REMARK                            x       y       z     vdW  Elec       q    Type
REMARK                         _______ _______ _______ _____ _____    ______ ____
ROOT
ATOM      1  C   UNL     1       2.400   6.573  18.824  0.00  0.00    +0.000 C 
ATOM      2  O   UNL     1       2.081   5.872  17.865  0.00  0.00    +0.000 OA
ATOM      3  N   UNL     1       3.085   6.071  19.912  0.00  0.00    +0.000 N 
ATOM      4  H   UNL     1       3.256   6.640  20.748  0.00  0.00    +0.000 HD
ENDROOT
BRANCH   1  12
ATOM      5  C   UNL     1      -0.035  14.171  19.463  0.00  0.00    +0.000 C 
ATOM      6  C   UNL     1       0.320  12.727  19.674  0.00  0.00    +0.000 A 
ATOM      7  C   UNL     1      -0.027  12.077  20.857  0.00  0.00    +0.000 A 
ATOM      8  C   UNL     1       0.310  10.736  21.011  0.00  0.00    +0.000 A 
ATOM      9  C   UNL     1       0.981  10.087  19.975  0.00  0.00    +0.000 A 
ATOM     10  C   UNL     1       1.350   8.656  20.062  0.00  0.00    +0.000 A 
ATOM     11  O   UNL     1       1.075   8.009  21.069  0.00  0.00    +0.000 OA
ATOM     12  C   UNL     1       2.036   8.020  18.898  0.00  0.00    +0.000 A 
ATOM     13  C   UNL     1       2.292   8.821  17.845  0.00  0.00    +0.000 A 
ATOM     14  N   UNL     1       1.971  10.151  17.784  0.00  0.00    +0.000 N 
ATOM     15  C   UNL     1       1.299  10.801  18.820  0.00  0.00    +0.000 A 
ATOM     16  N   UNL     1       0.978  12.105  18.661  0.00  0.00    +0.000 NA
ATOM     17  H   UNL     1       2.161  10.712  16.963  0.00  0.00    +0.000 HD
ENDBRANCH   1  12
BRANCH   3  18
ATOM     18  N   UNL     1       3.170   4.670  20.060  0.00  0.00    +0.000 N 
ATOM     19  H   UNL     1       2.272   4.195  20.131  0.00  0.00    +0.000 HD
BRANCH  18  20
ATOM     20  C   UNL     1       4.261   3.950  19.628  0.00  0.00    +0.000 C 
ATOM     21  S   UNL     1       4.248   2.344  19.170  0.00  0.00    +0.000 S 
BRANCH  20  22
ATOM     22  N   UNL     1       5.437   4.661  19.516  0.00  0.00    +0.000 N 
ATOM     23  H   UNL     1       5.953   4.715  20.390  0.00  0.00    +0.000 HD
BRANCH  22  24
ATOM     24  C   UNL     1       6.225   4.748  18.280  0.00  0.00    +0.000 C 
ATOM     25  C   UNL     1       5.490   5.520  17.175  0.00  0.00    +0.000 C 
ATOM     26  C   UNL     1       5.805   7.012  17.091  0.00  0.00    +0.000 C 
ATOM     27  C   UNL     1       7.299   7.287  17.154  0.00  0.00    +0.000 C 
ATOM     28  C   UNL     1       7.877   6.736  18.449  0.00  0.00    +0.000 C 
ATOM     29  C   UNL     1       7.662   5.229  18.552  0.00  0.00    +0.000 C 
ENDBRANCH  22  24
ENDBRANCH  20  22
ENDBRANCH  18  20
ENDBRANCH   3  18
TORSDOF 5
ENDMDL
MODEL 5
REMARK VINA RESULT:      -7.7      1.762      3.119
REMARK  Name = 
REMARK  6 active torsions:
REMARK  status: ('A' for Active; 'I' for Inactive)
REMARK    1  A    between atoms: C_1  and  C_2
REMARK    2  A    between atoms: C_8  and  C_9
REMARK    3  A    between atoms: N_11  and  N_12
REMARK    4  A    between atoms: N_12  and  C_13
REMARK    5  A    between atoms: C_13  and  N_15
REMARK    6  A    between atoms: N_15  and  C_16
REMARK                            x       y       z     vdW  Elec       q    Type
REMARK                         _______ _______ _______ _____ _____    ______ ____
ROOT
ATOM      1  C   UNL     1       2.206   8.090  18.397  0.00  0.00    +0.000 C 
ATOM      2  O   UNL     1       2.841   8.455  17.407  0.00  0.00    +0.000 OA
ATOM      3  N   UNL     1       2.196   6.779  18.827  0.00  0.00    +0.000 N 
ATOM      4  H   UNL     1       1.585   6.470  19.590  0.00  0.00    +0.000 HD
ENDROOT
BRANCH   1  12
ATOM      5  C   UNL     1      -2.521  12.734  22.886  0.00  0.00    +0.000 C 
ATOM      6  C   UNL     1      -1.572  11.703  22.346  0.00  0.00    +0.000 A 
ATOM      7  C   UNL     1      -1.104  10.674  23.160  0.00  0.00    +0.000 A 
ATOM      8  C   UNL     1      -0.234   9.732  22.619  0.00  0.00    +0.000 A 
ATOM      9  C   UNL     1       0.138   9.849  21.280  0.00  0.00    +0.000 A 
ATOM     10  C   UNL     1       1.041   8.869  20.634  0.00  0.00    +0.000 A 
ATOM     11  O   UNL     1       1.494   7.928  21.281  0.00  0.00    +0.000 OA
ATOM     12  C   UNL     1       1.367   9.040  19.187  0.00  0.00    +0.000 A 
ATOM     13  C   UNL     1       0.820  10.108  18.574  0.00  0.00    +0.000 A 
ATOM     14  N   UNL     1       0.007  11.024  19.186  0.00  0.00    +0.000 N 
ATOM     15  C   UNL     1      -0.367  10.907  20.525  0.00  0.00    +0.000 A 
ATOM     16  N   UNL     1      -1.211  11.829  21.041  0.00  0.00    +0.000 NA
ATOM     17  H   UNL     1      -0.403  11.800  18.681  0.00  0.00    +0.000 HD
ENDBRANCH   1  12
BRANCH   3  18
ATOM     18  N   UNL     1       2.688   5.785  17.954  0.00  0.00    +0.000 N 
ATOM     19  H   UNL     1       2.344   5.853  16.997  0.00  0.00    +0.000 HD
BRANCH  18  20
ATOM     20  C   UNL     1       3.878   5.132  18.181  0.00  0.00    +0.000 C 
ATOM     21  S   UNL     1       4.102   3.477  18.142  0.00  0.00    +0.000 S 
BRANCH  20  22
ATOM     22  N   UNL     1       4.972   5.943  18.395  0.00  0.00    +0.000 N 
ATOM     23  H   UNL     1       5.390   5.813  19.312  0.00  0.00    +0.000 HD
BRANCH  22  24
ATOM     24  C   UNL     1       5.863   6.410  17.326  0.00  0.00    +0.000 C 
ATOM     25  C   UNL     1       7.258   5.773  17.410  0.00  0.00    +0.000 C 
ATOM     26  C   UNL     1       7.457   4.510  16.574  0.00  0.00    +0.000 C 
ATOM     27  C   UNL     1       6.931   4.672  15.156  0.00  0.00    +0.000 C 
ATOM     28  C   UNL     1       5.448   5.012  15.185  0.00  0.00    +0.000 C 
ATOM     29  C   UNL     1       5.195   6.312  15.942  0.00  0.00    +0.000 C 
ENDBRANCH  22  24
ENDBRANCH  20  22
ENDBRANCH  18  20
ENDBRANCH   3  18
TORSDOF 5
ENDMDL
MODEL 6
REMARK VINA RESULT:      -7.6      3.818      8.491
REMARK  Name = 
REMARK  6 active torsions:
REMARK  status: ('A' for Active; 'I' for Inactive)
REMARK    1  A    between atoms: C_1  and  C_2
REMARK    2  A    between atoms: C_8  and  C_9
REMARK    3  A    between atoms: N_11  and  N_12
REMARK    4  A    between atoms: N_12  and  C_13
REMARK    5  A    between atoms: C_13  and  N_15
REMARK    6  A    between atoms: N_15  and  C_16
REMARK                            x       y       z     vdW  Elec       q    Type
REMARK                         _______ _______ _______ _____ _____    ______ ____
ROOT
ATOM      1  C   UNL     1       0.484  10.366  19.127  0.00  0.00    +0.000 C 
ATOM      2  O   UNL     1       0.452  11.219  20.014  0.00  0.00    +0.000 OA
ATOM      3  N   UNL     1      -0.238  10.489  17.957  0.00  0.00    +0.000 N 
ATOM      4  H   UNL     1      -0.282   9.727  17.272  0.00  0.00    +0.000 HD
ENDROOT
BRANCH   1  12
ATOM      5  C   UNL     1       4.622   3.519  19.358  0.00  0.00    +0.000 C 
ATOM      6  C   UNL     1       4.007   4.844  19.010  0.00  0.00    +0.000 A 
ATOM      7  C   UNL     1       4.226   5.421  17.761  0.00  0.00    +0.000 A 
ATOM      8  C   UNL     1       3.629   6.645  17.472  0.00  0.00    +0.000 A 
ATOM      9  C   UNL     1       2.832   7.251  18.442  0.00  0.00    +0.000 A 
ATOM     10  C   UNL     1       2.149   8.541  18.194  0.00  0.00    +0.000 A 
ATOM     11  O   UNL     1       2.285   9.114  17.116  0.00  0.00    +0.000 OA
ATOM     12  C   UNL     1       1.283   9.112  19.269  0.00  0.00    +0.000 A 
ATOM     13  C   UNL     1       1.206   8.404  20.413  0.00  0.00    +0.000 A 
ATOM     14  N   UNL     1       1.862   7.225  20.643  0.00  0.00    +0.000 N 
ATOM     15  C   UNL     1       2.660   6.617  19.672  0.00  0.00    +0.000 A 
ATOM     16  N   UNL     1       3.236   5.429  19.964  0.00  0.00    +0.000 NA
ATOM     17  H   UNL     1       1.758   6.712  21.510  0.00  0.00    +0.000 HD
ENDBRANCH   1  12
BRANCH   3  18
ATOM     18  N   UNL     1      -1.252  11.468  17.897  0.00  0.00    +0.000 N 
ATOM     19  H   UNL     1      -0.931  12.422  18.055  0.00  0.00    +0.000 HD
BRANCH  18  20
ATOM     20  C   UNL     1      -2.420  11.275  17.195  0.00  0.00    +0.000 C 
ATOM     21  S   UNL     1      -2.642  10.172  15.960  0.00  0.00    +0.000 S 
BRANCH  20  22
ATOM     22  N   UNL     1      -3.498  12.027  17.612  0.00  0.00    +0.000 N 
ATOM     23  H   UNL     1      -3.812  12.692  16.912  0.00  0.00    +0.000 HD
BRANCH  22  24
ATOM     24  C   UNL     1      -4.506  11.550  18.567  0.00  0.00    +0.000 C 
ATOM     25  C   UNL     1      -4.687  12.510  19.751  0.00  0.00    +0.000 C 
ATOM     26  C   UNL     1      -5.800  13.544  19.597  0.00  0.00    +0.000 C 
ATOM     27  C   UNL     1      -7.095  12.924  19.095  0.00  0.00    +0.000 C 
ATOM     28  C   UNL     1      -6.863  12.248  17.752  0.00  0.00    +0.000 C 
ATOM     29  C   UNL     1      -5.814  11.146  17.862  0.00  0.00    +0.000 C 
ENDBRANCH  22  24
ENDBRANCH  20  22
ENDBRANCH  18  20
ENDBRANCH   3  18
TORSDOF 5
ENDMDL
MODEL 7
REMARK VINA RESULT:      -7.6      1.755      3.146
REMARK  Name = 
REMARK  6 active torsions:
REMARK  status: ('A' for Active; 'I' for Inactive)
REMARK    1  A    between atoms: C_1  and  C_2
REMARK    2  A    between atoms: C_8  and  C_9
REMARK    3  A    between atoms: N_11  and  N_12
REMARK    4  A    between atoms: N_12  and  C_13
REMARK    5  A    between atoms: C_13  and  N_15
REMARK    6  A    between atoms: N_15  and  C_16
REMARK                            x       y       z     vdW  Elec       q    Type
REMARK                         _______ _______ _______ _____ _____    ______ ____
ROOT
ATOM      1  C   UNL     1       2.253   7.963  18.231  0.00  0.00    +0.000 C 
ATOM      2  O   UNL     1       2.788   8.351  17.192  0.00  0.00    +0.000 OA
ATOM      3  N   UNL     1       2.289   6.643  18.633  0.00  0.00    +0.000 N 
ATOM      4  H   UNL     1       1.756   6.315  19.445  0.00  0.00    +0.000 HD
ENDROOT
BRANCH   1  12
ATOM      5  C   UNL     1      -2.110  12.489  23.185  0.00  0.00    +0.000 C 
ATOM      6  C   UNL     1      -1.245  11.445  22.539  0.00  0.00    +0.000 A 
ATOM      7  C   UNL     1      -0.873  10.300  23.239  0.00  0.00    +0.000 A 
ATOM      8  C   UNL     1      -0.081   9.350  22.602  0.00  0.00    +0.000 A 
ATOM      9  C   UNL     1       0.312   9.575  21.284  0.00  0.00    +0.000 A 
ATOM     10  C   UNL     1       1.137   8.597  20.538  0.00  0.00    +0.000 A 
ATOM     11  O   UNL     1       1.503   7.558  21.082  0.00  0.00    +0.000 OA
ATOM     12  C   UNL     1       1.489   8.891  19.117  0.00  0.00    +0.000 A 
ATOM     13  C   UNL     1       1.039  10.060  18.620  0.00  0.00    +0.000 A 
ATOM     14  N   UNL     1       0.300  10.972  19.325  0.00  0.00    +0.000 N 
ATOM     15  C   UNL     1      -0.095  10.746  20.645  0.00  0.00    +0.000 A 
ATOM     16  N   UNL     1      -0.863  11.677  21.255  0.00  0.00    +0.000 NA
ATOM     17  H   UNL     1      -0.039  11.828  18.906  0.00  0.00    +0.000 HD
ENDBRANCH   1  12
BRANCH   3  18
ATOM     18  N   UNL     1       2.700   5.670  17.697  0.00  0.00    +0.000 N 
ATOM     19  H   UNL     1       2.470   5.888  16.729  0.00  0.00    +0.000 HD
BRANCH  18  20
ATOM     20  C   UNL     1       3.741   4.804  17.946  0.00  0.00    +0.000 C 
ATOM     21  S   UNL     1       4.262   4.318  19.457  0.00  0.00    +0.000 S 
BRANCH  20  22
ATOM     22  N   UNL     1       4.343   4.260  16.832  0.00  0.00    +0.000 N 
ATOM     23  H   UNL     1       3.705   3.710  16.264  0.00  0.00    +0.000 HD
BRANCH  22  24
ATOM     24  C   UNL     1       5.480   4.876  16.136  0.00  0.00    +0.000 C 
ATOM     25  C   UNL     1       5.375   6.407  16.090  0.00  0.00    +0.000 C 
ATOM     26  C   UNL     1       6.086   7.151  17.219  0.00  0.00    +0.000 C 
ATOM     27  C   UNL     1       7.497   6.631  17.449  0.00  0.00    +0.000 C 
ATOM     28  C   UNL     1       7.457   5.148  17.788  0.00  0.00    +0.000 C 
ATOM     29  C   UNL     1       6.826   4.341  16.657  0.00  0.00    +0.000 C 
ENDBRANCH  22  24
ENDBRANCH  20  22
ENDBRANCH  18  20
ENDBRANCH   3  18
TORSDOF 5
ENDMDL
MODEL 8
REMARK VINA RESULT:      -7.6      1.134      1.154
REMARK  Name = 
REMARK  6 active torsions:
REMARK  status: ('A' for Active; 'I' for Inactive)
REMARK    1  A    between atoms: C_1  and  C_2
REMARK    2  A    between atoms: C_8  and  C_9
REMARK    3  A    between atoms: N_11  and  N_12
REMARK    4  A    between atoms: N_12  and  C_13
REMARK    5  A    between atoms: C_13  and  N_15
REMARK    6  A    between atoms: N_15  and  C_16
REMARK                            x       y       z     vdW  Elec       q    Type
REMARK                         _______ _______ _______ _____ _____    ______ ____
ROOT
ATOM      1  C   UNL     1       2.510   7.216  18.154  0.00  0.00    +0.000 C 
ATOM      2  O   UNL     1       1.906   6.200  17.811  0.00  0.00    +0.000 OA
ATOM      3  N   UNL     1       3.835   7.432  17.833  0.00  0.00    +0.000 N 
ATOM      4  H   UNL     1       4.354   8.233  18.209  0.00  0.00    +0.000 HD
ENDROOT
BRANCH   1  12
ATOM      5  C   UNL     1      -1.312  12.514  22.778  0.00  0.00    +0.000 C 
ATOM      6  C   UNL     1      -0.587  11.331  22.202  0.00  0.00    +0.000 A 
ATOM      7  C   UNL     1      -0.408  10.173  22.956  0.00  0.00    +0.000 A 
ATOM      8  C   UNL     1       0.259   9.095  22.382  0.00  0.00    +0.000 A 
ATOM      9  C   UNL     1       0.724   9.210  21.073  0.00  0.00    +0.000 A 
ATOM     10  C   UNL     1       1.422   8.094  20.393  0.00  0.00    +0.000 A 
ATOM     11  O   UNL     1       1.615   7.036  20.986  0.00  0.00    +0.000 OA
ATOM     12  C   UNL     1       1.860   8.279  18.978  0.00  0.00    +0.000 A 
ATOM     13  C   UNL     1       1.601   9.480  18.424  0.00  0.00    +0.000 A 
ATOM     14  N   UNL     1       0.979  10.516  19.069  0.00  0.00    +0.000 N 
ATOM     15  C   UNL     1       0.512  10.401  20.379  0.00  0.00    +0.000 A 
ATOM     16  N   UNL     1      -0.133  11.455  20.927  0.00  0.00    +0.000 NA
ATOM     17  H   UNL     1       0.782  11.394  18.607  0.00  0.00    +0.000 HD
ENDBRANCH   1  12
BRANCH   3  18
ATOM     18  N   UNL     1       4.592   6.343  17.350  0.00  0.00    +0.000 N 
ATOM     19  H   UNL     1       4.981   6.476  16.418  0.00  0.00    +0.000 HD
BRANCH  18  20
ATOM     20  C   UNL     1       5.198   5.439  18.193  0.00  0.00    +0.000 C 
ATOM     21  S   UNL     1       6.792   4.946  18.107  0.00  0.00    +0.000 S 
BRANCH  20  22
ATOM     22  N   UNL     1       4.413   4.965  19.222  0.00  0.00    +0.000 N 
ATOM     23  H   UNL     1       3.738   5.647  19.554  0.00  0.00    +0.000 HD
BRANCH  22  24
ATOM     24  C   UNL     1       4.057   3.550  19.392  0.00  0.00    +0.000 C 
ATOM     25  C   UNL     1       2.929   3.353  20.416  0.00  0.00    +0.000 C 
ATOM     26  C   UNL     1       1.517   3.299  19.838  0.00  0.00    +0.000 C 
ATOM     27  C   UNL     1       1.426   2.382  18.628  0.00  0.00    +0.000 C 
ATOM     28  C   UNL     1       2.382   2.855  17.543  0.00  0.00    +0.000 C 
ATOM     29  C   UNL     1       3.825   2.853  18.039  0.00  0.00    +0.000 C 
ENDBRANCH  22  24
ENDBRANCH  20  22
ENDBRANCH  18  20
ENDBRANCH   3  18
TORSDOF 5
ENDMDL
MODEL 9
REMARK VINA RESULT:      -7.5      3.744      7.775
REMARK  Name = 
REMARK  6 active torsions:
REMARK  status: ('A' for Active; 'I' for Inactive)
REMARK    1  A    between atoms: C_1  and  C_2
REMARK    2  A    between atoms: C_8  and  C_9
REMARK    3  A    between atoms: N_11  and  N_12
REMARK    4  A    between atoms: N_12  and  C_13
REMARK    5  A    between atoms: C_13  and  N_15
REMARK    6  A    between atoms: N_15  and  C_16
REMARK                            x       y       z     vdW  Elec       q    Type
REMARK                         _______ _______ _______ _____ _____    ______ ____
ROOT
ATOM      1  C   UNL     1      -0.050  10.870  21.010  0.00  0.00    +0.000 C 
ATOM      2  O   UNL     1      -0.674  10.889  22.071  0.00  0.00    +0.000 OA
ATOM      3  N   UNL     1      -0.068  11.927  20.123  0.00  0.00    +0.000 N 
ATOM      4  H   UNL     1       0.372  11.859  19.199  0.00  0.00    +0.000 HD
ENDROOT
BRANCH   1  12
ATOM      5  C   UNL     1       3.972   4.529  18.238  0.00  0.00    +0.000 C 
ATOM      6  C   UNL     1       3.314   5.861  18.457  0.00  0.00    +0.000 A 
ATOM      7  C   UNL     1       3.279   6.811  17.438  0.00  0.00    +0.000 A 
ATOM      8  C   UNL     1       2.650   8.029  17.676  0.00  0.00    +0.000 A 
ATOM      9  C   UNL     1       2.074   8.257  18.924  0.00  0.00    +0.000 A 
ATOM     10  C   UNL     1       1.369   9.522  19.239  0.00  0.00    +0.000 A 
ATOM     11  O   UNL     1       1.289  10.409  18.393  0.00  0.00    +0.000 OA
ATOM     12  C   UNL     1       0.747   9.680  20.586  0.00  0.00    +0.000 A 
ATOM     13  C   UNL     1       0.897   8.647  21.438  0.00  0.00    +0.000 A 
ATOM     14  N   UNL     1       1.573   7.492  21.149  0.00  0.00    +0.000 N 
ATOM     15  C   UNL     1       2.149   7.263  19.899  0.00  0.00    +0.000 A 
ATOM     16  N   UNL     1       2.759   6.076  19.679  0.00  0.00    +0.000 NA
ATOM     17  H   UNL     1       1.642   6.729  21.811  0.00  0.00    +0.000 HD
ENDBRANCH   1  12
BRANCH   3  18
ATOM     18  N   UNL     1      -1.045  12.930  20.298  0.00  0.00    +0.000 N 
ATOM     19  H   UNL     1      -0.676  13.879  20.345  0.00  0.00    +0.000 HD
BRANCH  18  20
ATOM     20  C   UNL     1      -2.356  12.753  19.920  0.00  0.00    +0.000 C 
ATOM     21  S   UNL     1      -3.691  13.001  20.893  0.00  0.00    +0.000 S 
BRANCH  20  22
ATOM     22  N   UNL     1      -2.554  12.402  18.602  0.00  0.00    +0.000 N 
ATOM     23  H   UNL     1      -1.808  12.719  17.989  0.00  0.00    +0.000 HD
BRANCH  22  24
ATOM     24  C   UNL     1      -3.288  11.202  18.177  0.00  0.00    +0.000 C 
ATOM     25  C   UNL     1      -4.122  11.447  16.912  0.00  0.00    +0.000 C 
ATOM     26  C   UNL     1      -3.439  11.094  15.593  0.00  0.00    +0.000 C 
ATOM     27  C   UNL     1      -2.769   9.730  15.642  0.00  0.00    +0.000 C 
ATOM     28  C   UNL     1      -1.732   9.697  16.755  0.00  0.00    +0.000 C 
ATOM     29  C   UNL     1      -2.373   9.966  18.113  0.00  0.00    +0.000 C 
ENDBRANCH  22  24
ENDBRANCH  20  22
ENDBRANCH  18  20
ENDBRANCH   3  18
TORSDOF 5
ENDMDL
