MODEL 1
REMARK VINA RESULT:      -7.2      0.000      0.000
REMARK  Name = 
REMARK  8 active torsions:
REMARK  status: ('A' for Active; 'I' for Inactive)
REMARK    1  A    between atoms: C_1  and  C_2
REMARK    2  A    between atoms: C_2  and  O_3
REMARK    3  A    between atoms: O_3  and  C_4
REMARK    4  A    between atoms: C_6  and  C_7
REMARK    5  A    between atoms: C_11  and  O_12
REMARK    6  A    between atoms: O_12  and  C_13
REMARK    7  A    between atoms: C_13  and  C_14
REMARK    8  A    between atoms: C_20  and  C_22
REMARK                            x       y       z     vdW  Elec       q    Type
REMARK                         _______ _______ _______ _____ _____    ______ ____
ROOT
ATOM      1  C   UNL     1       2.081   7.445  19.663  0.00  0.00    +0.000 C 
ATOM      2  O   UNL     1       2.082   6.645  20.602  0.00  0.00    +0.000 OA
ATOM      3  N   UNL     1       1.427   8.671  19.759  0.00  0.00    +0.000 N 
ATOM      4  C   UNL     1       1.259   9.645  18.668  0.00  0.00    +0.000 C 
ATOM      5  C   UNL     1      -0.156  10.245  18.650  0.00  0.00    +0.000 C 
ATOM      6  N   UNL     1      -0.524  10.760  19.968  0.00  0.00    +0.000 N 
ATOM      7  C   UNL     1      -1.113  12.027  20.035  0.00  0.00    +0.000 C 
ATOM      8  O   UNL     1      -1.335  12.649  18.998  0.00  0.00    +0.000 OA
ATOM      9  C   UNL     1      -0.434   9.742  21.028  0.00  0.00    +0.000 C 
ATOM     10  C   UNL     1       0.984   9.148  21.081  0.00  0.00    +0.000 C 
ENDROOT
BRANCH   7  11
ATOM     11  C   UNL     1      -1.429  12.599  21.343  0.00  0.00    +0.000 A 
ATOM     12  C   UNL     1      -2.508  12.402  22.183  0.00  0.00    +0.000 A 
ATOM     13  C   UNL     1      -2.433  13.197  23.364  0.00  0.00    +0.000 A 
ATOM     14  C   UNL     1      -1.252  13.896  23.439  0.00  0.00    +0.000 A 
ATOM     15  S   UNL     1      -0.262  13.628  22.075  0.00  0.00    +0.000 S 
ENDBRANCH   7  11
BRANCH   1  16
ATOM     16  C   UNL     1       2.864   7.126  18.375  0.00  0.00    +0.000 C 
BRANCH  16  17
ATOM     17  O   UNL     1       3.922   6.202  18.568  0.00  0.00    +0.000 OA
BRANCH  17  23
ATOM     18  C   UNL     1       4.554   4.143  17.274  0.00  0.00    +0.000 A 
ATOM     19  C   UNL     1       5.131   3.677  16.082  0.00  0.00    +0.000 A 
ATOM     20  C   UNL     1       5.543   4.561  15.079  0.00  0.00    +0.000 A 
ATOM     21  C   UNL     1       5.386   5.932  15.261  0.00  0.00    +0.000 A 
ATOM     22  C   UNL     1       4.829   6.411  16.451  0.00  0.00    +0.000 A 
ATOM     23  C   UNL     1       4.413   5.534  17.470  0.00  0.00    +0.000 A 
BRANCH  20  24
ATOM     24  C   UNL     1       6.120   4.040  13.875  0.00  0.00    +0.000 C 
ATOM     25  N   UNL     1       6.569   3.641  12.883  0.00  0.00    +0.000 NA
ENDBRANCH  20  24
BRANCH  18  26
ATOM     26  O   UNL     1       4.130   3.290  18.258  0.00  0.00    +0.000 OA
BRANCH  26  28
ATOM     27  C   UNL     1       1.847   2.582  18.242  0.00  0.00    +0.000 C 
ATOM     28  C   UNL     1       3.276   2.204  17.900  0.00  0.00    +0.000 C 
ENDBRANCH  26  28
ENDBRANCH  18  26
ENDBRANCH  17  23
ENDBRANCH  16  17
ENDBRANCH   1  16
TORSDOF 7
ENDMDL
MODEL 2
REMARK VINA RESULT:      -7.2      1.532      1.948
REMARK  Name = 
REMARK  8 active torsions:
REMARK  status: ('A' for Active; 'I' for Inactive)
REMARK    1  A    between atoms: C_1  and  C_2
REMARK    2  A    between atoms: C_2  and  O_3
REMARK    3  A    between atoms: O_3  and  C_4
REMARK    4  A    between atoms: C_6  and  C_7
REMARK    5  A    between atoms: C_11  and  O_12
REMARK    6  A    between atoms: O_12  and  C_13
REMARK    7  A    between atoms: C_13  and  C_14
REMARK    8  A    between atoms: C_20  and  C_22
REMARK                            x       y       z     vdW  Elec       q    Type
REMARK                         _______ _______ _______ _____ _____    ______ ____
ROOT
ATOM      1  C   UNL     1       2.234   8.055  18.455  0.00  0.00    +0.000 C 
ATOM      2  O   UNL     1       2.610   8.644  17.439  0.00  0.00    +0.000 OA
ATOM      3  N   UNL     1       1.468   8.701  19.423  0.00  0.00    +0.000 N 
ATOM      4  C   UNL     1       1.069   8.136  20.723  0.00  0.00    +0.000 C 
ATOM      5  C   UNL     1       1.203   9.163  21.858  0.00  0.00    +0.000 C 
ATOM      6  N   UNL     1       0.524  10.412  21.519  0.00  0.00    +0.000 N 
ATOM      7  C   UNL     1      -0.296  10.997  22.491  0.00  0.00    +0.000 C 
ATOM      8  O   UNL     1      -0.394  10.472  23.598  0.00  0.00    +0.000 OA
ATOM      9  C   UNL     1       1.005  11.004  20.260  0.00  0.00    +0.000 C 
ATOM     10  C   UNL     1       0.853  10.001  19.103  0.00  0.00    +0.000 C 
ENDROOT
BRANCH   7  11
ATOM     11  C   UNL     1      -1.043  12.209  22.158  0.00  0.00    +0.000 A 
ATOM     12  C   UNL     1      -1.096  13.441  22.779  0.00  0.00    +0.000 A 
ATOM     13  C   UNL     1      -1.992  14.341  22.132  0.00  0.00    +0.000 A 
ATOM     14  C   UNL     1      -2.516  13.805  20.980  0.00  0.00    +0.000 A 
ATOM     15  S   UNL     1      -1.964  12.214  20.705  0.00  0.00    +0.000 S 
ENDBRANCH   7  11
BRANCH   1  16
ATOM     16  C   UNL     1       2.554   6.560  18.645  0.00  0.00    +0.000 C 
BRANCH  16  17
ATOM     17  O   UNL     1       3.939   6.263  18.568  0.00  0.00    +0.000 OA
BRANCH  17  23
ATOM     18  C   UNL     1       4.401   4.182  17.238  0.00  0.00    +0.000 A 
ATOM     19  C   UNL     1       4.970   3.689  16.053  0.00  0.00    +0.000 A 
ATOM     20  C   UNL     1       5.507   4.549  15.090  0.00  0.00    +0.000 A 
ATOM     21  C   UNL     1       5.486   5.924  15.306  0.00  0.00    +0.000 A 
ATOM     22  C   UNL     1       4.939   6.429  16.489  0.00  0.00    +0.000 A 
ATOM     23  C   UNL     1       4.398   5.575  17.468  0.00  0.00    +0.000 A 
BRANCH  20  24
ATOM     24  C   UNL     1       6.070   4.001  13.891  0.00  0.00    +0.000 C 
ATOM     25  N   UNL     1       6.540   3.587  12.914  0.00  0.00    +0.000 NA
ENDBRANCH  20  24
BRANCH  18  26
ATOM     26  O   UNL     1       3.856   3.354  18.182  0.00  0.00    +0.000 OA
BRANCH  26  28
ATOM     27  C   UNL     1       1.645   2.625  18.726  0.00  0.00    +0.000 C 
ATOM     28  C   UNL     1       2.824   2.451  17.786  0.00  0.00    +0.000 C 
ENDBRANCH  26  28
ENDBRANCH  18  26
ENDBRANCH  17  23
ENDBRANCH  16  17
ENDBRANCH   1  16
TORSDOF 7
ENDMDL
MODEL 3
REMARK VINA RESULT:      -7.1      1.540      1.901
REMARK  Name = 
REMARK  8 active torsions:
REMARK  status: ('A' for Active; 'I' for Inactive)
REMARK    1  A    between atoms: C_1  and  C_2
REMARK    2  A    between atoms: C_2  and  O_3
REMARK    3  A    between atoms: O_3  and  C_4
REMARK    4  A    between atoms: C_6  and  C_7
REMARK    5  A    between atoms: C_11  and  O_12
REMARK    6  A    between atoms: O_12  and  C_13
REMARK    7  A    between atoms: C_13  and  C_14
REMARK    8  A    between atoms: C_20  and  C_22
REMARK                            x       y       z     vdW  Elec       q    Type
REMARK                         _______ _______ _______ _____ _____    ______ ____
ROOT
ATOM      1  C   UNL     1       1.960   8.671  18.342  0.00  0.00    +0.000 C 
ATOM      2  O   UNL     1       2.371   9.270  17.345  0.00  0.00    +0.000 OA
ATOM      3  N   UNL     1       1.175   9.313  19.298  0.00  0.00    +0.000 N 
ATOM      4  C   UNL     1       0.734   8.735  20.578  0.00  0.00    +0.000 C 
ATOM      5  C   UNL     1       0.847   9.745  21.730  0.00  0.00    +0.000 C 
ATOM      6  N   UNL     1       0.190  11.005  21.390  0.00  0.00    +0.000 N 
ATOM      7  C   UNL     1      -0.651  11.586  22.346  0.00  0.00    +0.000 C 
ATOM      8  O   UNL     1      -0.784  11.047  23.443  0.00  0.00    +0.000 OA
ATOM      9  C   UNL     1       0.712  11.609  20.153  0.00  0.00    +0.000 C 
ATOM     10  C   UNL     1       0.582  10.623  18.979  0.00  0.00    +0.000 C 
ENDROOT
BRANCH   7  11
ATOM     11  C   UNL     1      -1.376  12.809  22.010  0.00  0.00    +0.000 A 
ATOM     12  C   UNL     1      -2.570  13.003  21.344  0.00  0.00    +0.000 A 
ATOM     13  C   UNL     1      -2.899  14.383  21.202  0.00  0.00    +0.000 A 
ATOM     14  C   UNL     1      -2.001  15.195  21.852  0.00  0.00    +0.000 A 
ATOM     15  S   UNL     1      -0.749  14.302  22.592  0.00  0.00    +0.000 S 
ENDBRANCH   7  11
BRANCH   1  16
ATOM     16  C   UNL     1       2.261   7.171  18.521  0.00  0.00    +0.000 C 
BRANCH  16  17
ATOM     17  O   UNL     1       3.645   6.867  18.527  0.00  0.00    +0.000 OA
BRANCH  17  23
ATOM     18  C   UNL     1       4.117   4.671  17.400  0.00  0.00    +0.000 A 
ATOM     19  C   UNL     1       4.736   4.067  16.294  0.00  0.00    +0.000 A 
ATOM     20  C   UNL     1       5.354   4.829  15.298  0.00  0.00    +0.000 A 
ATOM     21  C   UNL     1       5.364   6.217  15.400  0.00  0.00    +0.000 A 
ATOM     22  C   UNL     1       4.766   6.833  16.504  0.00  0.00    +0.000 A 
ATOM     23  C   UNL     1       4.145   6.078  17.515  0.00  0.00    +0.000 A 
BRANCH  20  24
ATOM     24  C   UNL     1       5.967   4.169  14.183  0.00  0.00    +0.000 C 
ATOM     25  N   UNL     1       6.454   3.604  13.295  0.00  0.00    +0.000 NA
ENDBRANCH  20  24
BRANCH  18  26
ATOM     26  O   UNL     1       3.494   3.939  18.375  0.00  0.00    +0.000 OA
BRANCH  26  28
ATOM     27  C   UNL     1       2.021   2.060  18.493  0.00  0.00    +0.000 C 
ATOM     28  C   UNL     1       2.140   3.537  18.167  0.00  0.00    +0.000 C 
ENDBRANCH  26  28
ENDBRANCH  18  26
ENDBRANCH  17  23
ENDBRANCH  16  17
ENDBRANCH   1  16
TORSDOF 7
ENDMDL
MODEL 4
REMARK VINA RESULT:      -7.0      2.366      2.921
REMARK  Name = 
REMARK  8 active torsions:
REMARK  status: ('A' for Active; 'I' for Inactive)
REMARK    1  A    between atoms: C_1  and  C_2
REMARK    2  A    between atoms: C_2  and  O_3
REMARK    3  A    between atoms: O_3  and  C_4
REMARK    4  A    between atoms: C_6  and  C_7
REMARK    5  A    between atoms: C_11  and  O_12
REMARK    6  A    between atoms: O_12  and  C_13
REMARK    7  A    between atoms: C_13  and  C_14
REMARK    8  A    between atoms: C_20  and  C_22
REMARK                            x       y       z     vdW  Elec       q    Type
REMARK                         _______ _______ _______ _____ _____    ______ ____
ROOT
ATOM      1  C   UNL     1       1.375   9.340  18.762  0.00  0.00    +0.000 C 
ATOM      2  O   UNL     1       1.680   9.841  17.677  0.00  0.00    +0.000 OA
ATOM      3  N   UNL     1       0.391   9.908  19.570  0.00  0.00    +0.000 N 
ATOM      4  C   UNL     1       0.033   9.469  20.928  0.00  0.00    +0.000 C 
ATOM      5  C   UNL     1      -0.192  10.659  21.873  0.00  0.00    +0.000 C 
ATOM      6  N   UNL     1      -1.127  11.621  21.294  0.00  0.00    +0.000 N 
ATOM      7  C   UNL     1      -2.149  12.117  22.112  0.00  0.00    +0.000 C 
ATOM      8  O   UNL     1      -2.209  11.763  23.288  0.00  0.00    +0.000 OA
ATOM      9  C   UNL     1      -0.700  12.114  19.973  0.00  0.00    +0.000 C 
ATOM     10  C   UNL     1      -0.497  10.937  19.002  0.00  0.00    +0.000 C 
ENDROOT
BRANCH   7  11
ATOM     11  C   UNL     1      -3.141  13.026  21.542  0.00  0.00    +0.000 A 
ATOM     12  C   UNL     1      -4.351  12.779  20.925  0.00  0.00    +0.000 A 
ATOM     13  C   UNL     1      -4.994  13.972  20.481  0.00  0.00    +0.000 A 
ATOM     14  C   UNL     1      -4.306  15.098  20.864  0.00  0.00    +0.000 A 
ATOM     15  S   UNL     1      -2.876  14.718  21.714  0.00  0.00    +0.000 S 
ENDBRANCH   7  11
BRANCH   1  16
ATOM     16  C   UNL     1       2.039   8.028  19.223  0.00  0.00    +0.000 C 
BRANCH  16  17
ATOM     17  O   UNL     1       2.233   7.093  18.175  0.00  0.00    +0.000 OA
BRANCH  17  23
ATOM     18  C   UNL     1       3.733   5.202  18.873  0.00  0.00    +0.000 A 
ATOM     19  C   UNL     1       5.019   4.655  18.734  0.00  0.00    +0.000 A 
ATOM     20  C   UNL     1       5.966   5.229  17.880  0.00  0.00    +0.000 A 
ATOM     21  C   UNL     1       5.637   6.370  17.154  0.00  0.00    +0.000 A 
ATOM     22  C   UNL     1       4.366   6.936  17.296  0.00  0.00    +0.000 A 
ATOM     23  C   UNL     1       3.405   6.371  18.154  0.00  0.00    +0.000 A 
BRANCH  20  24
ATOM     24  C   UNL     1       7.264   4.631  17.763  0.00  0.00    +0.000 C 
ATOM     25  N   UNL     1       8.323   4.164  17.696  0.00  0.00    +0.000 NA
ENDBRANCH  20  24
BRANCH  18  26
ATOM     26  O   UNL     1       2.790   4.642  19.693  0.00  0.00    +0.000 OA
BRANCH  26  28
ATOM     27  C   UNL     1       2.179   3.202  21.501  0.00  0.00    +0.000 C 
ATOM     28  C   UNL     1       3.061   3.368  20.276  0.00  0.00    +0.000 C 
ENDBRANCH  26  28
ENDBRANCH  18  26
ENDBRANCH  17  23
ENDBRANCH  16  17
ENDBRANCH   1  16
TORSDOF 7
ENDMDL
MODEL 5
REMARK VINA RESULT:      -7.0      2.694      4.152
REMARK  Name = 
REMARK  8 active torsions:
REMARK  status: ('A' for Active; 'I' for Inactive)
REMARK    1  A    between atoms: C_1  and  C_2
REMARK    2  A    between atoms: C_2  and  O_3
REMARK    3  A    between atoms: O_3  and  C_4
REMARK    4  A    between atoms: C_6  and  C_7
REMARK    5  A    between atoms: C_11  and  O_12
REMARK    6  A    between atoms: O_12  and  C_13
REMARK    7  A    between atoms: C_13  and  C_14
REMARK    8  A    between atoms: C_20  and  C_22
REMARK                            x       y       z     vdW  Elec       q    Type
REMARK                         _______ _______ _______ _____ _____    ______ ____
ROOT
ATOM      1  C   UNL     1       1.815   9.970  18.198  0.00  0.00    +0.000 C 
ATOM      2  O   UNL     1       2.509  10.780  17.578  0.00  0.00    +0.000 OA
ATOM      3  N   UNL     1       0.955  10.384  19.213  0.00  0.00    +0.000 N 
ATOM      4  C   UNL     1       0.176   9.499  20.094  0.00  0.00    +0.000 C 
ATOM      5  C   UNL     1       0.198   9.982  21.553  0.00  0.00    +0.000 C 
ATOM      6  N   UNL     1      -0.176  11.391  21.645  0.00  0.00    +0.000 N 
ATOM      7  C   UNL     1      -1.100  11.762  22.629  0.00  0.00    +0.000 C 
ATOM      8  O   UNL     1      -1.538  10.910  23.401  0.00  0.00    +0.000 OA
ATOM      9  C   UNL     1       0.676  12.267  20.823  0.00  0.00    +0.000 C 
ATOM     10  C   UNL     1       0.645  11.817  19.352  0.00  0.00    +0.000 C 
ENDROOT
BRANCH   7  11
ATOM     11  C   UNL     1      -1.547  13.151  22.702  0.00  0.00    +0.000 A 
ATOM     12  C   UNL     1      -1.111  14.205  23.480  0.00  0.00    +0.000 A 
ATOM     13  C   UNL     1      -1.858  15.399  23.253  0.00  0.00    +0.000 A 
ATOM     14  C   UNL     1      -2.770  15.247  22.236  0.00  0.00    +0.000 A 
ATOM     15  S   UNL     1      -2.754  13.668  21.591  0.00  0.00    +0.000 S 
ENDBRANCH   7  11
BRANCH   1  16
ATOM     16  C   UNL     1       1.843   8.478  17.817  0.00  0.00    +0.000 C 
BRANCH  16  17
ATOM     17  O   UNL     1       3.030   7.813  18.216  0.00  0.00    +0.000 OA
BRANCH  17  23
ATOM     18  C   UNL     1       3.571   5.412  18.725  0.00  0.00    +0.000 A 
ATOM     19  C   UNL     1       3.261   4.325  19.557  0.00  0.00    +0.000 A 
ATOM     20  C   UNL     1       2.337   4.446  20.600  0.00  0.00    +0.000 A 
ATOM     21  C   UNL     1       1.703   5.665  20.820  0.00  0.00    +0.000 A 
ATOM     22  C   UNL     1       1.988   6.752  19.988  0.00  0.00    +0.000 A 
ATOM     23  C   UNL     1       2.913   6.643  18.933  0.00  0.00    +0.000 A 
BRANCH  20  24
ATOM     24  C   UNL     1       2.058   3.311  21.430  0.00  0.00    +0.000 C 
ATOM     25  N   UNL     1       1.804   2.408  22.111  0.00  0.00    +0.000 NA
ENDBRANCH  20  24
BRANCH  18  26
ATOM     26  O   UNL     1       4.486   5.313  17.710  0.00  0.00    +0.000 OA
BRANCH  26  28
ATOM     27  C   UNL     1       5.628   4.138  15.970  0.00  0.00    +0.000 C 
ATOM     28  C   UNL     1       4.333   4.267  16.752  0.00  0.00    +0.000 C 
ENDBRANCH  26  28
ENDBRANCH  18  26
ENDBRANCH  17  23
ENDBRANCH  16  17
ENDBRANCH   1  16
TORSDOF 7
ENDMDL
MODEL 6
REMARK VINA RESULT:      -7.0      2.205      2.768
REMARK  Name = 
REMARK  8 active torsions:
REMARK  status: ('A' for Active; 'I' for Inactive)
REMARK    1  A    between atoms: C_1  and  C_2
REMARK    2  A    between atoms: C_2  and  O_3
REMARK    3  A    between atoms: O_3  and  C_4
REMARK    4  A    between atoms: C_6  and  C_7
REMARK    5  A    between atoms: C_11  and  O_12
REMARK    6  A    between atoms: O_12  and  C_13
REMARK    7  A    between atoms: C_13  and  C_14
REMARK    8  A    between atoms: C_20  and  C_22
REMARK                            x       y       z     vdW  Elec       q    Type
REMARK                         _______ _______ _______ _____ _____    ______ ____
ROOT
ATOM      1  C   UNL     1       1.762   9.751  18.211  0.00  0.00    +0.000 C 
ATOM      2  O   UNL     1       2.476  10.531  17.575  0.00  0.00    +0.000 OA
ATOM      3  N   UNL     1       0.908  10.207  19.213  0.00  0.00    +0.000 N 
ATOM      4  C   UNL     1       0.106   9.360  20.111  0.00  0.00    +0.000 C 
ATOM      5  C   UNL     1       0.135   9.874  21.559  0.00  0.00    +0.000 C 
ATOM      6  N   UNL     1      -0.207  11.294  21.618  0.00  0.00    +0.000 N 
ATOM      7  C   UNL     1      -1.126  11.707  22.590  0.00  0.00    +0.000 C 
ATOM      8  O   UNL     1      -1.585  10.883  23.379  0.00  0.00    +0.000 OA
ATOM      9  C   UNL     1       0.667  12.131  20.780  0.00  0.00    +0.000 C 
ATOM     10  C   UNL     1       0.630  11.649  19.319  0.00  0.00    +0.000 C 
ENDROOT
BRANCH   7  11
ATOM     11  C   UNL     1      -1.541  13.107  22.630  0.00  0.00    +0.000 A 
ATOM     12  C   UNL     1      -1.073  14.172  23.374  0.00  0.00    +0.000 A 
ATOM     13  C   UNL     1      -1.797  15.375  23.124  0.00  0.00    +0.000 A 
ATOM     14  C   UNL     1      -2.724  15.217  22.122  0.00  0.00    +0.000 A 
ATOM     15  S   UNL     1      -2.751  13.621  21.520  0.00  0.00    +0.000 S 
ENDBRANCH   7  11
BRANCH   1  16
ATOM     16  C   UNL     1       1.757   8.250  17.863  0.00  0.00    +0.000 C 
BRANCH  16  17
ATOM     17  O   UNL     1       2.311   7.431  18.879  0.00  0.00    +0.000 OA
BRANCH  17  23
ATOM     18  C   UNL     1       3.899   5.515  19.224  0.00  0.00    +0.000 A 
ATOM     19  C   UNL     1       5.088   4.923  18.769  0.00  0.00    +0.000 A 
ATOM     20  C   UNL     1       5.787   5.442  17.674  0.00  0.00    +0.000 A 
ATOM     21  C   UNL     1       5.303   6.571  17.020  0.00  0.00    +0.000 A 
ATOM     22  C   UNL     1       4.129   7.182  17.473  0.00  0.00    +0.000 A 
ATOM     23  C   UNL     1       3.418   6.672  18.575  0.00  0.00    +0.000 A 
BRANCH  20  24
ATOM     24  C   UNL     1       6.993   4.800  17.240  0.00  0.00    +0.000 C 
ATOM     25  N   UNL     1       7.954   4.251  16.893  0.00  0.00    +0.000 NA
ENDBRANCH  20  24
BRANCH  18  26
ATOM     26  O   UNL     1       3.195   5.009  20.284  0.00  0.00    +0.000 OA
BRANCH  26  28
ATOM     27  C   UNL     1       1.101   3.888  20.551  0.00  0.00    +0.000 C 
ATOM     28  C   UNL     1       2.554   3.743  20.136  0.00  0.00    +0.000 C 
ENDBRANCH  26  28
ENDBRANCH  18  26
ENDBRANCH  17  23
ENDBRANCH  16  17
ENDBRANCH   1  16
TORSDOF 7
ENDMDL
MODEL 7
REMARK VINA RESULT:      -6.9      2.361      3.596
REMARK  Name = 
REMARK  8 active torsions:
REMARK  status: ('A' for Active; 'I' for Inactive)
REMARK    1  A    between atoms: C_1  and  C_2
REMARK    2  A    between atoms: C_2  and  O_3
REMARK    3  A    between atoms: O_3  and  C_4
REMARK    4  A    between atoms: C_6  and  C_7
REMARK    5  A    between atoms: C_11  and  O_12
REMARK    6  A    between atoms: O_12  and  C_13
REMARK    7  A    between atoms: C_13  and  C_14
REMARK    8  A    between atoms: C_20  and  C_22
REMARK                            x       y       z     vdW  Elec       q    Type
REMARK                         _______ _______ _______ _____ _____    ______ ____
ROOT
ATOM      1  C   UNL     1       1.734  10.111  18.112  0.00  0.00    +0.000 C 
ATOM      2  O   UNL     1       2.331  10.952  17.435  0.00  0.00    +0.000 OA
ATOM      3  N   UNL     1       0.850  10.490  19.120  0.00  0.00    +0.000 N 
ATOM      4  C   UNL     1       0.181   9.580  20.064  0.00  0.00    +0.000 C 
ATOM      5  C   UNL     1       0.175  10.143  21.494  0.00  0.00    +0.000 C 
ATOM      6  N   UNL     1      -0.342  11.510  21.518  0.00  0.00    +0.000 N 
ATOM      7  C   UNL     1      -1.284  11.837  22.500  0.00  0.00    +0.000 C 
ATOM      8  O   UNL     1      -1.620  10.990  23.325  0.00  0.00    +0.000 OA
ATOM      9  C   UNL     1       0.402  12.421  20.633  0.00  0.00    +0.000 C 
ATOM     10  C   UNL     1       0.396  11.889  19.189  0.00  0.00    +0.000 C 
ENDROOT
BRANCH   7  11
ATOM     11  C   UNL     1      -1.871  13.176  22.507  0.00  0.00    +0.000 A 
ATOM     12  C   UNL     1      -2.961  13.693  21.834  0.00  0.00    +0.000 A 
ATOM     13  C   UNL     1      -3.167  15.077  22.108  0.00  0.00    +0.000 A 
ATOM     14  C   UNL     1      -2.294  15.547  23.059  0.00  0.00    +0.000 A 
ATOM     15  S   UNL     1      -1.208  14.341  23.585  0.00  0.00    +0.000 S 
ENDBRANCH   7  11
BRANCH   1  16
ATOM     16  C   UNL     1       1.910   8.610  17.811  0.00  0.00    +0.000 C 
BRANCH  16  17
ATOM     17  O   UNL     1       3.239   8.148  17.989  0.00  0.00    +0.000 OA
BRANCH  17  23
ATOM     18  C   UNL     1       4.610   6.104  17.486  0.00  0.00    +0.000 A 
ATOM     19  C   UNL     1       4.610   4.700  17.495  0.00  0.00    +0.000 A 
ATOM     20  C   UNL     1       3.516   3.975  17.977  0.00  0.00    +0.000 A 
ATOM     21  C   UNL     1       2.398   4.651  18.455  0.00  0.00    +0.000 A 
ATOM     22  C   UNL     1       2.376   6.050  18.436  0.00  0.00    +0.000 A 
ATOM     23  C   UNL     1       3.469   6.791  17.951  0.00  0.00    +0.000 A 
BRANCH  20  24
ATOM     24  C   UNL     1       3.564   2.542  17.974  0.00  0.00    +0.000 C 
ATOM     25  N   UNL     1       3.597   1.383  18.005  0.00  0.00    +0.000 NA
ENDBRANCH  20  24
BRANCH  18  26
ATOM     26  O   UNL     1       5.681   6.828  17.033  0.00  0.00    +0.000 OA
BRANCH  26  28
ATOM     27  C   UNL     1       7.730   7.946  17.544  0.00  0.00    +0.000 C 
ATOM     28  C   UNL     1       6.944   6.654  17.674  0.00  0.00    +0.000 C 
ENDBRANCH  26  28
ENDBRANCH  18  26
ENDBRANCH  17  23
ENDBRANCH  16  17
ENDBRANCH   1  16
TORSDOF 7
ENDMDL
MODEL 8
REMARK VINA RESULT:      -6.9      1.570      1.965
REMARK  Name = 
REMARK  8 active torsions:
REMARK  status: ('A' for Active; 'I' for Inactive)
REMARK    1  A    between atoms: C_1  and  C_2
REMARK    2  A    between atoms: C_2  and  O_3
REMARK    3  A    between atoms: O_3  and  C_4
REMARK    4  A    between atoms: C_6  and  C_7
REMARK    5  A    between atoms: C_11  and  O_12
REMARK    6  A    between atoms: O_12  and  C_13
REMARK    7  A    between atoms: C_13  and  C_14
REMARK    8  A    between atoms: C_20  and  C_22
REMARK                            x       y       z     vdW  Elec       q    Type
REMARK                         _______ _______ _______ _____ _____    ______ ____
ROOT
ATOM      1  C   UNL     1       2.388   7.620  19.045  0.00  0.00    +0.000 C 
ATOM      2  O   UNL     1       2.816   8.025  17.962  0.00  0.00    +0.000 OA
ATOM      3  N   UNL     1       1.560   8.412  19.837  0.00  0.00    +0.000 N 
ATOM      4  C   UNL     1       1.092   8.081  21.193  0.00  0.00    +0.000 C 
ATOM      5  C   UNL     1       1.148   9.298  22.130  0.00  0.00    +0.000 C 
ATOM      6  N   UNL     1       0.474  10.450  21.535  0.00  0.00    +0.000 N 
ATOM      7  C   UNL     1      -0.409  11.181  22.337  0.00  0.00    +0.000 C 
ATOM      8  O   UNL     1      -0.564  10.861  23.514  0.00  0.00    +0.000 OA
ATOM      9  C   UNL     1       1.020  10.817  20.217  0.00  0.00    +0.000 C 
ATOM     10  C   UNL     1       0.948   9.619  19.254  0.00  0.00    +0.000 C 
ENDROOT
BRANCH   7  11
ATOM     11  C   UNL     1      -1.150  12.296  21.751  0.00  0.00    +0.000 A 
ATOM     12  C   UNL     1      -2.218  12.316  20.876  0.00  0.00    +0.000 A 
ATOM     13  C   UNL     1      -2.616  13.641  20.529  0.00  0.00    +0.000 A 
ATOM     14  C   UNL     1      -1.909  14.589  21.228  0.00  0.00    +0.000 A 
ATOM     15  S   UNL     1      -0.746  13.889  22.261  0.00  0.00    +0.000 S 
ENDBRANCH   7  11
BRANCH   1  16
ATOM     16  C   UNL     1       2.716   6.191  19.520  0.00  0.00    +0.000 C 
BRANCH  16  17
ATOM     17  O   UNL     1       4.075   5.831  19.338  0.00  0.00    +0.000 OA
BRANCH  17  23
ATOM     18  C   UNL     1       3.877   4.362  17.308  0.00  0.00    +0.000 A 
ATOM     19  C   UNL     1       4.479   4.015  16.089  0.00  0.00    +0.000 A 
ATOM     20  C   UNL     1       5.632   4.664  15.635  0.00  0.00    +0.000 A 
ATOM     21  C   UNL     1       6.204   5.672  16.406  0.00  0.00    +0.000 A 
ATOM     22  C   UNL     1       5.625   6.016  17.632  0.00  0.00    +0.000 A 
ATOM     23  C   UNL     1       4.467   5.370  18.101  0.00  0.00    +0.000 A 
BRANCH  20  24
ATOM     24  C   UNL     1       6.208   4.281  14.379  0.00  0.00    +0.000 C 
ATOM     25  N   UNL     1       6.644   3.958  13.354  0.00  0.00    +0.000 NA
ENDBRANCH  20  24
BRANCH  18  26
ATOM     26  O   UNL     1       2.738   3.748  17.758  0.00  0.00    +0.000 OA
BRANCH  26  28
ATOM     27  C   UNL     1       3.466   1.652  18.647  0.00  0.00    +0.000 C 
ATOM     28  C   UNL     1       2.613   2.336  17.594  0.00  0.00    +0.000 C 
ENDBRANCH  26  28
ENDBRANCH  18  26
ENDBRANCH  17  23
ENDBRANCH  16  17
ENDBRANCH   1  16
TORSDOF 7
ENDMDL
MODEL 9
REMARK VINA RESULT:      -6.8      1.982      3.199
REMARK  Name = 
REMARK  8 active torsions:
REMARK  status: ('A' for Active; 'I' for Inactive)
REMARK    1  A    between atoms: C_1  and  C_2
REMARK    2  A    between atoms: C_2  and  O_3
REMARK    3  A    between atoms: O_3  and  C_4
REMARK    4  A    between atoms: C_6  and  C_7
REMARK    5  A    between atoms: C_11  and  O_12
REMARK    6  A    between atoms: O_12  and  C_13
REMARK    7  A    between atoms: C_13  and  C_14
REMARK    8  A    between atoms: C_20  and  C_22
REMARK                            x       y       z     vdW  Elec       q    Type
REMARK                         _______ _______ _______ _____ _____    ______ ____
ROOT
ATOM      1  C   UNL     1       2.576   7.535  18.823  0.00  0.00    +0.000 C 
ATOM      2  O   UNL     1       2.892   8.001  17.725  0.00  0.00    +0.000 OA
ATOM      3  N   UNL     1       1.722   8.224  19.682  0.00  0.00    +0.000 N 
ATOM      4  C   UNL     1       1.376   7.823  21.055  0.00  0.00    +0.000 C 
ATOM      5  C   UNL     1       1.366   9.023  22.015  0.00  0.00    +0.000 C 
ATOM      6  N   UNL     1       0.542  10.109  21.489  0.00  0.00    +0.000 N 
ATOM      7  C   UNL     1      -0.359  10.731  22.360  0.00  0.00    +0.000 C 
ATOM      8  O   UNL     1      -0.407  10.377  23.536  0.00  0.00    +0.000 OA
ATOM      9  C   UNL     1       0.965  10.553  20.150  0.00  0.00    +0.000 C 
ATOM     10  C   UNL     1       0.956   9.371  19.165  0.00  0.00    +0.000 C 
ENDROOT
BRANCH   7  11
ATOM     11  C   UNL     1      -1.245  11.774  21.846  0.00  0.00    +0.000 A 
ATOM     12  C   UNL     1      -1.317  12.373  20.604  0.00  0.00    +0.000 A 
ATOM     13  C   UNL     1      -2.321  13.383  20.541  0.00  0.00    +0.000 A 
ATOM     14  C   UNL     1      -3.053  13.452  21.701  0.00  0.00    +0.000 A 
ATOM     15  S   UNL     1      -2.505  12.338  22.872  0.00  0.00    +0.000 S 
ENDBRANCH   7  11
BRANCH   1  16
ATOM     16  C   UNL     1       3.077   6.140  19.243  0.00  0.00    +0.000 C 
BRANCH  16  17
ATOM     17  O   UNL     1       4.485   5.993  19.158  0.00  0.00    +0.000 OA
BRANCH  17  23
ATOM     18  C   UNL     1       6.243   5.971  17.363  0.00  0.00    +0.000 A 
ATOM     19  C   UNL     1       6.579   5.453  16.102  0.00  0.00    +0.000 A 
ATOM     20  C   UNL     1       5.746   4.543  15.443  0.00  0.00    +0.000 A 
ATOM     21  C   UNL     1       4.556   4.140  16.041  0.00  0.00    +0.000 A 
ATOM     22  C   UNL     1       4.200   4.660  17.289  0.00  0.00    +0.000 A 
ATOM     23  C   UNL     1       5.026   5.580  17.961  0.00  0.00    +0.000 A 
BRANCH  20  24
ATOM     24  C   UNL     1       6.134   4.035  14.159  0.00  0.00    +0.000 C 
ATOM     25  N   UNL     1       6.460   3.654  13.113  0.00  0.00    +0.000 NA
ENDBRANCH  20  24
BRANCH  18  26
ATOM     26  O   UNL     1       7.056   6.850  18.027  0.00  0.00    +0.000 OA
BRANCH  26  28
ATOM     27  C   UNL     1       8.423   8.799  18.239  0.00  0.00    +0.000 C 
ATOM     28  C   UNL     1       7.366   8.097  17.406  0.00  0.00    +0.000 C 
ENDBRANCH  26  28
ENDBRANCH  18  26
ENDBRANCH  17  23
ENDBRANCH  16  17
ENDBRANCH   1  16
TORSDOF 7
ENDMDL
