MODEL 1
REMARK VINA RESULT:      -9.2      0.000      0.000
REMARK  Name = 
REMARK  5 active torsions:
REMARK  status: ('A' for Active; 'I' for Inactive)
REMARK    1  A    between atoms: C_2  and  C_3
REMARK    2  A    between atoms: C_3  and  S_4
REMARK    3  A    between atoms: S_4  and  C_5
REMARK    4  A    between atoms: C_7  and  C_8
REMARK    5  A    between atoms: N_25  and  C_26
REMARK                            x       y       z     vdW  Elec       q    Type
REMARK                         _______ _______ _______ _____ _____    ______ ____
ROOT
ATOM      1  C   UNL     1       6.266   5.449  17.688  0.00  0.00    +0.000 A 
ATOM      2  N   UNL     1       6.734   5.265  16.449  0.00  0.00    +0.000 NA
ATOM      3  C   UNL     1       6.023   4.508  15.600  0.00  0.00    +0.000 A 
ATOM      4  N   UNL     1       4.865   3.915  15.926  0.00  0.00    +0.000 NA
ATOM      5  C   UNL     1       4.426   4.104  17.190  0.00  0.00    +0.000 A 
ATOM      6  C   UNL     1       5.095   4.870  18.127  0.00  0.00    +0.000 A 
ATOM      7  C   UNL     1       4.574   5.053  19.508  0.00  0.00    +0.000 C 
ATOM      8  C   UNL     1       3.273   4.360  19.744  0.00  0.00    +0.000 A 
ATOM      9  C   UNL     1       2.656   4.452  21.001  0.00  0.00    +0.000 A 
ATOM     10  C   UNL     1       1.441   3.815  21.235  0.00  0.00    +0.000 A 
ATOM     11  C   UNL     1       0.835   3.086  20.212  0.00  0.00    +0.000 A 
ATOM     12  C   UNL     1       1.449   2.992  18.959  0.00  0.00    +0.000 A 
ATOM     13  C   UNL     1       2.671   3.626  18.723  0.00  0.00    +0.000 A 
ATOM     14  O   UNL     1       3.224   3.481  17.472  0.00  0.00    +0.000 OA
ENDROOT
BRANCH   3  15
ATOM     15  C   UNL     1       6.547   4.439  14.217  0.00  0.00    +0.000 A 
ATOM     16  C   UNL     1       7.543   5.348  13.786  0.00  0.00    +0.000 A 
ATOM     17  C   UNL     1       7.995   5.383  12.465  0.00  0.00    +0.000 A 
ATOM     18  C   UNL     1       7.474   4.495  11.536  0.00  0.00    +0.000 A 
ATOM     19  C   UNL     1       6.519   3.561  11.936  0.00  0.00    +0.000 A 
ATOM     20  C   UNL     1       6.065   3.530  13.263  0.00  0.00    +0.000 A 
ENDBRANCH   3  15
BRANCH   1  21
ATOM     21  S   UNL     1       7.241   6.538  18.731  0.00  0.00    +0.000 S 
BRANCH  21  22
ATOM     22  C   UNL     1       7.853   7.689  17.460  0.00  0.00    +0.000 C 
BRANCH  22  24
ATOM     23  O   UNL     1       7.484  10.027  17.564  0.00  0.00    +0.000 OA
ATOM     24  C   UNL     1       8.150   9.079  17.982  0.00  0.00    +0.000 C 
ATOM     25  N   UNL     1       9.122   9.153  18.966  0.00  0.00    +0.000 N 
ATOM     26  H   UNL     1       9.715   8.336  19.064  0.00  0.00    +0.000 HD
BRANCH  25  27
ATOM     27  C   UNL     1       9.505  10.315  19.668  0.00  0.00    +0.000 A 
ATOM     28  C   UNL     1       8.964  10.673  20.905  0.00  0.00    +0.000 A 
ATOM     29  C   UNL     1       9.325  11.872  21.521  0.00  0.00    +0.000 A 
ATOM     30  C   UNL     1      10.243  12.722  20.911  0.00  0.00    +0.000 A 
ATOM     31  C   UNL     1      10.827  12.352  19.701  0.00  0.00    +0.000 A 
ATOM     32  C   UNL     1      10.469  11.147  19.087  0.00  0.00    +0.000 A 
ENDBRANCH  25  27
ENDBRANCH  22  24
ENDBRANCH  21  22
ENDBRANCH   1  21
TORSDOF 5
ENDMDL
MODEL 2
REMARK VINA RESULT:      -9.2      1.004      1.037
REMARK  Name = 
REMARK  5 active torsions:
REMARK  status: ('A' for Active; 'I' for Inactive)
REMARK    1  A    between atoms: C_2  and  C_3
REMARK    2  A    between atoms: C_3  and  S_4
REMARK    3  A    between atoms: S_4  and  C_5
REMARK    4  A    between atoms: C_7  and  C_8
REMARK    5  A    between atoms: N_25  and  C_26
REMARK                            x       y       z     vdW  Elec       q    Type
REMARK                         _______ _______ _______ _____ _____    ______ ____
ROOT
ATOM      1  C   UNL     1       5.255   6.061  17.222  0.00  0.00    +0.000 A 
ATOM      2  N   UNL     1       5.823   5.752  16.052  0.00  0.00    +0.000 NA
ATOM      3  C   UNL     1       5.579   4.545  15.519  0.00  0.00    +0.000 A 
ATOM      4  N   UNL     1       4.801   3.620  16.100  0.00  0.00    +0.000 NA
ATOM      5  C   UNL     1       4.257   3.954  17.292  0.00  0.00    +0.000 A 
ATOM      6  C   UNL     1       4.453   5.176  17.909  0.00  0.00    +0.000 A 
ATOM      7  C   UNL     1       3.832   5.502  19.220  0.00  0.00    +0.000 C 
ATOM      8  C   UNL     1       2.977   4.402  19.757  0.00  0.00    +0.000 A 
ATOM      9  C   UNL     1       2.319   4.571  20.985  0.00  0.00    +0.000 A 
ATOM     10  C   UNL     1       1.515   3.557  21.496  0.00  0.00    +0.000 A 
ATOM     11  C   UNL     1       1.362   2.370  20.781  0.00  0.00    +0.000 A 
ATOM     12  C   UNL     1       2.018   2.198  19.558  0.00  0.00    +0.000 A 
ATOM     13  C   UNL     1       2.830   3.212  19.045  0.00  0.00    +0.000 A 
ATOM     14  O   UNL     1       3.455   2.971  17.844  0.00  0.00    +0.000 OA
ENDROOT
BRANCH   3  15
ATOM     15  C   UNL     1       6.151   4.316  14.173  0.00  0.00    +0.000 A 
ATOM     16  C   UNL     1       7.281   5.053  13.745  0.00  0.00    +0.000 A 
ATOM     17  C   UNL     1       7.795   4.941  12.450  0.00  0.00    +0.000 A 
ATOM     18  C   UNL     1       7.199   4.072  11.548  0.00  0.00    +0.000 A 
ATOM     19  C   UNL     1       6.107   3.303  11.948  0.00  0.00    +0.000 A 
ATOM     20  C   UNL     1       5.592   3.420  13.248  0.00  0.00    +0.000 A 
ENDBRANCH   3  15
BRANCH   1  21
ATOM     21  S   UNL     1       5.572   7.723  17.822  0.00  0.00    +0.000 S 
BRANCH  21  22
ATOM     22  C   UNL     1       7.252   7.957  17.160  0.00  0.00    +0.000 C 
BRANCH  22  24
ATOM     23  O   UNL     1       8.768   7.788  18.972  0.00  0.00    +0.000 OA
ATOM     24  C   UNL     1       8.231   8.539  18.158  0.00  0.00    +0.000 C 
ATOM     25  N   UNL     1       8.500   9.889  18.012  0.00  0.00    +0.000 N 
ATOM     26  H   UNL     1       7.846  10.412  17.439  0.00  0.00    +0.000 HD
BRANCH  25  27
ATOM     27  C   UNL     1       9.440  10.633  18.757  0.00  0.00    +0.000 A 
ATOM     28  C   UNL     1       9.300  10.890  20.123  0.00  0.00    +0.000 A 
ATOM     29  C   UNL     1      10.222  11.694  20.795  0.00  0.00    +0.000 A 
ATOM     30  C   UNL     1      11.303  12.240  20.110  0.00  0.00    +0.000 A 
ATOM     31  C   UNL     1      11.481  11.950  18.758  0.00  0.00    +0.000 A 
ATOM     32  C   UNL     1      10.559  11.139  18.086  0.00  0.00    +0.000 A 
ENDBRANCH  25  27
ENDBRANCH  22  24
ENDBRANCH  21  22
ENDBRANCH   1  21
TORSDOF 5
ENDMDL
MODEL 3
REMARK VINA RESULT:      -9.1      0.646      1.316
REMARK  Name = 
REMARK  5 active torsions:
REMARK  status: ('A' for Active; 'I' for Inactive)
REMARK    1  A    between atoms: C_2  and  C_3
REMARK    2  A    between atoms: C_3  and  S_4
REMARK    3  A    between atoms: S_4  and  C_5
REMARK    4  A    between atoms: C_7  and  C_8
REMARK    5  A    between atoms: N_25  and  C_26
REMARK                            x       y       z     vdW  Elec       q    Type
REMARK                         _______ _______ _______ _____ _____    ______ ____
ROOT
ATOM      1  C   UNL     1       6.077   5.106  17.893  0.00  0.00    +0.000 A 
ATOM      2  N   UNL     1       6.548   5.033  16.644  0.00  0.00    +0.000 NA
ATOM      3  C   UNL     1       5.817   4.391  15.719  0.00  0.00    +0.000 A 
ATOM      4  N   UNL     1       4.638   3.808  15.979  0.00  0.00    +0.000 NA
ATOM      5  C   UNL     1       4.197   3.881  17.254  0.00  0.00    +0.000 A 
ATOM      6  C   UNL     1       4.885   4.525  18.267  0.00  0.00    +0.000 A 
ATOM      7  C   UNL     1       4.361   4.585  19.657  0.00  0.00    +0.000 C 
ATOM      8  C   UNL     1       3.036   3.915  19.817  0.00  0.00    +0.000 A 
ATOM      9  C   UNL     1       2.413   3.899  21.074  0.00  0.00    +0.000 A 
ATOM     10  C   UNL     1       1.176   3.283  21.238  0.00  0.00    +0.000 A 
ATOM     11  C   UNL     1       0.554   2.683  20.144  0.00  0.00    +0.000 A 
ATOM     12  C   UNL     1       1.173   2.697  18.890  0.00  0.00    +0.000 A 
ATOM     13  C   UNL     1       2.416   3.309  18.724  0.00  0.00    +0.000 A 
ATOM     14  O   UNL     1       2.973   3.274  17.467  0.00  0.00    +0.000 OA
ENDROOT
BRANCH   3  15
ATOM     15  C   UNL     1       6.348   4.445  14.338  0.00  0.00    +0.000 A 
ATOM     16  C   UNL     1       5.835   3.580  13.343  0.00  0.00    +0.000 A 
ATOM     17  C   UNL     1       6.372   3.527  12.054  0.00  0.00    +0.000 A 
ATOM     18  C   UNL     1       7.433   4.355  11.718  0.00  0.00    +0.000 A 
ATOM     19  C   UNL     1       7.939   5.246  12.663  0.00  0.00    +0.000 A 
ATOM     20  C   UNL     1       7.399   5.295  13.957  0.00  0.00    +0.000 A 
ENDBRANCH   3  15
BRANCH   1  21
ATOM     21  S   UNL     1       7.081   6.049  19.045  0.00  0.00    +0.000 S 
BRANCH  21  22
ATOM     22  C   UNL     1       8.116   6.958  17.854  0.00  0.00    +0.000 C 
BRANCH  22  24
ATOM     23  O   UNL     1       7.159   9.096  17.503  0.00  0.00    +0.000 OA
ATOM     24  C   UNL     1       8.075   8.462  18.027  0.00  0.00    +0.000 C 
ATOM     25  N   UNL     1       9.057   8.996  18.843  0.00  0.00    +0.000 N 
ATOM     26  H   UNL     1       9.847   8.392  19.039  0.00  0.00    +0.000 HD
BRANCH  25  27
ATOM     27  C   UNL     1       9.171  10.349  19.228  0.00  0.00    +0.000 A 
ATOM     28  C   UNL     1       9.201  11.403  18.311  0.00  0.00    +0.000 A 
ATOM     29  C   UNL     1       9.390  12.717  18.742  0.00  0.00    +0.000 A 
ATOM     30  C   UNL     1       9.537  12.993  20.098  0.00  0.00    +0.000 A 
ATOM     31  C   UNL     1       9.458  11.956  21.026  0.00  0.00    +0.000 A 
ATOM     32  C   UNL     1       9.263  10.640  20.594  0.00  0.00    +0.000 A 
ENDBRANCH  25  27
ENDBRANCH  22  24
ENDBRANCH  21  22
ENDBRANCH   1  21
TORSDOF 5
ENDMDL
MODEL 4
REMARK VINA RESULT:      -9.0      1.226      1.399
REMARK  Name = 
REMARK  5 active torsions:
REMARK  status: ('A' for Active; 'I' for Inactive)
REMARK    1  A    between atoms: C_2  and  C_3
REMARK    2  A    between atoms: C_3  and  S_4
REMARK    3  A    between atoms: S_4  and  C_5
REMARK    4  A    between atoms: C_7  and  C_8
REMARK    5  A    between atoms: N_25  and  C_26
REMARK                            x       y       z     vdW  Elec       q    Type
REMARK                         _______ _______ _______ _____ _____    ______ ____
ROOT
ATOM      1  C   UNL     1       6.396   5.356  17.576  0.00  0.00    +0.000 A 
ATOM      2  N   UNL     1       6.840   5.166  16.330  0.00  0.00    +0.000 NA
ATOM      3  C   UNL     1       6.065   4.488  15.469  0.00  0.00    +0.000 A 
ATOM      4  N   UNL     1       4.867   3.979  15.792  0.00  0.00    +0.000 NA
ATOM      5  C   UNL     1       4.453   4.170  17.065  0.00  0.00    +0.000 A 
ATOM      6  C   UNL     1       5.187   4.860  18.013  0.00  0.00    +0.000 A 
ATOM      7  C   UNL     1       4.692   5.050  19.402  0.00  0.00    +0.000 C 
ATOM      8  C   UNL     1       3.343   4.455  19.634  0.00  0.00    +0.000 A 
ATOM      9  C   UNL     1       2.743   4.564  20.898  0.00  0.00    +0.000 A 
ATOM     10  C   UNL     1       1.484   4.018  21.128  0.00  0.00    +0.000 A 
ATOM     11  C   UNL     1       0.816   3.363  20.095  0.00  0.00    +0.000 A 
ATOM     12  C   UNL     1       1.411   3.252  18.834  0.00  0.00    +0.000 A 
ATOM     13  C   UNL     1       2.677   3.794  18.602  0.00  0.00    +0.000 A 
ATOM     14  O   UNL     1       3.208   3.637  17.342  0.00  0.00    +0.000 OA
ENDROOT
BRANCH   3  15
ATOM     15  C   UNL     1       6.572   4.411  14.081  0.00  0.00    +0.000 A 
ATOM     16  C   UNL     1       7.548   5.329  13.627  0.00  0.00    +0.000 A 
ATOM     17  C   UNL     1       7.984   5.357  12.300  0.00  0.00    +0.000 A 
ATOM     18  C   UNL     1       7.463   4.450  11.387  0.00  0.00    +0.000 A 
ATOM     19  C   UNL     1       6.527   3.507  11.809  0.00  0.00    +0.000 A 
ATOM     20  C   UNL     1       6.090   3.484  13.142  0.00  0.00    +0.000 A 
ENDBRANCH   3  15
BRANCH   1  21
ATOM     21  S   UNL     1       7.461   6.340  18.635  0.00  0.00    +0.000 S 
BRANCH  21  22
ATOM     22  C   UNL     1       7.519   7.870  17.651  0.00  0.00    +0.000 C 
BRANCH  22  24
ATOM     23  O   UNL     1       9.023   8.711  19.276  0.00  0.00    +0.000 OA
ATOM     24  C   UNL     1       8.374   8.961  18.260  0.00  0.00    +0.000 C 
ATOM     25  N   UNL     1       8.410  10.154  17.558  0.00  0.00    +0.000 N 
ATOM     26  H   UNL     1       7.682  10.280  16.863  0.00  0.00    +0.000 HD
BRANCH  25  27
ATOM     27  C   UNL     1       9.202  11.279  17.873  0.00  0.00    +0.000 A 
ATOM     28  C   UNL     1      10.598  11.271  17.809  0.00  0.00    +0.000 A 
ATOM     29  C   UNL     1      11.335  12.389  18.202  0.00  0.00    +0.000 A 
ATOM     30  C   UNL     1      10.683  13.533  18.652  0.00  0.00    +0.000 A 
ATOM     31  C   UNL     1       9.290  13.569  18.674  0.00  0.00    +0.000 A 
ATOM     32  C   UNL     1       8.551  12.451  18.274  0.00  0.00    +0.000 A 
ENDBRANCH  25  27
ENDBRANCH  22  24
ENDBRANCH  21  22
ENDBRANCH   1  21
TORSDOF 5
ENDMDL
MODEL 5
REMARK VINA RESULT:      -8.9      1.705      5.940
REMARK  Name = 
REMARK  5 active torsions:
REMARK  status: ('A' for Active; 'I' for Inactive)
REMARK    1  A    between atoms: C_2  and  C_3
REMARK    2  A    between atoms: C_3  and  S_4
REMARK    3  A    between atoms: S_4  and  C_5
REMARK    4  A    between atoms: C_7  and  C_8
REMARK    5  A    between atoms: N_25  and  C_26
REMARK                            x       y       z     vdW  Elec       q    Type
REMARK                         _______ _______ _______ _____ _____    ______ ____
ROOT
ATOM      1  C   UNL     1       6.434   5.546  17.940  0.00  0.00    +0.000 A 
ATOM      2  N   UNL     1       5.512   5.264  18.865  0.00  0.00    +0.000 NA
ATOM      3  C   UNL     1       4.451   4.524  18.509  0.00  0.00    +0.000 A 
ATOM      4  N   UNL     1       4.256   4.056  17.267  0.00  0.00    +0.000 NA
ATOM      5  C   UNL     1       5.195   4.374  16.349  0.00  0.00    +0.000 A 
ATOM      6  C   UNL     1       6.319   5.128  16.632  0.00  0.00    +0.000 A 
ATOM      7  C   UNL     1       7.330   5.452  15.590  0.00  0.00    +0.000 C 
ATOM      8  C   UNL     1       7.011   4.863  14.256  0.00  0.00    +0.000 A 
ATOM      9  C   UNL     1       7.881   5.078  13.176  0.00  0.00    +0.000 A 
ATOM     10  C   UNL     1       7.600   4.531  11.928  0.00  0.00    +0.000 A 
ATOM     11  C   UNL     1       6.450   3.763  11.754  0.00  0.00    +0.000 A 
ATOM     12  C   UNL     1       5.581   3.547  12.828  0.00  0.00    +0.000 A 
ATOM     13  C   UNL     1       5.857   4.100  14.080  0.00  0.00    +0.000 A 
ATOM     14  O   UNL     1       4.953   3.858  15.088  0.00  0.00    +0.000 OA
ENDROOT
BRANCH   3  15
ATOM     15  C   UNL     1       3.530   4.160  19.609  0.00  0.00    +0.000 A 
ATOM     16  C   UNL     1       3.682   2.927  20.287  0.00  0.00    +0.000 A 
ATOM     17  C   UNL     1       2.779   2.499  21.263  0.00  0.00    +0.000 A 
ATOM     18  C   UNL     1       1.701   3.305  21.602  0.00  0.00    +0.000 A 
ATOM     19  C   UNL     1       1.543   4.543  20.981  0.00  0.00    +0.000 A 
ATOM     20  C   UNL     1       2.450   4.968  19.999  0.00  0.00    +0.000 A 
ENDBRANCH   3  15
BRANCH   1  21
ATOM     21  S   UNL     1       7.857   6.474  18.523  0.00  0.00    +0.000 S 
BRANCH  21  22
ATOM     22  C   UNL     1       7.504   8.076  17.735  0.00  0.00    +0.000 C 
BRANCH  22  24
ATOM     23  O   UNL     1       9.084   9.022  19.226  0.00  0.00    +0.000 OA
ATOM     24  C   UNL     1       8.355   9.217  18.253  0.00  0.00    +0.000 C 
ATOM     25  N   UNL     1       8.290  10.390  17.521  0.00  0.00    +0.000 N 
ATOM     26  H   UNL     1       7.511  10.468  16.877  0.00  0.00    +0.000 HD
BRANCH  25  27
ATOM     27  C   UNL     1       9.055  11.554  17.749  0.00  0.00    +0.000 A 
ATOM     28  C   UNL     1      10.449  11.546  17.840  0.00  0.00    +0.000 A 
ATOM     29  C   UNL     1      11.151  12.714  18.141  0.00  0.00    +0.000 A 
ATOM     30  C   UNL     1      10.465  13.908  18.343  0.00  0.00    +0.000 A 
ATOM     31  C   UNL     1       9.079  13.939  18.206  0.00  0.00    +0.000 A 
ATOM     32  C   UNL     1       8.376  12.769  17.898  0.00  0.00    +0.000 A 
ENDBRANCH  25  27
ENDBRANCH  22  24
ENDBRANCH  21  22
ENDBRANCH   1  21
TORSDOF 5
ENDMDL
MODEL 6
REMARK VINA RESULT:      -8.8      1.707      5.911
REMARK  Name = 
REMARK  5 active torsions:
REMARK  status: ('A' for Active; 'I' for Inactive)
REMARK    1  A    between atoms: C_2  and  C_3
REMARK    2  A    between atoms: C_3  and  S_4
REMARK    3  A    between atoms: S_4  and  C_5
REMARK    4  A    between atoms: C_7  and  C_8
REMARK    5  A    between atoms: N_25  and  C_26
REMARK                            x       y       z     vdW  Elec       q    Type
REMARK                         _______ _______ _______ _____ _____    ______ ____
ROOT
ATOM      1  C   UNL     1       6.304   5.367  17.935  0.00  0.00    +0.000 A 
ATOM      2  N   UNL     1       5.362   5.042  18.825  0.00  0.00    +0.000 NA
ATOM      3  C   UNL     1       4.320   4.301  18.415  0.00  0.00    +0.000 A 
ATOM      4  N   UNL     1       4.165   3.873  17.154  0.00  0.00    +0.000 NA
ATOM      5  C   UNL     1       5.124   4.235  16.272  0.00  0.00    +0.000 A 
ATOM      6  C   UNL     1       6.230   4.992  16.612  0.00  0.00    +0.000 A 
ATOM      7  C   UNL     1       7.264   5.364  15.609  0.00  0.00    +0.000 C 
ATOM      8  C   UNL     1       6.990   4.816  14.248  0.00  0.00    +0.000 A 
ATOM      9  C   UNL     1       7.885   5.079  13.200  0.00  0.00    +0.000 A 
ATOM     10  C   UNL     1       7.646   4.572  11.927  0.00  0.00    +0.000 A 
ATOM     11  C   UNL     1       6.511   3.796  11.695  0.00  0.00    +0.000 A 
ATOM     12  C   UNL     1       5.616   3.533  12.738  0.00  0.00    +0.000 A 
ATOM     13  C   UNL     1       5.851   4.046  14.015  0.00  0.00    +0.000 A 
ATOM     14  O   UNL     1       4.923   3.759  14.989  0.00  0.00    +0.000 OA
ENDROOT
BRANCH   3  15
ATOM     15  C   UNL     1       3.375   3.889  19.477  0.00  0.00    +0.000 A 
ATOM     16  C   UNL     1       2.191   4.631  19.705  0.00  0.00    +0.000 A 
ATOM     17  C   UNL     1       1.321   4.338  20.757  0.00  0.00    +0.000 A 
ATOM     18  C   UNL     1       1.603   3.278  21.607  0.00  0.00    +0.000 A 
ATOM     19  C   UNL     1       2.741   2.503  21.389  0.00  0.00    +0.000 A 
ATOM     20  C   UNL     1       3.614   2.802  20.332  0.00  0.00    +0.000 A 
ENDBRANCH   3  15
BRANCH   1  21
ATOM     21  S   UNL     1       7.699   6.292  18.588  0.00  0.00    +0.000 S 
BRANCH  21  22
ATOM     22  C   UNL     1       7.456   7.858  17.692  0.00  0.00    +0.000 C 
BRANCH  22  24
ATOM     23  O   UNL     1       9.043   8.804  19.174  0.00  0.00    +0.000 OA
ATOM     24  C   UNL     1       8.289   9.006  18.222  0.00  0.00    +0.000 C 
ATOM     25  N   UNL     1       8.181  10.195  17.522  0.00  0.00    +0.000 N 
ATOM     26  H   UNL     1       7.387  10.270  16.896  0.00  0.00    +0.000 HD
BRANCH  25  27
ATOM     27  C   UNL     1       8.923  11.371  17.765  0.00  0.00    +0.000 A 
ATOM     28  C   UNL     1       8.332  12.629  17.911  0.00  0.00    +0.000 A 
ATOM     29  C   UNL     1       9.118  13.771  18.077  0.00  0.00    +0.000 A 
ATOM     30  C   UNL     1      10.505  13.664  18.109  0.00  0.00    +0.000 A 
ATOM     31  C   UNL     1      11.104  12.410  18.014  0.00  0.00    +0.000 A 
ATOM     32  C   UNL     1      10.315  11.265  17.855  0.00  0.00    +0.000 A 
ENDBRANCH  25  27
ENDBRANCH  22  24
ENDBRANCH  21  22
ENDBRANCH   1  21
TORSDOF 5
ENDMDL
MODEL 7
REMARK VINA RESULT:      -8.7      1.097      5.745
REMARK  Name = 
REMARK  5 active torsions:
REMARK  status: ('A' for Active; 'I' for Inactive)
REMARK    1  A    between atoms: C_2  and  C_3
REMARK    2  A    between atoms: C_3  and  S_4
REMARK    3  A    between atoms: S_4  and  C_5
REMARK    4  A    between atoms: C_7  and  C_8
REMARK    5  A    between atoms: N_25  and  C_26
REMARK                            x       y       z     vdW  Elec       q    Type
REMARK                         _______ _______ _______ _____ _____    ______ ____
ROOT
ATOM      1  C   UNL     1       6.204   5.478  18.163  0.00  0.00    +0.000 A 
ATOM      2  N   UNL     1       5.246   5.143  19.033  0.00  0.00    +0.000 NA
ATOM      3  C   UNL     1       4.228   4.380  18.605  0.00  0.00    +0.000 A 
ATOM      4  N   UNL     1       4.111   3.939  17.344  0.00  0.00    +0.000 NA
ATOM      5  C   UNL     1       5.084   4.310  16.483  0.00  0.00    +0.000 A 
ATOM      6  C   UNL     1       6.168   5.090  16.841  0.00  0.00    +0.000 A 
ATOM      7  C   UNL     1       7.219   5.472  15.860  0.00  0.00    +0.000 C 
ATOM      8  C   UNL     1       6.987   4.908  14.498  0.00  0.00    +0.000 A 
ATOM      9  C   UNL     1       7.903   5.178  13.469  0.00  0.00    +0.000 A 
ATOM     10  C   UNL     1       7.703   4.655  12.195  0.00  0.00    +0.000 A 
ATOM     11  C   UNL     1       6.588   3.856  11.944  0.00  0.00    +0.000 A 
ATOM     12  C   UNL     1       5.673   3.586  12.968  0.00  0.00    +0.000 A 
ATOM     13  C   UNL     1       5.868   4.114  14.245  0.00  0.00    +0.000 A 
ATOM     14  O   UNL     1       4.923   3.819  15.200  0.00  0.00    +0.000 OA
ENDROOT
BRANCH   3  15
ATOM     15  C   UNL     1       3.265   3.960  19.648  0.00  0.00    +0.000 A 
ATOM     16  C   UNL     1       3.618   2.955  20.579  0.00  0.00    +0.000 A 
ATOM     17  C   UNL     1       2.709   2.458  21.517  0.00  0.00    +0.000 A 
ATOM     18  C   UNL     1       1.419   2.968  21.560  0.00  0.00    +0.000 A 
ATOM     19  C   UNL     1       1.050   3.986  20.682  0.00  0.00    +0.000 A 
ATOM     20  C   UNL     1       1.965   4.480  19.740  0.00  0.00    +0.000 A 
ENDBRANCH   3  15
BRANCH   1  21
ATOM     21  S   UNL     1       7.565   6.434  18.840  0.00  0.00    +0.000 S 
BRANCH  21  22
ATOM     22  C   UNL     1       7.751   7.662  17.509  0.00  0.00    +0.000 C 
BRANCH  22  24
ATOM     23  O   UNL     1       7.430  10.007  17.588  0.00  0.00    +0.000 OA
ATOM     24  C   UNL     1       8.091   9.053  17.999  0.00  0.00    +0.000 C 
ATOM     25  N   UNL     1       9.096   9.122  18.949  0.00  0.00    +0.000 N 
ATOM     26  H   UNL     1       9.676   8.296  19.041  0.00  0.00    +0.000 HD
BRANCH  25  27
ATOM     27  C   UNL     1       9.525  10.288  19.620  0.00  0.00    +0.000 A 
ATOM     28  C   UNL     1       9.018  10.684  20.860  0.00  0.00    +0.000 A 
ATOM     29  C   UNL     1       9.424  11.885  21.445  0.00  0.00    +0.000 A 
ATOM     30  C   UNL     1      10.351  12.697  20.800  0.00  0.00    +0.000 A 
ATOM     31  C   UNL     1      10.901  12.289  19.586  0.00  0.00    +0.000 A 
ATOM     32  C   UNL     1      10.498  11.082  19.004  0.00  0.00    +0.000 A 
ENDBRANCH  25  27
ENDBRANCH  22  24
ENDBRANCH  21  22
ENDBRANCH   1  21
TORSDOF 5
ENDMDL
MODEL 8
REMARK VINA RESULT:      -8.6      1.179      5.830
REMARK  Name = 
REMARK  5 active torsions:
REMARK  status: ('A' for Active; 'I' for Inactive)
REMARK    1  A    between atoms: C_2  and  C_3
REMARK    2  A    between atoms: C_3  and  S_4
REMARK    3  A    between atoms: S_4  and  C_5
REMARK    4  A    between atoms: C_7  and  C_8
REMARK    5  A    between atoms: N_25  and  C_26
REMARK                            x       y       z     vdW  Elec       q    Type
REMARK                         _______ _______ _______ _____ _____    ______ ____
ROOT
ATOM      1  C   UNL     1       6.414   5.745  17.856  0.00  0.00    +0.000 A 
ATOM      2  N   UNL     1       5.535   5.419  18.810  0.00  0.00    +0.000 NA
ATOM      3  C   UNL     1       4.554   4.554  18.509  0.00  0.00    +0.000 A 
ATOM      4  N   UNL     1       4.397   4.001  17.298  0.00  0.00    +0.000 NA
ATOM      5  C   UNL     1       5.289   4.365  16.349  0.00  0.00    +0.000 A 
ATOM      6  C   UNL     1       6.331   5.246  16.575  0.00  0.00    +0.000 A 
ATOM      7  C   UNL     1       7.292   5.616  15.502  0.00  0.00    +0.000 C 
ATOM      8  C   UNL     1       7.024   4.924  14.206  0.00  0.00    +0.000 A 
ATOM      9  C   UNL     1       7.857   5.169  13.104  0.00  0.00    +0.000 A 
ATOM     10  C   UNL     1       7.623   4.529  11.891  0.00  0.00    +0.000 A 
ATOM     11  C   UNL     1       6.558   3.637  11.775  0.00  0.00    +0.000 A 
ATOM     12  C   UNL     1       5.726   3.391  12.873  0.00  0.00    +0.000 A 
ATOM     13  C   UNL     1       5.955   4.037  14.089  0.00  0.00    +0.000 A 
ATOM     14  O   UNL     1       5.090   3.758  15.122  0.00  0.00    +0.000 OA
ENDROOT
BRANCH   3  15
ATOM     15  C   UNL     1       3.686   4.157  19.641  0.00  0.00    +0.000 A 
ATOM     16  C   UNL     1       3.792   2.861  20.200  0.00  0.00    +0.000 A 
ATOM     17  C   UNL     1       2.929   2.410  21.201  0.00  0.00    +0.000 A 
ATOM     18  C   UNL     1       1.941   3.255  21.688  0.00  0.00    +0.000 A 
ATOM     19  C   UNL     1       1.833   4.551  21.187  0.00  0.00    +0.000 A 
ATOM     20  C   UNL     1       2.700   4.999  20.179  0.00  0.00    +0.000 A 
ENDBRANCH   3  15
BRANCH   1  21
ATOM     21  S   UNL     1       7.737   6.846  18.367  0.00  0.00    +0.000 S 
BRANCH  21  22
ATOM     22  C   UNL     1       7.291   8.313  17.387  0.00  0.00    +0.000 C 
BRANCH  22  24
ATOM     23  O   UNL     1       7.693  10.646  17.287  0.00  0.00    +0.000 OA
ATOM     24  C   UNL     1       8.007   9.578  17.812  0.00  0.00    +0.000 C 
ATOM     25  N   UNL     1       8.926   9.428  18.837  0.00  0.00    +0.000 N 
ATOM     26  H   UNL     1       9.222   8.477  19.032  0.00  0.00    +0.000 HD
BRANCH  25  27
ATOM     27  C   UNL     1       9.646  10.467  19.465  0.00  0.00    +0.000 A 
ATOM     28  C   UNL     1      10.820  11.010  18.935  0.00  0.00    +0.000 A 
ATOM     29  C   UNL     1      11.533  11.985  19.634  0.00  0.00    +0.000 A 
ATOM     30  C   UNL     1      11.072  12.438  20.867  0.00  0.00    +0.000 A 
ATOM     31  C   UNL     1       9.877  11.939  21.382  0.00  0.00    +0.000 A 
ATOM     32  C   UNL     1       9.159  10.966  20.678  0.00  0.00    +0.000 A 
ENDBRANCH  25  27
ENDBRANCH  22  24
ENDBRANCH  21  22
ENDBRANCH   1  21
TORSDOF 5
ENDMDL
MODEL 9
REMARK VINA RESULT:      -8.4      4.189      5.250
REMARK  Name = 
REMARK  5 active torsions:
REMARK  status: ('A' for Active; 'I' for Inactive)
REMARK    1  A    between atoms: C_2  and  C_3
REMARK    2  A    between atoms: C_3  and  S_4
REMARK    3  A    between atoms: S_4  and  C_5
REMARK    4  A    between atoms: C_7  and  C_8
REMARK    5  A    between atoms: N_25  and  C_26
REMARK                            x       y       z     vdW  Elec       q    Type
REMARK                         _______ _______ _______ _____ _____    ______ ____
ROOT
ATOM      1  C   UNL     1       4.489   6.354  17.100  0.00  0.00    +0.000 A 
ATOM      2  N   UNL     1       5.147   6.080  15.969  0.00  0.00    +0.000 NA
ATOM      3  C   UNL     1       5.299   4.796  15.610  0.00  0.00    +0.000 A 
ATOM      4  N   UNL     1       4.834   3.764  16.330  0.00  0.00    +0.000 NA
ATOM      5  C   UNL     1       4.191   4.072  17.479  0.00  0.00    +0.000 A 
ATOM      6  C   UNL     1       3.988   5.367  17.920  0.00  0.00    +0.000 A 
ATOM      7  C   UNL     1       3.271   5.660  19.189  0.00  0.00    +0.000 C 
ATOM      8  C   UNL     1       2.788   4.434  19.891  0.00  0.00    +0.000 A 
ATOM      9  C   UNL     1       2.086   4.556  21.100  0.00  0.00    +0.000 A 
ATOM     10  C   UNL     1       1.626   3.422  21.763  0.00  0.00    +0.000 A 
ATOM     11  C   UNL     1       1.862   2.161  21.219  0.00  0.00    +0.000 A 
ATOM     12  C   UNL     1       2.563   2.036  20.014  0.00  0.00    +0.000 A 
ATOM     13  C   UNL     1       3.030   3.171  19.350  0.00  0.00    +0.000 A 
ATOM     14  O   UNL     1       3.722   2.974  18.177  0.00  0.00    +0.000 OA
ENDROOT
BRANCH   3  15
ATOM     15  C   UNL     1       5.940   4.574  14.295  0.00  0.00    +0.000 A 
ATOM     16  C   UNL     1       5.376   3.662  13.372  0.00  0.00    +0.000 A 
ATOM     17  C   UNL     1       5.998   3.348  12.161  0.00  0.00    +0.000 A 
ATOM     18  C   UNL     1       7.201   3.954  11.830  0.00  0.00    +0.000 A 
ATOM     19  C   UNL     1       7.766   4.886  12.699  0.00  0.00    +0.000 A 
ATOM     20  C   UNL     1       7.140   5.197  13.916  0.00  0.00    +0.000 A 
ENDBRANCH   3  15
BRANCH   1  21
ATOM     21  S   UNL     1       4.264   8.099  17.462  0.00  0.00    +0.000 S 
BRANCH  21  22
ATOM     22  C   UNL     1       2.445   8.165  17.463  0.00  0.00    +0.000 C 
BRANCH  22  24
ATOM     23  O   UNL     1       1.868  10.338  18.208  0.00  0.00    +0.000 OA
ATOM     24  C   UNL     1       1.866   9.135  18.471  0.00  0.00    +0.000 C 
ATOM     25  N   UNL     1       1.302   8.560  19.597  0.00  0.00    +0.000 N 
ATOM     26  H   UNL     1       1.547   7.592  19.770  0.00  0.00    +0.000 HD
BRANCH  25  27
ATOM     27  C   UNL     1       0.621   9.246  20.626  0.00  0.00    +0.000 A 
ATOM     28  C   UNL     1      -0.261  10.303  20.386  0.00  0.00    +0.000 A 
ATOM     29  C   UNL     1      -0.850  10.994  21.446  0.00  0.00    +0.000 A 
ATOM     30  C   UNL     1      -0.572  10.628  22.759  0.00  0.00    +0.000 A 
ATOM     31  C   UNL     1       0.267   9.544  23.010  0.00  0.00    +0.000 A 
ATOM     32  C   UNL     1       0.852   8.847  21.947  0.00  0.00    +0.000 A 
ENDBRANCH  25  27
ENDBRANCH  22  24
ENDBRANCH  21  22
ENDBRANCH   1  21
TORSDOF 5
ENDMDL
