MODEL 1
REMARK VINA RESULT:      -6.2      0.000      0.000
REMARK  Name = 
REMARK  1 active torsions:
REMARK  status: ('A' for Active; 'I' for Inactive)
REMARK    1  A    between atoms: N_6  and  C_7
REMARK                            x       y       z     vdW  Elec       q    Type
REMARK                         _______ _______ _______ _____ _____    ______ ____
ROOT
ATOM      1  N   UNL     1       8.145   5.499  13.495  0.00  0.00    +0.000 N 
ATOM      2  C   UNL     1       7.223   5.202  14.469  0.00  0.00    +0.000 A 
ATOM      3  N   UNL     1       7.400   5.798  15.611  0.00  0.00    +0.000 NA
ATOM      4  C   UNL     1       6.542   5.555  16.661  0.00  0.00    +0.000 A 
ATOM      5  O   UNL     1       6.738   6.071  17.759  0.00  0.00    +0.000 OA
ATOM      6  N   UNL     1       5.456   4.706  16.444  0.00  0.00    +0.000 N 
ATOM      7  C   UNL     1       5.272   4.065  15.236  0.00  0.00    +0.000 A 
ATOM      8  C   UNL     1       6.097   4.257  14.207  0.00  0.00    +0.000 A 
ATOM      9 BR   UNL     1       5.904   3.442  12.554  0.00  0.00    +0.000 Br
ATOM     10  H   UNL     1       8.676   6.341  13.691  0.00  0.00    +0.000 HD
ATOM     11  H   UNL     1       7.850   5.400  12.532  0.00  0.00    +0.000 HD
ENDROOT
BRANCH   6  12
ATOM     12  C   UNL     1       4.586   4.430  17.578  0.00  0.00    +0.000 C 
ATOM     13  C   UNL     1       3.916   3.063  17.490  0.00  0.00    +0.000 C 
ATOM     14  C   UNL     1       2.615   3.294  18.214  0.00  0.00    +0.000 C 
ATOM     15  C   UNL     1       2.285   4.720  17.837  0.00  0.00    +0.000 C 
ATOM     16  O   UNL     1       3.529   5.406  17.657  0.00  0.00    +0.000 OA
ENDBRANCH   6  12
TORSDOF 1
ENDMDL
MODEL 2
REMARK VINA RESULT:      -6.2      1.612      1.895
REMARK  Name = 
REMARK  1 active torsions:
REMARK  status: ('A' for Active; 'I' for Inactive)
REMARK    1  A    between atoms: N_6  and  C_7
REMARK                            x       y       z     vdW  Elec       q    Type
REMARK                         _______ _______ _______ _____ _____    ______ ____
ROOT
ATOM      1  N   UNL     1       7.593   5.788  15.566  0.00  0.00    +0.000 N 
ATOM      2  C   UNL     1       6.657   5.163  16.352  0.00  0.00    +0.000 A 
ATOM      3  N   UNL     1       6.749   5.397  17.628  0.00  0.00    +0.000 NA
ATOM      4  C   UNL     1       5.869   4.805  18.506  0.00  0.00    +0.000 A 
ATOM      5  O   UNL     1       5.986   4.976  19.718  0.00  0.00    +0.000 OA
ATOM      6  N   UNL     1       4.851   4.004  17.984  0.00  0.00    +0.000 N 
ATOM      7  C   UNL     1       4.759   3.748  16.632  0.00  0.00    +0.000 A 
ATOM      8  C   UNL     1       5.608   4.283  15.756  0.00  0.00    +0.000 A 
ATOM      9 BR   UNL     1       5.535   3.994  13.927  0.00  0.00    +0.000 Br
ATOM     10  H   UNL     1       8.059   6.559  16.033  0.00  0.00    +0.000 HD
ATOM     11  H   UNL     1       7.344   5.968  14.601  0.00  0.00    +0.000 HD
ENDROOT
BRANCH   6  12
ATOM     12  C   UNL     1       3.958   3.355  18.933  0.00  0.00    +0.000 C 
ATOM     13  C   UNL     1       3.392   2.040  18.406  0.00  0.00    +0.000 C 
ATOM     14  C   UNL     1       2.050   1.971  19.087  0.00  0.00    +0.000 C 
ATOM     15  C   UNL     1       1.634   3.423  19.127  0.00  0.00    +0.000 C 
ATOM     16  O   UNL     1       2.832   4.201  19.232  0.00  0.00    +0.000 OA
ENDBRANCH   6  12
TORSDOF 1
ENDMDL
MODEL 3
REMARK VINA RESULT:      -6.2      2.900      3.864
REMARK  Name = 
REMARK  1 active torsions:
REMARK  status: ('A' for Active; 'I' for Inactive)
REMARK    1  A    between atoms: N_6  and  C_7
REMARK                            x       y       z     vdW  Elec       q    Type
REMARK                         _______ _______ _______ _____ _____    ______ ____
ROOT
ATOM      1  N   UNL     1       7.280   4.815  16.071  0.00  0.00    +0.000 N 
ATOM      2  C   UNL     1       6.236   4.563  16.925  0.00  0.00    +0.000 A 
ATOM      3  N   UNL     1       5.212   3.958  16.399  0.00  0.00    +0.000 NA
ATOM      4  C   UNL     1       4.104   3.675  17.166  0.00  0.00    +0.000 A 
ATOM      5  O   UNL     1       3.111   3.156  16.662  0.00  0.00    +0.000 OA
ATOM      6  N   UNL     1       4.139   4.001  18.524  0.00  0.00    +0.000 N 
ATOM      7  C   UNL     1       5.220   4.651  19.081  0.00  0.00    +0.000 A 
ATOM      8  C   UNL     1       6.298   4.963  18.363  0.00  0.00    +0.000 A 
ATOM      9 BR   UNL     1       7.790   5.823  19.047  0.00  0.00    +0.000 Br
ATOM     10  H   UNL     1       7.243   4.262  15.220  0.00  0.00    +0.000 HD
ATOM     11  H   UNL     1       8.203   4.901  16.478  0.00  0.00    +0.000 HD
ENDROOT
BRANCH   6  12
ATOM     12  C   UNL     1       2.941   3.731  19.307  0.00  0.00    +0.000 C 
ATOM     13  C   UNL     1       2.680   4.793  20.370  0.00  0.00    +0.000 C 
ATOM     14  C   UNL     1       1.985   4.004  21.449  0.00  0.00    +0.000 C 
ATOM     15  C   UNL     1       2.677   2.663  21.364  0.00  0.00    +0.000 C 
ATOM     16  O   UNL     1       3.058   2.472  19.997  0.00  0.00    +0.000 OA
ENDBRANCH   6  12
TORSDOF 1
ENDMDL
MODEL 4
REMARK VINA RESULT:      -6.1      2.523      3.301
REMARK  Name = 
REMARK  1 active torsions:
REMARK  status: ('A' for Active; 'I' for Inactive)
REMARK    1  A    between atoms: N_6  and  C_7
REMARK                            x       y       z     vdW  Elec       q    Type
REMARK                         _______ _______ _______ _____ _____    ______ ____
ROOT
ATOM      1  N   UNL     1       6.137   6.935  16.282  0.00  0.00    +0.000 N 
ATOM      2  C   UNL     1       5.046   6.300  16.823  0.00  0.00    +0.000 A 
ATOM      3  N   UNL     1       4.249   7.051  17.523  0.00  0.00    +0.000 NA
ATOM      4  C   UNL     1       3.135   6.507  18.125  0.00  0.00    +0.000 A 
ATOM      5  O   UNL     1       2.409   7.199  18.835  0.00  0.00    +0.000 OA
ATOM      6  N   UNL     1       2.861   5.155  17.911  0.00  0.00    +0.000 N 
ATOM      7  C   UNL     1       3.712   4.355  17.176  0.00  0.00    +0.000 A 
ATOM      8  C   UNL     1       4.811   4.842  16.602  0.00  0.00    +0.000 A 
ATOM      9 BR   UNL     1       5.990   3.830  15.591  0.00  0.00    +0.000 Br
ATOM     10  H   UNL     1       6.041   7.945  16.260  0.00  0.00    +0.000 HD
ATOM     11  H   UNL     1       6.542   6.531  15.446  0.00  0.00    +0.000 HD
ENDROOT
BRANCH   6  12
ATOM     12  C   UNL     1       1.703   4.592  18.590  0.00  0.00    +0.000 C 
ATOM     13  C   UNL     1       2.034   4.059  19.980  0.00  0.00    +0.000 C 
ATOM     14  C   UNL     1       1.043   2.936  20.139  0.00  0.00    +0.000 C 
ATOM     15  C   UNL     1       0.945   2.390  18.734  0.00  0.00    +0.000 C 
ATOM     16  O   UNL     1       1.161   3.488  17.840  0.00  0.00    +0.000 OA
ENDBRANCH   6  12
TORSDOF 1
ENDMDL
MODEL 5
REMARK VINA RESULT:      -6.1      3.313      5.251
REMARK  Name = 
REMARK  1 active torsions:
REMARK  status: ('A' for Active; 'I' for Inactive)
REMARK    1  A    between atoms: N_6  and  C_7
REMARK                            x       y       z     vdW  Elec       q    Type
REMARK                         _______ _______ _______ _____ _____    ______ ____
ROOT
ATOM      1  N   UNL     1       1.986   6.275  20.553  0.00  0.00    +0.000 N 
ATOM      2  C   UNL     1       2.939   5.871  19.652  0.00  0.00    +0.000 A 
ATOM      3  N   UNL     1       3.585   4.786  19.966  0.00  0.00    +0.000 NA
ATOM      4  C   UNL     1       4.576   4.306  19.138  0.00  0.00    +0.000 A 
ATOM      5  O   UNL     1       5.229   3.314  19.456  0.00  0.00    +0.000 OA
ATOM      6  N   UNL     1       4.819   4.977  17.939  0.00  0.00    +0.000 N 
ATOM      7  C   UNL     1       4.142   6.133  17.610  0.00  0.00    +0.000 A 
ATOM      8  C   UNL     1       3.195   6.640  18.398  0.00  0.00    +0.000 A 
ATOM      9 BR   UNL     1       2.236   8.179  18.014  0.00  0.00    +0.000 Br
ATOM     10  H   UNL     1       1.712   5.543  21.201  0.00  0.00    +0.000 HD
ATOM     11  H   UNL     1       1.219   6.833  20.199  0.00  0.00    +0.000 HD
ENDROOT
BRANCH   6  12
ATOM     12  C   UNL     1       5.898   4.477  17.099  0.00  0.00    +0.000 C 
ATOM     13  C   UNL     1       6.669   5.592  16.401  0.00  0.00    +0.000 C 
ATOM     14  C   UNL     1       7.120   4.924  15.128  0.00  0.00    +0.000 C 
ATOM     15  C   UNL     1       5.958   4.011  14.814  0.00  0.00    +0.000 C 
ATOM     16  O   UNL     1       5.381   3.618  16.065  0.00  0.00    +0.000 OA
ENDBRANCH   6  12
TORSDOF 1
ENDMDL
MODEL 6
REMARK VINA RESULT:      -5.9      2.829      4.849
REMARK  Name = 
REMARK  1 active torsions:
REMARK  status: ('A' for Active; 'I' for Inactive)
REMARK    1  A    between atoms: N_6  and  C_7
REMARK                            x       y       z     vdW  Elec       q    Type
REMARK                         _______ _______ _______ _____ _____    ______ ____
ROOT
ATOM      1  N   UNL     1       3.005   5.274  20.513  0.00  0.00    +0.000 N 
ATOM      2  C   UNL     1       3.834   5.006  19.452  0.00  0.00    +0.000 A 
ATOM      3  N   UNL     1       5.106   5.143  19.684  0.00  0.00    +0.000 NA
ATOM      4  C   UNL     1       6.022   4.916  18.681  0.00  0.00    +0.000 A 
ATOM      5  O   UNL     1       7.221   5.099  18.877  0.00  0.00    +0.000 OA
ATOM      6  N   UNL     1       5.551   4.482  17.440  0.00  0.00    +0.000 N 
ATOM      7  C   UNL     1       4.201   4.347  17.190  0.00  0.00    +0.000 A 
ATOM      8  C   UNL     1       3.286   4.582  18.129  0.00  0.00    +0.000 A 
ATOM      9 BR   UNL     1       1.459   4.407  17.868  0.00  0.00    +0.000 Br
ATOM     10  H   UNL     1       3.486   5.274  21.407  0.00  0.00    +0.000 HD
ATOM     11  H   UNL     1       2.100   4.820  20.521  0.00  0.00    +0.000 HD
ENDROOT
BRANCH   6  12
ATOM     12  C   UNL     1       6.532   4.289  16.383  0.00  0.00    +0.000 C 
ATOM     13  C   UNL     1       6.825   5.569  15.608  0.00  0.00    +0.000 C 
ATOM     14  C   UNL     1       7.170   5.046  14.238  0.00  0.00    +0.000 C 
ATOM     15  C   UNL     1       6.251   3.853  14.107  0.00  0.00    +0.000 C 
ATOM     16  O   UNL     1       6.062   3.322  15.424  0.00  0.00    +0.000 OA
ENDBRANCH   6  12
TORSDOF 1
ENDMDL
MODEL 7
REMARK VINA RESULT:      -5.8      3.361      5.270
REMARK  Name = 
REMARK  1 active torsions:
REMARK  status: ('A' for Active; 'I' for Inactive)
REMARK    1  A    between atoms: N_6  and  C_7
REMARK                            x       y       z     vdW  Elec       q    Type
REMARK                         _______ _______ _______ _____ _____    ______ ____
ROOT
ATOM      1  N   UNL     1       1.752   3.008  18.197  0.00  0.00    +0.000 N 
ATOM      2  C   UNL     1       2.957   3.658  18.107  0.00  0.00    +0.000 A 
ATOM      3  N   UNL     1       3.663   3.390  17.048  0.00  0.00    +0.000 NA
ATOM      4  C   UNL     1       4.896   3.976  16.870  0.00  0.00    +0.000 A 
ATOM      5  O   UNL     1       5.593   3.683  15.900  0.00  0.00    +0.000 OA
ATOM      6  N   UNL     1       5.333   4.901  17.820  0.00  0.00    +0.000 N 
ATOM      7  C   UNL     1       4.590   5.179  18.948  0.00  0.00    +0.000 A 
ATOM      8  C   UNL     1       3.404   4.612  19.165  0.00  0.00    +0.000 A 
ATOM      9 BR   UNL     1       2.347   4.948  20.650  0.00  0.00    +0.000 Br
ATOM     10  H   UNL     1       1.439   2.620  17.313  0.00  0.00    +0.000 HD
ATOM     11  H   UNL     1       1.024   3.452  18.745  0.00  0.00    +0.000 HD
ENDROOT
BRANCH   6  12
ATOM     12  C   UNL     1       6.657   5.477  17.634  0.00  0.00    +0.000 C 
ATOM     13  C   UNL     1       7.301   5.912  18.945  0.00  0.00    +0.000 C 
ATOM     14  C   UNL     1       8.164   7.069  18.512  0.00  0.00    +0.000 C 
ATOM     15  C   UNL     1       7.334   7.700  17.419  0.00  0.00    +0.000 C 
ATOM     16  O   UNL     1       6.589   6.646  16.795  0.00  0.00    +0.000 OA
ENDBRANCH   6  12
TORSDOF 1
ENDMDL
MODEL 8
REMARK VINA RESULT:      -5.8      2.648      3.509
REMARK  Name = 
REMARK  1 active torsions:
REMARK  status: ('A' for Active; 'I' for Inactive)
REMARK    1  A    between atoms: N_6  and  C_7
REMARK                            x       y       z     vdW  Elec       q    Type
REMARK                         _______ _______ _______ _____ _____    ______ ____
ROOT
ATOM      1  N   UNL     1       7.444   4.744  15.717  0.00  0.00    +0.000 N 
ATOM      2  C   UNL     1       6.318   4.877  16.492  0.00  0.00    +0.000 A 
ATOM      3  N   UNL     1       5.411   3.961  16.326  0.00  0.00    +0.000 NA
ATOM      4  C   UNL     1       4.235   4.012  17.042  0.00  0.00    +0.000 A 
ATOM      5  O   UNL     1       3.349   3.182  16.848  0.00  0.00    +0.000 OA
ATOM      6  N   UNL     1       4.077   5.032  17.982  0.00  0.00    +0.000 N 
ATOM      7  C   UNL     1       5.034   6.010  18.152  0.00  0.00    +0.000 A 
ATOM      8  C   UNL     1       6.172   6.005  17.459  0.00  0.00    +0.000 A 
ATOM      9 BR   UNL     1       7.507   7.278  17.645  0.00  0.00    +0.000 Br
ATOM     10  H   UNL     1       7.551   3.815  15.322  0.00  0.00    +0.000 HD
ATOM     11  H   UNL     1       8.300   5.155  16.069  0.00  0.00    +0.000 HD
ENDROOT
BRANCH   6  12
ATOM     12  C   UNL     1       2.810   5.091  18.697  0.00  0.00    +0.000 C 
ATOM     13  C   UNL     1       2.611   6.409  19.438  0.00  0.00    +0.000 C 
ATOM     14  C   UNL     1       1.762   5.995  20.612  0.00  0.00    +0.000 C 
ATOM     15  C   UNL     1       2.294   4.614  20.922  0.00  0.00    +0.000 C 
ATOM     16  O   UNL     1       2.733   4.044  19.683  0.00  0.00    +0.000 OA
ENDBRANCH   6  12
TORSDOF 1
ENDMDL
MODEL 9
REMARK VINA RESULT:      -5.7      3.278      4.200
REMARK  Name = 
REMARK  1 active torsions:
REMARK  status: ('A' for Active; 'I' for Inactive)
REMARK    1  A    between atoms: N_6  and  C_7
REMARK                            x       y       z     vdW  Elec       q    Type
REMARK                         _______ _______ _______ _____ _____    ______ ____
ROOT
ATOM      1  N   UNL     1       5.098   6.670  15.966  0.00  0.00    +0.000 N 
ATOM      2  C   UNL     1       4.427   5.837  16.827  0.00  0.00    +0.000 A 
ATOM      3  N   UNL     1       4.766   4.583  16.774  0.00  0.00    +0.000 NA
ATOM      4  C   UNL     1       4.141   3.661  17.584  0.00  0.00    +0.000 A 
ATOM      5  O   UNL     1       4.416   2.466  17.498  0.00  0.00    +0.000 OA
ATOM      6  N   UNL     1       3.187   4.119  18.494  0.00  0.00    +0.000 N 
ATOM      7  C   UNL     1       2.819   5.448  18.544  0.00  0.00    +0.000 A 
ATOM      8  C   UNL     1       3.384   6.362  17.758  0.00  0.00    +0.000 A 
ATOM      9 BR   UNL     1       2.950   8.165  17.781  0.00  0.00    +0.000 Br
ATOM     10  H   UNL     1       5.952   6.263  15.600  0.00  0.00    +0.000 HD
ATOM     11  H   UNL     1       5.173   7.646  16.228  0.00  0.00    +0.000 HD
ENDROOT
BRANCH   6  12
ATOM     12  C   UNL     1       2.508   3.122  19.310  0.00  0.00    +0.000 C 
ATOM     13  C   UNL     1       1.180   3.621  19.868  0.00  0.00    +0.000 C 
ATOM     14  C   UNL     1       1.070   2.862  21.166  0.00  0.00    +0.000 C 
ATOM     15  C   UNL     1       2.510   2.790  21.619  0.00  0.00    +0.000 C 
ATOM     16  O   UNL     1       3.322   2.752  20.440  0.00  0.00    +0.000 OA
ENDBRANCH   6  12
TORSDOF 1
ENDMDL
