MODEL 1
REMARK VINA RESULT:      -8.1      0.000      0.000
REMARK  Name = 
REMARK  4 active torsions:
REMARK  status: ('A' for Active; 'I' for Inactive)
REMARK    1  A    between atoms: C_1  and  C_2
REMARK    2  A    between atoms: C_2  and  C_4
REMARK    3  A    between atoms: C_7  and  N_8
REMARK    4  A    between atoms: C_12  and  C_13
REMARK                            x       y       z     vdW  Elec       q    Type
REMARK                         _______ _______ _______ _____ _____    ______ ____
ROOT
ATOM      1  N   UNL     1       3.108   5.912  18.889  0.00  0.00    +0.000 N 
ATOM      2  C   UNL     1       2.459   7.172  18.943  0.00  0.00    +0.000 A 
ATOM      3  C   UNL     1       2.010   7.660  20.160  0.00  0.00    +0.000 A 
ATOM      4  C   UNL     1       1.364   8.897  20.211  0.00  0.00    +0.000 A 
ATOM      5  C   UNL     1       1.154   9.611  19.038  0.00  0.00    +0.000 A 
ATOM      6  N   UNL     1       1.570   9.094  17.863  0.00  0.00    +0.000 NA
ATOM      7  N   UNL     1       2.213   7.874  17.818  0.00  0.00    +0.000 NA
ATOM      8  H   UNL     1       3.554   5.728  19.785  0.00  0.00    +0.000 HD
ENDROOT
BRANCH   5   9
ATOM      9  C   UNL     1       0.478  10.916  18.967  0.00  0.00    +0.000 A 
ATOM     10  C   UNL     1       1.184  12.109  19.227  0.00  0.00    +0.000 A 
ATOM     11  C   UNL     1       0.559  13.359  19.161  0.00  0.00    +0.000 A 
ATOM     12  C   UNL     1      -0.792  13.446  18.838  0.00  0.00    +0.000 A 
ATOM     13  C   UNL     1      -1.515  12.283  18.586  0.00  0.00    +0.000 A 
ATOM     14  C   UNL     1      -0.884  11.042  18.656  0.00  0.00    +0.000 A 
ATOM     15  F   UNL     1      -1.633   9.951  18.428  0.00  0.00    +0.000 F 
ENDBRANCH   5   9
BRANCH   1  19
ATOM     16  C   UNL     1       5.769   5.047  15.710  0.00  0.00    +0.000 A 
ATOM     17  C   UNL     1       4.868   4.075  16.151  0.00  0.00    +0.000 A 
ATOM     18  C   UNL     1       4.013   4.349  17.219  0.00  0.00    +0.000 A 
ATOM     19  C   UNL     1       4.052   5.586  17.880  0.00  0.00    +0.000 A 
ATOM     20  C   UNL     1       4.929   6.568  17.411  0.00  0.00    +0.000 A 
ATOM     21  C   UNL     1       5.795   6.296  16.345  0.00  0.00    +0.000 A 
BRANCH  16  23
ATOM     22  C   UNL     1       6.241   3.856  13.472  0.00  0.00    +0.000 C 
ATOM     23  C   UNL     1       6.690   4.792  14.566  0.00  0.00    +0.000 C 
ATOM     24  O   UNL     1       7.781   5.354  14.517  0.00  0.00    +0.000 OA
ENDBRANCH  16  23
ENDBRANCH   1  19
TORSDOF 3
ENDMDL
MODEL 2
REMARK VINA RESULT:      -8.0      0.992      1.374
REMARK  Name = 
REMARK  4 active torsions:
REMARK  status: ('A' for Active; 'I' for Inactive)
REMARK    1  A    between atoms: C_1  and  C_2
REMARK    2  A    between atoms: C_2  and  C_4
REMARK    3  A    between atoms: C_7  and  N_8
REMARK    4  A    between atoms: C_12  and  C_13
REMARK                            x       y       z     vdW  Elec       q    Type
REMARK                         _______ _______ _______ _____ _____    ______ ____
ROOT
ATOM      1  N   UNL     1       3.005   5.871  18.890  0.00  0.00    +0.000 N 
ATOM      2  C   UNL     1       2.375   7.140  18.960  0.00  0.00    +0.000 A 
ATOM      3  C   UNL     1       1.917   7.612  20.180  0.00  0.00    +0.000 A 
ATOM      4  C   UNL     1       1.290   8.858  20.247  0.00  0.00    +0.000 A 
ATOM      5  C   UNL     1       1.107   9.597  19.086  0.00  0.00    +0.000 A 
ATOM      6  N   UNL     1       1.529   9.096  17.907  0.00  0.00    +0.000 NA
ATOM      7  N   UNL     1       2.154   7.868  17.846  0.00  0.00    +0.000 NA
ATOM      8  H   UNL     1       3.436   5.664  19.788  0.00  0.00    +0.000 HD
ENDROOT
BRANCH   5   9
ATOM      9  C   UNL     1       0.452  10.914  19.031  0.00  0.00    +0.000 A 
ATOM     10  C   UNL     1      -0.937  11.038  19.243  0.00  0.00    +0.000 A 
ATOM     11  C   UNL     1      -1.576  12.281  19.197  0.00  0.00    +0.000 A 
ATOM     12  C   UNL     1      -0.841  13.434  18.933  0.00  0.00    +0.000 A 
ATOM     13  C   UNL     1       0.530  13.338  18.712  0.00  0.00    +0.000 A 
ATOM     14  C   UNL     1       1.158  12.095  18.758  0.00  0.00    +0.000 A 
ATOM     15  F   UNL     1       2.478  12.057  18.513  0.00  0.00    +0.000 F 
ENDBRANCH   5   9
BRANCH   1  19
ATOM     16  C   UNL     1       5.689   5.019  15.729  0.00  0.00    +0.000 A 
ATOM     17  C   UNL     1       4.791   4.043  16.165  0.00  0.00    +0.000 A 
ATOM     18  C   UNL     1       3.928   4.312  17.227  0.00  0.00    +0.000 A 
ATOM     19  C   UNL     1       3.957   5.549  17.887  0.00  0.00    +0.000 A 
ATOM     20  C   UNL     1       4.832   6.536  17.423  0.00  0.00    +0.000 A 
ATOM     21  C   UNL     1       5.706   6.268  16.363  0.00  0.00    +0.000 A 
BRANCH  16  23
ATOM     22  C   UNL     1       6.172   3.848  13.482  0.00  0.00    +0.000 C 
ATOM     23  C   UNL     1       6.619   4.768  14.590  0.00  0.00    +0.000 C 
ATOM     24  O   UNL     1       7.716   5.321  14.557  0.00  0.00    +0.000 OA
ENDBRANCH  16  23
ENDBRANCH   1  19
TORSDOF 3
ENDMDL
MODEL 3
REMARK VINA RESULT:      -8.0      0.646      1.195
REMARK  Name = 
REMARK  4 active torsions:
REMARK  status: ('A' for Active; 'I' for Inactive)
REMARK    1  A    between atoms: C_1  and  C_2
REMARK    2  A    between atoms: C_2  and  C_4
REMARK    3  A    between atoms: C_7  and  N_8
REMARK    4  A    between atoms: C_12  and  C_13
REMARK                            x       y       z     vdW  Elec       q    Type
REMARK                         _______ _______ _______ _____ _____    ______ ____
ROOT
ATOM      1  N   UNL     1       3.013   5.763  18.845  0.00  0.00    +0.000 N 
ATOM      2  C   UNL     1       2.367   6.996  19.119  0.00  0.00    +0.000 A 
ATOM      3  C   UNL     1       2.004   7.305  20.420  0.00  0.00    +0.000 A 
ATOM      4  C   UNL     1       1.361   8.515  20.689  0.00  0.00    +0.000 A 
ATOM      5  C   UNL     1       1.067   9.382  19.645  0.00  0.00    +0.000 A 
ATOM      6  N   UNL     1       1.398   9.038  18.383  0.00  0.00    +0.000 NA
ATOM      7  N   UNL     1       2.039   7.844  18.123  0.00  0.00    +0.000 NA
ATOM      8  H   UNL     1       3.522   5.463  19.673  0.00  0.00    +0.000 HD
ENDROOT
BRANCH   5   9
ATOM      9  C   UNL     1       0.384  10.676  19.803  0.00  0.00    +0.000 A 
ATOM     10  C   UNL     1       1.010  11.742  20.483  0.00  0.00    +0.000 A 
ATOM     11  C   UNL     1       0.378  12.980  20.641  0.00  0.00    +0.000 A 
ATOM     12  C   UNL     1      -0.900  13.181  20.127  0.00  0.00    +0.000 A 
ATOM     13  C   UNL     1      -1.543  12.143  19.459  0.00  0.00    +0.000 A 
ATOM     14  C   UNL     1      -0.906  10.912  19.308  0.00  0.00    +0.000 A 
ATOM     15  F   UNL     1      -1.581   9.938  18.677  0.00  0.00    +0.000 F 
ENDBRANCH   5   9
BRANCH   1  19
ATOM     16  C   UNL     1       5.771   5.137  15.694  0.00  0.00    +0.000 A 
ATOM     17  C   UNL     1       5.744   6.361  16.365  0.00  0.00    +0.000 A 
ATOM     18  C   UNL     1       4.814   6.579  17.382  0.00  0.00    +0.000 A 
ATOM     19  C   UNL     1       3.884   5.591  17.736  0.00  0.00    +0.000 A 
ATOM     20  C   UNL     1       3.939   4.354  17.087  0.00  0.00    +0.000 A 
ATOM     21  C   UNL     1       4.865   4.133  16.060  0.00  0.00    +0.000 A 
BRANCH  16  23
ATOM     22  C   UNL     1       6.381   3.895  13.517  0.00  0.00    +0.000 C 
ATOM     23  C   UNL     1       6.757   4.867  14.608  0.00  0.00    +0.000 C 
ATOM     24  O   UNL     1       7.841   5.445  14.602  0.00  0.00    +0.000 OA
ENDBRANCH  16  23
ENDBRANCH   1  19
TORSDOF 3
ENDMDL
MODEL 4
REMARK VINA RESULT:      -8.0      1.049      1.169
REMARK  Name = 
REMARK  4 active torsions:
REMARK  status: ('A' for Active; 'I' for Inactive)
REMARK    1  A    between atoms: C_1  and  C_2
REMARK    2  A    between atoms: C_2  and  C_4
REMARK    3  A    between atoms: C_7  and  N_8
REMARK    4  A    between atoms: C_12  and  C_13
REMARK                            x       y       z     vdW  Elec       q    Type
REMARK                         _______ _______ _______ _____ _____    ______ ____
ROOT
ATOM      1  N   UNL     1       2.634   5.766  19.808  0.00  0.00    +0.000 N 
ATOM      2  C   UNL     1       2.101   7.080  19.753  0.00  0.00    +0.000 A 
ATOM      3  C   UNL     1       1.527   7.636  20.885  0.00  0.00    +0.000 A 
ATOM      4  C   UNL     1       0.996   8.926  20.828  0.00  0.00    +0.000 A 
ATOM      5  C   UNL     1       1.024   9.627  19.629  0.00  0.00    +0.000 A 
ATOM      6  N   UNL     1       1.556   9.046  18.533  0.00  0.00    +0.000 NA
ATOM      7  N   UNL     1       2.085   7.774  18.596  0.00  0.00    +0.000 NA
ATOM      8  H   UNL     1       2.927   5.566  20.762  0.00  0.00    +0.000 HD
ENDROOT
BRANCH   5   9
ATOM      9  C   UNL     1       0.487  10.985  19.445  0.00  0.00    +0.000 A 
ATOM     10  C   UNL     1       1.206  12.111  19.895  0.00  0.00    +0.000 A 
ATOM     11  C   UNL     1       0.713  13.409  19.726  0.00  0.00    +0.000 A 
ATOM     12  C   UNL     1      -0.517  13.612  19.107  0.00  0.00    +0.000 A 
ATOM     13  C   UNL     1      -1.252  12.517  18.661  0.00  0.00    +0.000 A 
ATOM     14  C   UNL     1      -0.753  11.227  18.835  0.00  0.00    +0.000 A 
ATOM     15  F   UNL     1      -1.513  10.205  18.410  0.00  0.00    +0.000 F 
ENDBRANCH   5   9
BRANCH   1  19
ATOM     16  C   UNL     1       5.763   4.710  17.159  0.00  0.00    +0.000 A 
ATOM     17  C   UNL     1       4.435   4.453  16.810  0.00  0.00    +0.000 A 
ATOM     18  C   UNL     1       3.407   4.772  17.696  0.00  0.00    +0.000 A 
ATOM     19  C   UNL     1       3.680   5.334  18.951  0.00  0.00    +0.000 A 
ATOM     20  C   UNL     1       5.007   5.623  19.281  0.00  0.00    +0.000 A 
ATOM     21  C   UNL     1       6.045   5.297  18.399  0.00  0.00    +0.000 A 
BRANCH  16  23
ATOM     22  C   UNL     1       6.579   4.168  14.773  0.00  0.00    +0.000 C 
ATOM     23  C   UNL     1       6.887   4.390  16.232  0.00  0.00    +0.000 C 
ATOM     24  O   UNL     1       8.038   4.332  16.657  0.00  0.00    +0.000 OA
ENDBRANCH  16  23
ENDBRANCH   1  19
TORSDOF 3
ENDMDL
MODEL 5
REMARK VINA RESULT:      -7.9      1.465      1.818
REMARK  Name = 
REMARK  4 active torsions:
REMARK  status: ('A' for Active; 'I' for Inactive)
REMARK    1  A    between atoms: C_1  and  C_2
REMARK    2  A    between atoms: C_2  and  C_4
REMARK    3  A    between atoms: C_7  and  N_8
REMARK    4  A    between atoms: C_12  and  C_13
REMARK                            x       y       z     vdW  Elec       q    Type
REMARK                         _______ _______ _______ _____ _____    ______ ____
ROOT
ATOM      1  N   UNL     1       2.701   5.868  19.941  0.00  0.00    +0.000 N 
ATOM      2  C   UNL     1       2.136   7.164  19.827  0.00  0.00    +0.000 A 
ATOM      3  C   UNL     1       1.584   7.773  20.942  0.00  0.00    +0.000 A 
ATOM      4  C   UNL     1       1.021   9.046  20.827  0.00  0.00    +0.000 A 
ATOM      5  C   UNL     1       0.996   9.676  19.590  0.00  0.00    +0.000 A 
ATOM      6  N   UNL     1       1.508   9.043  18.513  0.00  0.00    +0.000 NA
ATOM      7  N   UNL     1       2.069   7.789  18.633  0.00  0.00    +0.000 NA
ATOM      8  H   UNL     1       3.028   5.731  20.895  0.00  0.00    +0.000 HD
ENDROOT
BRANCH   5   9
ATOM      9  C   UNL     1       0.422  11.008  19.345  0.00  0.00    +0.000 A 
ATOM     10  C   UNL     1      -0.937  11.269  19.618  0.00  0.00    +0.000 A 
ATOM     11  C   UNL     1      -1.499  12.530  19.394  0.00  0.00    +0.000 A 
ATOM     12  C   UNL     1      -0.716  13.562  18.885  0.00  0.00    +0.000 A 
ATOM     13  C   UNL     1       0.626  13.329  18.598  0.00  0.00    +0.000 A 
ATOM     14  C   UNL     1       1.178  12.068  18.823  0.00  0.00    +0.000 A 
ATOM     15  F   UNL     1       2.470  11.891  18.506  0.00  0.00    +0.000 F 
ENDBRANCH   5   9
BRANCH   1  19
ATOM     16  C   UNL     1       5.792   4.734  17.278  0.00  0.00    +0.000 A 
ATOM     17  C   UNL     1       4.456   4.541  16.921  0.00  0.00    +0.000 A 
ATOM     18  C   UNL     1       3.438   4.886  17.811  0.00  0.00    +0.000 A 
ATOM     19  C   UNL     1       3.731   5.409  19.078  0.00  0.00    +0.000 A 
ATOM     20  C   UNL     1       5.068   5.634  19.418  0.00  0.00    +0.000 A 
ATOM     21  C   UNL     1       6.094   5.283  18.531  0.00  0.00    +0.000 A 
BRANCH  16  23
ATOM     22  C   UNL     1       6.597   4.236  14.880  0.00  0.00    +0.000 C 
ATOM     23  C   UNL     1       6.904   4.385  16.349  0.00  0.00    +0.000 C 
ATOM     24  O   UNL     1       8.046   4.245  16.779  0.00  0.00    +0.000 OA
ENDBRANCH  16  23
ENDBRANCH   1  19
TORSDOF 3
ENDMDL
MODEL 6
REMARK VINA RESULT:      -7.9      1.017      1.741
REMARK  Name = 
REMARK  4 active torsions:
REMARK  status: ('A' for Active; 'I' for Inactive)
REMARK    1  A    between atoms: C_1  and  C_2
REMARK    2  A    between atoms: C_2  and  C_4
REMARK    3  A    between atoms: C_7  and  N_8
REMARK    4  A    between atoms: C_12  and  C_13
REMARK                            x       y       z     vdW  Elec       q    Type
REMARK                         _______ _______ _______ _____ _____    ______ ____
ROOT
ATOM      1  N   UNL     1       3.005   6.061  18.792  0.00  0.00    +0.000 N 
ATOM      2  C   UNL     1       2.317   7.292  18.948  0.00  0.00    +0.000 A 
ATOM      3  C   UNL     1       1.976   7.731  20.217  0.00  0.00    +0.000 A 
ATOM      4  C   UNL     1       1.292   8.939  20.370  0.00  0.00    +0.000 A 
ATOM      5  C   UNL     1       0.937   9.673  19.246  0.00  0.00    +0.000 A 
ATOM      6  N   UNL     1       1.249   9.202  18.020  0.00  0.00    +0.000 NA
ATOM      7  N   UNL     1       1.930   8.012  17.875  0.00  0.00    +0.000 NA
ATOM      8  H   UNL     1       3.547   5.874  19.632  0.00  0.00    +0.000 HD
ENDROOT
BRANCH   5   9
ATOM      9  C   UNL     1       0.207  10.950  19.282  0.00  0.00    +0.000 A 
ATOM     10  C   UNL     1      -1.201  10.979  19.210  0.00  0.00    +0.000 A 
ATOM     11  C   UNL     1      -1.911  12.183  19.246  0.00  0.00    +0.000 A 
ATOM     12  C   UNL     1      -1.229  13.392  19.348  0.00  0.00    +0.000 A 
ATOM     13  C   UNL     1       0.162  13.392  19.411  0.00  0.00    +0.000 A 
ATOM     14  C   UNL     1       0.862  12.188  19.374  0.00  0.00    +0.000 A 
ATOM     15  F   UNL     1       2.202  12.247  19.413  0.00  0.00    +0.000 F 
ENDBRANCH   5   9
BRANCH   1  19
ATOM     16  C   UNL     1       5.700   5.183  15.647  0.00  0.00    +0.000 A 
ATOM     17  C   UNL     1       5.671   6.463  16.205  0.00  0.00    +0.000 A 
ATOM     18  C   UNL     1       4.762   6.761  17.219  0.00  0.00    +0.000 A 
ATOM     19  C   UNL     1       3.853   5.800  17.683  0.00  0.00    +0.000 A 
ATOM     20  C   UNL     1       3.911   4.510  17.147  0.00  0.00    +0.000 A 
ATOM     21  C   UNL     1       4.816   4.207  16.123  0.00  0.00    +0.000 A 
BRANCH  16  23
ATOM     22  C   UNL     1       6.245   3.818  13.527  0.00  0.00    +0.000 C 
ATOM     23  C   UNL     1       6.665   4.826  14.567  0.00  0.00    +0.000 C 
ATOM     24  O   UNL     1       7.768   5.365  14.524  0.00  0.00    +0.000 OA
ENDBRANCH  16  23
ENDBRANCH   1  19
TORSDOF 3
ENDMDL
MODEL 7
REMARK VINA RESULT:      -7.8      1.234      1.515
REMARK  Name = 
REMARK  4 active torsions:
REMARK  status: ('A' for Active; 'I' for Inactive)
REMARK    1  A    between atoms: C_1  and  C_2
REMARK    2  A    between atoms: C_2  and  C_4
REMARK    3  A    between atoms: C_7  and  N_8
REMARK    4  A    between atoms: C_12  and  C_13
REMARK                            x       y       z     vdW  Elec       q    Type
REMARK                         _______ _______ _______ _____ _____    ______ ____
ROOT
ATOM      1  N   UNL     1       2.674   5.976  19.871  0.00  0.00    +0.000 N 
ATOM      2  C   UNL     1       2.063   7.255  19.931  0.00  0.00    +0.000 A 
ATOM      3  C   UNL     1       1.477   7.681  21.112  0.00  0.00    +0.000 A 
ATOM      4  C   UNL     1       0.870   8.937  21.169  0.00  0.00    +0.000 A 
ATOM      5  C   UNL     1       0.834   9.734  20.032  0.00  0.00    +0.000 A 
ATOM      6  N   UNL     1       1.380   9.278  18.885  0.00  0.00    +0.000 NA
ATOM      7  N   UNL     1       1.985   8.039  18.836  0.00  0.00    +0.000 NA
ATOM      8  H   UNL     1       2.995   5.717  20.800  0.00  0.00    +0.000 HD
ENDROOT
BRANCH   5   9
ATOM      9  C   UNL     1       0.215  11.067  19.968  0.00  0.00    +0.000 A 
ATOM     10  C   UNL     1       0.871  12.194  20.504  0.00  0.00    +0.000 A 
ATOM     11  C   UNL     1       0.299  13.469  20.450  0.00  0.00    +0.000 A 
ATOM     12  C   UNL     1      -0.949  13.648  19.861  0.00  0.00    +0.000 A 
ATOM     13  C   UNL     1      -1.623  12.551  19.332  0.00  0.00    +0.000 A 
ATOM     14  C   UNL     1      -1.046  11.283  19.392  0.00  0.00    +0.000 A 
ATOM     15  F   UNL     1      -1.749  10.257  18.888  0.00  0.00    +0.000 F 
ENDBRANCH   5   9
BRANCH   1  19
ATOM     16  C   UNL     1       5.772   4.844  17.216  0.00  0.00    +0.000 A 
ATOM     17  C   UNL     1       6.070   5.162  18.543  0.00  0.00    +0.000 A 
ATOM     18  C   UNL     1       5.054   5.566  19.409  0.00  0.00    +0.000 A 
ATOM     19  C   UNL     1       3.728   5.679  18.968  0.00  0.00    +0.000 A 
ATOM     20  C   UNL     1       3.429   5.325  17.649  0.00  0.00    +0.000 A 
ATOM     21  C   UNL     1       4.446   4.927  16.773  0.00  0.00    +0.000 A 
BRANCH  16  23
ATOM     22  C   UNL     1       6.431   4.037  14.857  0.00  0.00    +0.000 C 
ATOM     23  C   UNL     1       6.832   4.401  16.265  0.00  0.00    +0.000 C 
ATOM     24  O   UNL     1       8.005   4.358  16.626  0.00  0.00    +0.000 OA
ENDBRANCH  16  23
ENDBRANCH   1  19
TORSDOF 3
ENDMDL
MODEL 8
REMARK VINA RESULT:      -7.7      2.854      3.629
REMARK  Name = 
REMARK  4 active torsions:
REMARK  status: ('A' for Active; 'I' for Inactive)
REMARK    1  A    between atoms: C_1  and  C_2
REMARK    2  A    between atoms: C_2  and  C_4
REMARK    3  A    between atoms: C_7  and  N_8
REMARK    4  A    between atoms: C_12  and  C_13
REMARK                            x       y       z     vdW  Elec       q    Type
REMARK                         _______ _______ _______ _____ _____    ______ ____
ROOT
ATOM      1  N   UNL     1       2.968   7.623  17.685  0.00  0.00    +0.000 N 
ATOM      2  C   UNL     1       2.076   8.396  18.472  0.00  0.00    +0.000 A 
ATOM      3  C   UNL     1       1.347   9.415  17.881  0.00  0.00    +0.000 A 
ATOM      4  C   UNL     1       0.474  10.180  18.658  0.00  0.00    +0.000 A 
ATOM      5  C   UNL     1       0.369   9.930  20.020  0.00  0.00    +0.000 A 
ATOM      6  N   UNL     1       1.119   8.955  20.575  0.00  0.00    +0.000 NA
ATOM      7  N   UNL     1       1.975   8.198  19.803  0.00  0.00    +0.000 NA
ATOM      8  H   UNL     1       2.640   7.615  16.722  0.00  0.00    +0.000 HD
ENDROOT
BRANCH   5   9
ATOM      9  C   UNL     1      -0.506  10.675  20.939  0.00  0.00    +0.000 A 
ATOM     10  C   UNL     1      -0.552  10.353  22.311  0.00  0.00    +0.000 A 
ATOM     11  C   UNL     1      -1.375  11.052  23.200  0.00  0.00    +0.000 A 
ATOM     12  C   UNL     1      -2.178  12.090  22.736  0.00  0.00    +0.000 A 
ATOM     13  C   UNL     1      -2.158  12.423  21.385  0.00  0.00    +0.000 A 
ATOM     14  C   UNL     1      -1.336  11.720  20.506  0.00  0.00    +0.000 A 
ATOM     15  F   UNL     1      -1.374  12.066  19.209  0.00  0.00    +0.000 F 
ENDBRANCH   5   9
BRANCH   1  19
ATOM     16  C   UNL     1       3.902   3.679  18.911  0.00  0.00    +0.000 A 
ATOM     17  C   UNL     1       4.874   4.680  18.976  0.00  0.00    +0.000 A 
ATOM     18  C   UNL     1       4.576   5.972  18.543  0.00  0.00    +0.000 A 
ATOM     19  C   UNL     1       3.314   6.287  18.019  0.00  0.00    +0.000 A 
ATOM     20  C   UNL     1       2.333   5.292  17.990  0.00  0.00    +0.000 A 
ATOM     21  C   UNL     1       2.629   3.991  18.416  0.00  0.00    +0.000 A 
BRANCH  16  23
ATOM     22  C   UNL     1       3.616   1.137  18.583  0.00  0.00    +0.000 C 
ATOM     23  C   UNL     1       4.183   2.290  19.373  0.00  0.00    +0.000 C 
ATOM     24  O   UNL     1       4.881   2.100  20.366  0.00  0.00    +0.000 OA
ENDBRANCH  16  23
ENDBRANCH   1  19
TORSDOF 3
ENDMDL
MODEL 9
REMARK VINA RESULT:      -7.7      2.972      3.761
REMARK  Name = 
REMARK  4 active torsions:
REMARK  status: ('A' for Active; 'I' for Inactive)
REMARK    1  A    between atoms: C_1  and  C_2
REMARK    2  A    between atoms: C_2  and  C_4
REMARK    3  A    between atoms: C_7  and  N_8
REMARK    4  A    between atoms: C_12  and  C_13
REMARK                            x       y       z     vdW  Elec       q    Type
REMARK                         _______ _______ _______ _____ _____    ______ ____
ROOT
ATOM      1  N   UNL     1       2.954   7.630  17.696  0.00  0.00    +0.000 N 
ATOM      2  C   UNL     1       2.065   8.400  18.489  0.00  0.00    +0.000 A 
ATOM      3  C   UNL     1       1.338   9.426  17.905  0.00  0.00    +0.000 A 
ATOM      4  C   UNL     1       0.469  10.188  18.687  0.00  0.00    +0.000 A 
ATOM      5  C   UNL     1       0.363   9.928  20.048  0.00  0.00    +0.000 A 
ATOM      6  N   UNL     1       1.110   8.948  20.596  0.00  0.00    +0.000 NA
ATOM      7  N   UNL     1       1.963   8.193  19.818  0.00  0.00    +0.000 NA
ATOM      8  H   UNL     1       2.626   7.630  16.733  0.00  0.00    +0.000 HD
ENDROOT
BRANCH   5   9
ATOM      9  C   UNL     1      -0.509  10.670  20.972  0.00  0.00    +0.000 A 
ATOM     10  C   UNL     1      -1.314  11.731  20.509  0.00  0.00    +0.000 A 
ATOM     11  C   UNL     1      -2.151  12.446  21.372  0.00  0.00    +0.000 A 
ATOM     12  C   UNL     1      -2.200  12.119  22.724  0.00  0.00    +0.000 A 
ATOM     13  C   UNL     1      -1.409  11.081  23.209  0.00  0.00    +0.000 A 
ATOM     14  C   UNL     1      -0.576  10.376  22.342  0.00  0.00    +0.000 A 
ATOM     15  F   UNL     1       0.183   9.401  22.867  0.00  0.00    +0.000 F 
ENDBRANCH   5   9
BRANCH   1  19
ATOM     16  C   UNL     1       3.886   3.678  18.897  0.00  0.00    +0.000 A 
ATOM     17  C   UNL     1       4.874   4.665  18.916  0.00  0.00    +0.000 A 
ATOM     18  C   UNL     1       4.575   5.960  18.490  0.00  0.00    +0.000 A 
ATOM     19  C   UNL     1       3.296   6.291  18.020  0.00  0.00    +0.000 A 
ATOM     20  C   UNL     1       2.301   5.309  18.038  0.00  0.00    +0.000 A 
ATOM     21  C   UNL     1       2.597   4.006  18.456  0.00  0.00    +0.000 A 
BRANCH  16  23
ATOM     22  C   UNL     1       3.637   1.137  18.533  0.00  0.00    +0.000 C 
ATOM     23  C   UNL     1       4.168   2.286  19.352  0.00  0.00    +0.000 C 
ATOM     24  O   UNL     1       4.837   2.093  20.364  0.00  0.00    +0.000 OA
ENDBRANCH  16  23
ENDBRANCH   1  19
TORSDOF 3
ENDMDL
