MODEL 1
REMARK VINA RESULT:      -7.0      0.000      0.000
REMARK  Name = 
REMARK  4 active torsions:
REMARK  status: ('A' for Active; 'I' for Inactive)
REMARK    1  A    between atoms: N_1  and  C_2
REMARK    2  A    between atoms: C_2  and  C_3
REMARK    3  A    between atoms: C_2  and  C_16
REMARK    4  A    between atoms: C_3  and  N_4
REMARK                            x       y       z     vdW  Elec       q    Type
REMARK                         _______ _______ _______ _____ _____    ______ ____
ROOT
ATOM      1  C   UNL     1       2.910   3.437  19.112  0.00  0.00    +0.000 C 
ENDROOT
BRANCH   1   2
ATOM      2  N   UNL     1       1.643   4.181  18.879  0.00  0.00    +0.000 NA
ATOM      3  C   UNL     1       1.050   4.587  20.181  0.00  0.00    +0.000 C 
ATOM      4  C   UNL     1       1.847   5.653  20.980  0.00  0.00    +0.000 C 
ATOM      5  N   UNL     1       2.239   6.802  20.146  0.00  0.00    +0.000 N 
ATOM      6  C   UNL     1       1.660   8.043  20.368  0.00  0.00    +0.000 A 
ATOM      7  C   UNL     1       1.409   8.531  21.660  0.00  0.00    +0.000 A 
ATOM      8  N   UNL     1       0.870   9.747  21.942  0.00  0.00    +0.000 NA
ATOM      9  C   UNL     1       0.600  10.505  20.865  0.00  0.00    +0.000 A 
ATOM     10  C   UNL     1       0.857  10.066  19.581  0.00  0.00    +0.000 A 
ATOM     11  N   UNL     1       1.382   8.845  19.314  0.00  0.00    +0.000 NA
ATOM     12  C   UNL     1       2.721   6.492  18.791  0.00  0.00    +0.000 C 
ATOM     13  C   UNL     1       1.837   5.432  18.098  0.00  0.00    +0.000 C 
ENDBRANCH   1   2
BRANCH   1  14
ATOM     14  C   UNL     1       3.702   3.036  17.828  0.00  0.00    +0.000 C 
BRANCH  14  15
ATOM     15  C   UNL     1       4.836   4.013  17.557  0.00  0.00    +0.000 A 
ATOM     16  C   UNL     1       5.009   4.531  16.260  0.00  0.00    +0.000 A 
ATOM     17  C   UNL     1       6.017   5.459  15.991  0.00  0.00    +0.000 A 
ATOM     18  C   UNL     1       6.855   5.875  17.017  0.00  0.00    +0.000 A 
ATOM     19  F   UNL     1       7.821   6.768  16.760  0.00  0.00    +0.000 F 
ATOM     20  C   UNL     1       6.706   5.379  18.304  0.00  0.00    +0.000 A 
ATOM     21  C   UNL     1       5.698   4.451  18.577  0.00  0.00    +0.000 A 
ENDBRANCH  14  15
BRANCH  14  22
ATOM     22  N   UNL     1       4.175   1.645  17.886  0.00  0.00    +0.000 NA
ATOM     23  H   UNL     1       3.392   1.088  18.243  0.00  0.00    +0.000 HD
ATOM     24  H   UNL     1       4.889   1.566  18.604  0.00  0.00    +0.000 HD
ENDBRANCH  14  22
ENDBRANCH   1  14
TORSDOF 4
ENDMDL
MODEL 2
REMARK VINA RESULT:      -6.9      1.425      1.820
REMARK  Name = 
REMARK  4 active torsions:
REMARK  status: ('A' for Active; 'I' for Inactive)
REMARK    1  A    between atoms: N_1  and  C_2
REMARK    2  A    between atoms: C_2  and  C_3
REMARK    3  A    between atoms: C_2  and  C_16
REMARK    4  A    between atoms: C_3  and  N_4
REMARK                            x       y       z     vdW  Elec       q    Type
REMARK                         _______ _______ _______ _____ _____    ______ ____
ROOT
ATOM      1  C   UNL     1       3.743   4.883  19.434  0.00  0.00    +0.000 C 
ENDROOT
BRANCH   1   2
ATOM      2  N   UNL     1       2.327   5.143  19.058  0.00  0.00    +0.000 NA
ATOM      3  C   UNL     1       1.566   5.604  20.249  0.00  0.00    +0.000 C 
ATOM      4  C   UNL     1       1.960   7.001  20.799  0.00  0.00    +0.000 C 
ATOM      5  N   UNL     1       2.038   8.020  19.739  0.00  0.00    +0.000 N 
ATOM      6  C   UNL     1       1.103   9.045  19.697  0.00  0.00    +0.000 A 
ATOM      7  C   UNL     1       0.643   9.684  20.858  0.00  0.00    +0.000 A 
ATOM      8  N   UNL     1      -0.249  10.710  20.881  0.00  0.00    +0.000 NA
ATOM      9  C   UNL     1      -0.671  11.114  19.670  0.00  0.00    +0.000 A 
ATOM     10  C   UNL     1      -0.221  10.523  18.506  0.00  0.00    +0.000 A 
ATOM     11  N   UNL     1       0.660   9.492  18.500  0.00  0.00    +0.000 NA
ATOM     12  C   UNL     1       2.669   7.603  18.476  0.00  0.00    +0.000 C 
ATOM     13  C   UNL     1       2.184   6.207  18.029  0.00  0.00    +0.000 C 
ENDBRANCH   1   2
BRANCH   1  14
ATOM     14  C   UNL     1       4.410   3.652  18.744  0.00  0.00    +0.000 C 
BRANCH  14  15
ATOM     15  C   UNL     1       5.235   4.080  17.540  0.00  0.00    +0.000 A 
ATOM     16  C   UNL     1       6.575   4.468  17.721  0.00  0.00    +0.000 A 
ATOM     17  C   UNL     1       7.367   4.828  16.629  0.00  0.00    +0.000 A 
ATOM     18  C   UNL     1       6.825   4.801  15.351  0.00  0.00    +0.000 A 
ATOM     19  F   UNL     1       7.585   5.144  14.303  0.00  0.00    +0.000 F 
ATOM     20  C   UNL     1       5.506   4.422  15.146  0.00  0.00    +0.000 A 
ATOM     21  C   UNL     1       4.711   4.060  16.235  0.00  0.00    +0.000 A 
ENDBRANCH  14  15
BRANCH  14  22
ATOM     22  N   UNL     1       5.194   2.848  19.692  0.00  0.00    +0.000 NA
ATOM     23  H   UNL     1       4.936   1.870  19.526  0.00  0.00    +0.000 HD
ATOM     24  H   UNL     1       4.870   3.039  20.636  0.00  0.00    +0.000 HD
ENDBRANCH  14  22
ENDBRANCH   1  14
TORSDOF 4
ENDMDL
MODEL 3
REMARK VINA RESULT:      -6.9      0.068      1.033
REMARK  Name = 
REMARK  4 active torsions:
REMARK  status: ('A' for Active; 'I' for Inactive)
REMARK    1  A    between atoms: N_1  and  C_2
REMARK    2  A    between atoms: C_2  and  C_3
REMARK    3  A    between atoms: C_2  and  C_16
REMARK    4  A    between atoms: C_3  and  N_4
REMARK                            x       y       z     vdW  Elec       q    Type
REMARK                         _______ _______ _______ _____ _____    ______ ____
ROOT
ATOM      1  C   UNL     1       2.873   3.424  19.100  0.00  0.00    +0.000 C 
ENDROOT
BRANCH   1   2
ATOM      2  N   UNL     1       1.612   4.178  18.868  0.00  0.00    +0.000 NA
ATOM      3  C   UNL     1       1.019   4.582  20.170  0.00  0.00    +0.000 C 
ATOM      4  C   UNL     1       1.821   5.639  20.975  0.00  0.00    +0.000 C 
ATOM      5  N   UNL     1       2.223   6.789  20.147  0.00  0.00    +0.000 N 
ATOM      6  C   UNL     1       1.653   8.034  20.372  0.00  0.00    +0.000 A 
ATOM      7  C   UNL     1       1.402   8.517  21.665  0.00  0.00    +0.000 A 
ATOM      8  N   UNL     1       0.871   9.736  21.951  0.00  0.00    +0.000 NA
ATOM      9  C   UNL     1       0.609  10.501  20.876  0.00  0.00    +0.000 A 
ATOM     10  C   UNL     1       0.866  10.065  19.591  0.00  0.00    +0.000 A 
ATOM     11  N   UNL     1       1.383   8.841  19.321  0.00  0.00    +0.000 NA
ATOM     12  C   UNL     1       2.707   6.481  18.791  0.00  0.00    +0.000 C 
ATOM     13  C   UNL     1       1.817   5.430  18.092  0.00  0.00    +0.000 C 
ENDBRANCH   1   2
BRANCH   1  14
ATOM     14  C   UNL     1       3.656   3.005  17.816  0.00  0.00    +0.000 C 
BRANCH  14  15
ATOM     15  C   UNL     1       4.752   4.009  17.492  0.00  0.00    +0.000 A 
ATOM     16  C   UNL     1       5.638   4.419  18.504  0.00  0.00    +0.000 A 
ATOM     17  C   UNL     1       6.677   5.309  18.226  0.00  0.00    +0.000 A 
ATOM     18  C   UNL     1       6.836   5.793  16.934  0.00  0.00    +0.000 A 
ATOM     19  F   UNL     1       7.835   6.645  16.665  0.00  0.00    +0.000 F 
ATOM     20  C   UNL     1       5.975   5.405  15.917  0.00  0.00    +0.000 A 
ATOM     21  C   UNL     1       4.935   4.513  16.192  0.00  0.00    +0.000 A 
ENDBRANCH  14  15
BRANCH  14  22
ATOM     22  N   UNL     1       4.175   1.633  17.912  0.00  0.00    +0.000 NA
ATOM     23  H   UNL     1       3.509   1.035  17.414  0.00  0.00    +0.000 HD
ATOM     24  H   UNL     1       4.121   1.323  18.878  0.00  0.00    +0.000 HD
ENDBRANCH  14  22
ENDBRANCH   1  14
TORSDOF 4
ENDMDL
MODEL 4
REMARK VINA RESULT:      -6.9      1.356      1.467
REMARK  Name = 
REMARK  4 active torsions:
REMARK  status: ('A' for Active; 'I' for Inactive)
REMARK    1  A    between atoms: N_1  and  C_2
REMARK    2  A    between atoms: C_2  and  C_3
REMARK    3  A    between atoms: C_2  and  C_16
REMARK    4  A    between atoms: C_3  and  N_4
REMARK                            x       y       z     vdW  Elec       q    Type
REMARK                         _______ _______ _______ _____ _____    ______ ____
ROOT
ATOM      1  C   UNL     1       3.687   4.704  19.533  0.00  0.00    +0.000 C 
ENDROOT
BRANCH   1   2
ATOM      2  N   UNL     1       2.298   5.008  19.097  0.00  0.00    +0.000 NA
ATOM      3  C   UNL     1       1.497   5.480  20.258  0.00  0.00    +0.000 C 
ATOM      4  C   UNL     1       1.906   6.859  20.841  0.00  0.00    +0.000 C 
ATOM      5  N   UNL     1       2.060   7.886  19.796  0.00  0.00    +0.000 N 
ATOM      6  C   UNL     1       1.157   8.937  19.723  0.00  0.00    +0.000 A 
ATOM      7  C   UNL     1       0.664   9.579  20.870  0.00  0.00    +0.000 A 
ATOM      8  N   UNL     1      -0.199  10.629  20.864  0.00  0.00    +0.000 NA
ATOM      9  C   UNL     1      -0.554  11.057  19.640  0.00  0.00    +0.000 A 
ATOM     10  C   UNL     1      -0.069  10.464  18.491  0.00  0.00    +0.000 A 
ATOM     11  N   UNL     1       0.781   9.409  18.513  0.00  0.00    +0.000 NA
ATOM     12  C   UNL     1       2.735   7.463  18.558  0.00  0.00    +0.000 C 
ATOM     13  C   UNL     1       2.231   6.086  18.075  0.00  0.00    +0.000 C 
ENDBRANCH   1   2
BRANCH   1  14
ATOM     14  C   UNL     1       4.364   3.486  18.829  0.00  0.00    +0.000 C 
BRANCH  14  15
ATOM     15  C   UNL     1       5.237   3.940  17.669  0.00  0.00    +0.000 A 
ATOM     16  C   UNL     1       4.739   3.863  16.355  0.00  0.00    +0.000 A 
ATOM     17  C   UNL     1       5.504   4.309  15.276  0.00  0.00    +0.000 A 
ATOM     18  C   UNL     1       6.768   4.835  15.503  0.00  0.00    +0.000 A 
ATOM     19  F   UNL     1       7.501   5.267  14.467  0.00  0.00    +0.000 F 
ATOM     20  C   UNL     1       7.282   4.922  16.789  0.00  0.00    +0.000 A 
ATOM     21  C   UNL     1       6.520   4.479  17.872  0.00  0.00    +0.000 A 
ENDBRANCH  14  15
BRANCH  14  22
ATOM     22  N   UNL     1       5.104   2.644  19.779  0.00  0.00    +0.000 NA
ATOM     23  H   UNL     1       4.525   2.579  20.622  0.00  0.00    +0.000 HD
ATOM     24  H   UNL     1       5.938   3.139  20.083  0.00  0.00    +0.000 HD
ENDBRANCH  14  22
ENDBRANCH   1  14
TORSDOF 4
ENDMDL
MODEL 5
REMARK VINA RESULT:      -6.9      1.109      1.641
REMARK  Name = 
REMARK  4 active torsions:
REMARK  status: ('A' for Active; 'I' for Inactive)
REMARK    1  A    between atoms: N_1  and  C_2
REMARK    2  A    between atoms: C_2  and  C_3
REMARK    3  A    between atoms: C_2  and  C_16
REMARK    4  A    between atoms: C_3  and  N_4
REMARK                            x       y       z     vdW  Elec       q    Type
REMARK                         _______ _______ _______ _____ _____    ______ ____
ROOT
ATOM      1  C   UNL     1       3.602   4.182  18.601  0.00  0.00    +0.000 C 
ENDROOT
BRANCH   1   2
ATOM      2  N   UNL     1       2.223   4.703  18.397  0.00  0.00    +0.000 NA
ATOM      3  C   UNL     1       1.516   4.784  19.702  0.00  0.00    +0.000 C 
ATOM      4  C   UNL     1       2.061   5.845  20.697  0.00  0.00    +0.000 C 
ATOM      5  N   UNL     1       2.251   7.161  20.065  0.00  0.00    +0.000 N 
ATOM      6  C   UNL     1       1.435   8.223  20.425  0.00  0.00    +0.000 A 
ATOM      7  C   UNL     1       1.047   8.450  21.755  0.00  0.00    +0.000 A 
ATOM      8  N   UNL     1       0.272   9.486  22.174  0.00  0.00    +0.000 NA
ATOM      9  C   UNL     1      -0.101  10.337  21.203  0.00  0.00    +0.000 A 
ATOM     10  C   UNL     1       0.282  10.157  19.888  0.00  0.00    +0.000 A 
ATOM     11  N   UNL     1       1.044   9.112  19.483  0.00  0.00    +0.000 NA
ATOM     12  C   UNL     1       2.834   7.160  18.713  0.00  0.00    +0.000 C 
ATOM     13  C   UNL     1       2.198   6.072  17.819  0.00  0.00    +0.000 C 
ENDBRANCH   1   2
BRANCH   1  14
ATOM     14  C   UNL     1       4.581   4.373  17.400  0.00  0.00    +0.000 C 
BRANCH  14  15
ATOM     15  C   UNL     1       5.712   5.323  17.762  0.00  0.00    +0.000 A 
ATOM     16  C   UNL     1       6.535   5.033  18.864  0.00  0.00    +0.000 A 
ATOM     17  C   UNL     1       7.605   5.867  19.196  0.00  0.00    +0.000 A 
ATOM     18  C   UNL     1       7.857   6.995  18.426  0.00  0.00    +0.000 A 
ATOM     19  F   UNL     1       8.885   7.794  18.742  0.00  0.00    +0.000 F 
ATOM     20  C   UNL     1       7.059   7.304  17.334  0.00  0.00    +0.000 A 
ATOM     21  C   UNL     1       5.990   6.471  16.998  0.00  0.00    +0.000 A 
ENDBRANCH  14  15
BRANCH  14  22
ATOM     22  N   UNL     1       5.081   3.089  16.890  0.00  0.00    +0.000 NA
ATOM     23  H   UNL     1       6.044   2.997  17.229  0.00  0.00    +0.000 HD
ATOM     24  H   UNL     1       5.174   3.145  15.879  0.00  0.00    +0.000 HD
ENDBRANCH  14  22
ENDBRANCH   1  14
TORSDOF 4
ENDMDL
MODEL 6
REMARK VINA RESULT:      -6.9      1.046      1.262
REMARK  Name = 
REMARK  4 active torsions:
REMARK  status: ('A' for Active; 'I' for Inactive)
REMARK    1  A    between atoms: N_1  and  C_2
REMARK    2  A    between atoms: C_2  and  C_3
REMARK    3  A    between atoms: C_2  and  C_16
REMARK    4  A    between atoms: C_3  and  N_4
REMARK                            x       y       z     vdW  Elec       q    Type
REMARK                         _______ _______ _______ _____ _____    ______ ____
ROOT
ATOM      1  C   UNL     1       3.494   4.196  18.758  0.00  0.00    +0.000 C 
ENDROOT
BRANCH   1   2
ATOM      2  N   UNL     1       2.124   4.728  18.530  0.00  0.00    +0.000 NA
ATOM      3  C   UNL     1       1.408   4.851  19.828  0.00  0.00    +0.000 C 
ATOM      4  C   UNL     1       1.959   5.928  20.800  0.00  0.00    +0.000 C 
ATOM      5  N   UNL     1       2.169   7.226  20.137  0.00  0.00    +0.000 N 
ATOM      6  C   UNL     1       1.363   8.307  20.465  0.00  0.00    +0.000 A 
ATOM      7  C   UNL     1       0.968   8.571  21.786  0.00  0.00    +0.000 A 
ATOM      8  N   UNL     1       0.203   9.626  22.174  0.00  0.00    +0.000 NA
ATOM      9  C   UNL     1      -0.153  10.457  21.179  0.00  0.00    +0.000 A 
ATOM     10  C   UNL     1       0.238  10.240  19.872  0.00  0.00    +0.000 A 
ATOM     11  N   UNL     1       0.990   9.176  19.498  0.00  0.00    +0.000 NA
ATOM     12  C   UNL     1       2.762   7.185  18.791  0.00  0.00    +0.000 C 
ATOM     13  C   UNL     1       2.120   6.083  17.919  0.00  0.00    +0.000 C 
ENDBRANCH   1   2
BRANCH   1  14
ATOM     14  C   UNL     1       4.463   4.280  17.536  0.00  0.00    +0.000 C 
BRANCH  14  15
ATOM     15  C   UNL     1       5.654   5.175  17.843  0.00  0.00    +0.000 A 
ATOM     16  C   UNL     1       5.915   6.288  17.022  0.00  0.00    +0.000 A 
ATOM     17  C   UNL     1       6.978   7.148  17.304  0.00  0.00    +0.000 A 
ATOM     18  C   UNL     1       7.784   6.901  18.407  0.00  0.00    +0.000 A 
ATOM     19  F   UNL     1       8.803   7.729  18.679  0.00  0.00    +0.000 F 
ATOM     20  C   UNL     1       7.549   5.811  19.232  0.00  0.00    +0.000 A 
ATOM     21  C   UNL     1       6.485   4.949  18.955  0.00  0.00    +0.000 A 
ENDBRANCH  14  15
BRANCH  14  22
ATOM     22  N   UNL     1       4.878   2.950  17.071  0.00  0.00    +0.000 NA
ATOM     23  H   UNL     1       4.198   2.665  16.360  0.00  0.00    +0.000 HD
ATOM     24  H   UNL     1       4.751   2.279  17.825  0.00  0.00    +0.000 HD
ENDBRANCH  14  22
ENDBRANCH   1  14
TORSDOF 4
ENDMDL
MODEL 7
REMARK VINA RESULT:      -6.8      3.275      5.145
REMARK  Name = 
REMARK  4 active torsions:
REMARK  status: ('A' for Active; 'I' for Inactive)
REMARK    1  A    between atoms: N_1  and  C_2
REMARK    2  A    between atoms: C_2  and  C_3
REMARK    3  A    between atoms: C_2  and  C_16
REMARK    4  A    between atoms: C_3  and  N_4
REMARK                            x       y       z     vdW  Elec       q    Type
REMARK                         _______ _______ _______ _____ _____    ______ ____
ROOT
ATOM      1  C   UNL     1       5.296   6.425  16.423  0.00  0.00    +0.000 C 
ENDROOT
BRANCH   1   2
ATOM      2  N   UNL     1       4.979   6.662  17.857  0.00  0.00    +0.000 NA
ATOM      3  C   UNL     1       3.506   6.751  18.040  0.00  0.00    +0.000 C 
ATOM      4  C   UNL     1       2.717   5.435  17.802  0.00  0.00    +0.000 C 
ATOM      5  N   UNL     1       3.314   4.289  18.508  0.00  0.00    +0.000 N 
ATOM      6  C   UNL     1       2.641   3.709  19.574  0.00  0.00    +0.000 A 
ATOM      7  C   UNL     1       1.250   3.517  19.564  0.00  0.00    +0.000 A 
ATOM      8  N   UNL     1       0.538   2.933  20.564  0.00  0.00    +0.000 NA
ATOM      9  C   UNL     1       1.276   2.506  21.603  0.00  0.00    +0.000 A 
ATOM     10  C   UNL     1       2.648   2.658  21.635  0.00  0.00    +0.000 A 
ATOM     11  N   UNL     1       3.344   3.254  20.636  0.00  0.00    +0.000 NA
ATOM     12  C   UNL     1       4.782   4.195  18.480  0.00  0.00    +0.000 C 
ATOM     13  C   UNL     1       5.447   5.565  18.745  0.00  0.00    +0.000 C 
ENDBRANCH   1   2
BRANCH   1  14
ATOM     14  C   UNL     1       6.621   5.648  16.143  0.00  0.00    +0.000 C 
BRANCH  14  15
ATOM     15  C   UNL     1       6.556   4.919  14.809  0.00  0.00    +0.000 A 
ATOM     16  C   UNL     1       5.460   4.083  14.529  0.00  0.00    +0.000 A 
ATOM     17  C   UNL     1       5.355   3.432  13.299  0.00  0.00    +0.000 A 
ATOM     18  C   UNL     1       6.344   3.615  12.342  0.00  0.00    +0.000 A 
ATOM     19  F   UNL     1       6.242   2.993  11.159  0.00  0.00    +0.000 F 
ATOM     20  C   UNL     1       7.436   4.434  12.593  0.00  0.00    +0.000 A 
ATOM     21  C   UNL     1       7.543   5.088  13.822  0.00  0.00    +0.000 A 
ENDBRANCH  14  15
BRANCH  14  22
ATOM     22  N   UNL     1       7.800   6.520  16.238  0.00  0.00    +0.000 NA
ATOM     23  H   UNL     1       8.299   6.431  15.347  0.00  0.00    +0.000 HD
ATOM     24  H   UNL     1       8.442   6.138  16.927  0.00  0.00    +0.000 HD
ENDBRANCH  14  22
ENDBRANCH   1  14
TORSDOF 4
ENDMDL
MODEL 8
REMARK VINA RESULT:      -6.7      1.450      1.722
REMARK  Name = 
REMARK  4 active torsions:
REMARK  status: ('A' for Active; 'I' for Inactive)
REMARK    1  A    between atoms: N_1  and  C_2
REMARK    2  A    between atoms: C_2  and  C_3
REMARK    3  A    between atoms: C_2  and  C_16
REMARK    4  A    between atoms: C_3  and  N_4
REMARK                            x       y       z     vdW  Elec       q    Type
REMARK                         _______ _______ _______ _____ _____    ______ ____
ROOT
ATOM      1  C   UNL     1       3.662   4.980  19.812  0.00  0.00    +0.000 C 
ENDROOT
BRANCH   1   2
ATOM      2  N   UNL     1       2.266   5.187  19.339  0.00  0.00    +0.000 NA
ATOM      3  C   UNL     1       1.425   5.693  20.456  0.00  0.00    +0.000 C 
ATOM      4  C   UNL     1       1.759   7.126  20.953  0.00  0.00    +0.000 C 
ATOM      5  N   UNL     1       1.881   8.089  19.845  0.00  0.00    +0.000 N 
ATOM      6  C   UNL     1       0.931   9.089  19.692  0.00  0.00    +0.000 A 
ATOM      7  C   UNL     1       0.389   9.778  20.788  0.00  0.00    +0.000 A 
ATOM      8  N   UNL     1      -0.523  10.783  20.703  0.00  0.00    +0.000 NA
ATOM      9  C   UNL     1      -0.878  11.113  19.449  0.00  0.00    +0.000 A 
ATOM     10  C   UNL     1      -0.347  10.471  18.347  0.00  0.00    +0.000 A 
ATOM     11  N   UNL     1       0.552   9.462  18.449  0.00  0.00    +0.000 NA
ATOM     12  C   UNL     1       2.596   7.621  18.647  0.00  0.00    +0.000 C 
ATOM     13  C   UNL     1       2.165   6.192  18.248  0.00  0.00    +0.000 C 
ENDBRANCH   1   2
BRANCH   1  14
ATOM     14  C   UNL     1       4.653   4.395  18.756  0.00  0.00    +0.000 C 
BRANCH  14  15
ATOM     15  C   UNL     1       5.725   5.411  18.391  0.00  0.00    +0.000 A 
ATOM     16  C   UNL     1       5.510   6.288  17.313  0.00  0.00    +0.000 A 
ATOM     17  C   UNL     1       6.460   7.256  16.981  0.00  0.00    +0.000 A 
ATOM     18  C   UNL     1       7.628   7.352  17.724  0.00  0.00    +0.000 A 
ATOM     19  F   UNL     1       8.539   8.283  17.407  0.00  0.00    +0.000 F 
ATOM     20  C   UNL     1       7.865   6.498  18.792  0.00  0.00    +0.000 A 
ATOM     21  C   UNL     1       6.916   5.530  19.129  0.00  0.00    +0.000 A 
ENDBRANCH  14  15
BRANCH  14  22
ATOM     22  N   UNL     1       5.230   3.116  19.193  0.00  0.00    +0.000 NA
ATOM     23  H   UNL     1       5.848   3.332  19.982  0.00  0.00    +0.000 HD
ATOM     24  H   UNL     1       5.853   2.768  18.471  0.00  0.00    +0.000 HD
ENDBRANCH  14  22
ENDBRANCH   1  14
TORSDOF 4
ENDMDL
MODEL 9
REMARK VINA RESULT:      -6.7      3.333      5.194
REMARK  Name = 
REMARK  4 active torsions:
REMARK  status: ('A' for Active; 'I' for Inactive)
REMARK    1  A    between atoms: N_1  and  C_2
REMARK    2  A    between atoms: C_2  and  C_3
REMARK    3  A    between atoms: C_2  and  C_16
REMARK    4  A    between atoms: C_3  and  N_4
REMARK                            x       y       z     vdW  Elec       q    Type
REMARK                         _______ _______ _______ _____ _____    ______ ____
ROOT
ATOM      1  C   UNL     1       5.228   6.358  16.273  0.00  0.00    +0.000 C 
ENDROOT
BRANCH   1   2
ATOM      2  N   UNL     1       4.995   6.592  17.723  0.00  0.00    +0.000 NA
ATOM      3  C   UNL     1       3.538   6.735  17.984  0.00  0.00    +0.000 C 
ATOM      4  C   UNL     1       2.689   5.451  17.776  0.00  0.00    +0.000 C 
ATOM      5  N   UNL     1       3.277   4.276  18.440  0.00  0.00    +0.000 N 
ATOM      6  C   UNL     1       2.638   3.712  19.535  0.00  0.00    +0.000 A 
ATOM      7  C   UNL     1       1.243   3.572  19.596  0.00  0.00    +0.000 A 
ATOM      8  N   UNL     1       0.562   3.004  20.627  0.00  0.00    +0.000 NA
ATOM      9  C   UNL     1       1.335   2.540  21.623  0.00  0.00    +0.000 A 
ATOM     10  C   UNL     1       2.712   2.640  21.585  0.00  0.00    +0.000 A 
ATOM     11  N   UNL     1       3.377   3.220  20.556  0.00  0.00    +0.000 NA
ATOM     12  C   UNL     1       4.737   4.128  18.336  0.00  0.00    +0.000 C 
ATOM     13  C   UNL     1       5.466   5.469  18.577  0.00  0.00    +0.000 C 
ENDBRANCH   1   2
BRANCH   1  14
ATOM     14  C   UNL     1       6.520   5.558  15.917  0.00  0.00    +0.000 C 
BRANCH  14  15
ATOM     15  C   UNL     1       6.360   4.820  14.596  0.00  0.00    +0.000 A 
ATOM     16  C   UNL     1       7.414   4.831  13.664  0.00  0.00    +0.000 A 
ATOM     17  C   UNL     1       7.310   4.130  12.461  0.00  0.00    +0.000 A 
ATOM     18  C   UNL     1       6.152   3.415  12.184  0.00  0.00    +0.000 A 
ATOM     19  F   UNL     1       6.053   2.740  11.031  0.00  0.00    +0.000 F 
ATOM     20  C   UNL     1       5.098   3.389  13.086  0.00  0.00    +0.000 A 
ATOM     21  C   UNL     1       5.200   4.087  14.292  0.00  0.00    +0.000 A 
ENDBRANCH  14  15
BRANCH  14  22
ATOM     22  N   UNL     1       7.717   6.411  15.931  0.00  0.00    +0.000 NA
ATOM     23  H   UNL     1       7.403   7.346  16.210  0.00  0.00    +0.000 HD
ATOM     24  H   UNL     1       8.051   6.530  14.979  0.00  0.00    +0.000 HD
ENDBRANCH  14  22
ENDBRANCH   1  14
TORSDOF 4
ENDMDL
