MODEL 1
REMARK VINA RESULT:      -7.9      0.000      0.000
REMARK  Name = 
REMARK  4 active torsions:
REMARK  status: ('A' for Active; 'I' for Inactive)
REMARK    1  A    between atoms: C_2  and  C_15
REMARK    2  A    between atoms: N_3  and  C_4
REMARK    3  A    between atoms: C_4  and  C_5
REMARK    4  A    between atoms: C_8  and  C_9
REMARK                            x       y       z     vdW  Elec       q    Type
REMARK                         _______ _______ _______ _____ _____    ______ ____
ROOT
ATOM      1  O   UNL     1       4.192   7.243  17.216  0.00  0.00    +0.000 OA
ATOM      2  C   UNL     1       3.694   6.256  17.754  0.00  0.00    +0.000 C 
ATOM      3  N   UNL     1       4.421   5.128  18.057  0.00  0.00    +0.000 N 
ATOM      4  H   UNL     1       3.961   4.313  18.443  0.00  0.00    +0.000 HD
ENDROOT
BRANCH   2   5
ATOM      5  C   UNL     1       2.225   6.258  18.195  0.00  0.00    +0.000 C 
ATOM      6  C   UNL     1       1.970   7.385  19.196  0.00  0.00    +0.000 C 
ATOM      7  C   UNL     1       2.397   6.945  20.585  0.00  0.00    +0.000 C 
ATOM      8  O   UNL     1       1.662   5.806  21.030  0.00  0.00    +0.000 OA
ATOM      9  C   UNL     1       1.543   4.787  20.128  0.00  0.00    +0.000 A 
ATOM     10  N   UNL     1       1.178   3.616  20.684  0.00  0.00    +0.000 NA
ATOM     11  C   UNL     1       1.040   2.554  19.863  0.00  0.00    +0.000 A 
ATOM     12  C   UNL     1       1.264   2.602  18.500  0.00  0.00    +0.000 A 
ATOM     13  C   UNL     1       1.641   3.816  17.942  0.00  0.00    +0.000 A 
ATOM     14  C   UNL     1       1.779   4.940  18.764  0.00  0.00    +0.000 A 
ENDBRANCH   2   5
BRANCH   3  15
ATOM     15  C   UNL     1       5.823   5.003  17.736  0.00  0.00    +0.000 C 
BRANCH  15  16
ATOM     16  C   UNL     1       6.033   4.696  16.275  0.00  0.00    +0.000 A 
ATOM     17  C   UNL     1       7.181   5.140  15.607  0.00  0.00    +0.000 A 
ATOM     18  C   UNL     1       7.377   4.841  14.257  0.00  0.00    +0.000 A 
ATOM     19  C   UNL     1       6.427   4.095  13.545  0.00  0.00    +0.000 A 
ATOM     20  C   UNL     1       5.266   3.671  14.208  0.00  0.00    +0.000 A 
ATOM     21  C   UNL     1       5.071   3.971  15.559  0.00  0.00    +0.000 A 
BRANCH  19  22
ATOM     22  C   UNL     1       6.648   3.743  12.094  0.00  0.00    +0.000 C 
ATOM     23  F   UNL     1       7.343   2.583  11.916  0.00  0.00    +0.000 F 
ATOM     24  F   UNL     1       5.480   3.580  11.413  0.00  0.00    +0.000 F 
ATOM     25  F   UNL     1       7.344   4.700  11.420  0.00  0.00    +0.000 F 
ENDBRANCH  19  22
ENDBRANCH  15  16
ENDBRANCH   3  15
TORSDOF 4
ENDMDL
MODEL 2
REMARK VINA RESULT:      -7.8      0.071      1.254
REMARK  Name = 
REMARK  4 active torsions:
REMARK  status: ('A' for Active; 'I' for Inactive)
REMARK    1  A    between atoms: C_2  and  C_15
REMARK    2  A    between atoms: N_3  and  C_4
REMARK    3  A    between atoms: C_4  and  C_5
REMARK    4  A    between atoms: C_8  and  C_9
REMARK                            x       y       z     vdW  Elec       q    Type
REMARK                         _______ _______ _______ _____ _____    ______ ____
ROOT
ATOM      1  O   UNL     1       4.187   7.377  17.357  0.00  0.00    +0.000 OA
ATOM      2  C   UNL     1       3.688   6.350  17.815  0.00  0.00    +0.000 C 
ATOM      3  N   UNL     1       4.415   5.203  18.033  0.00  0.00    +0.000 N 
ATOM      4  H   UNL     1       3.955   4.360  18.352  0.00  0.00    +0.000 HD
ENDROOT
BRANCH   2   5
ATOM      5  C   UNL     1       2.217   6.316  18.247  0.00  0.00    +0.000 C 
ATOM      6  C   UNL     1       1.936   7.412  19.274  0.00  0.00    +0.000 C 
ATOM      7  C   UNL     1       2.363   6.943  20.654  0.00  0.00    +0.000 C 
ATOM      8  O   UNL     1       1.644   5.780  21.065  0.00  0.00    +0.000 OA
ATOM      9  C   UNL     1       1.548   4.783  20.136  0.00  0.00    +0.000 A 
ATOM     10  N   UNL     1       1.200   3.592  20.659  0.00  0.00    +0.000 NA
ATOM     11  C   UNL     1       1.085   2.550  19.809  0.00  0.00    +0.000 A 
ATOM     12  C   UNL     1       1.316   2.637  18.449  0.00  0.00    +0.000 A 
ATOM     13  C   UNL     1       1.675   3.872  17.926  0.00  0.00    +0.000 A 
ATOM     14  C   UNL     1       1.789   4.976  18.778  0.00  0.00    +0.000 A 
ENDBRANCH   2   5
BRANCH   3  15
ATOM     15  C   UNL     1       5.819   5.105  17.712  0.00  0.00    +0.000 C 
BRANCH  15  16
ATOM     16  C   UNL     1       6.033   4.737  16.265  0.00  0.00    +0.000 A 
ATOM     17  C   UNL     1       5.081   3.984  15.568  0.00  0.00    +0.000 A 
ATOM     18  C   UNL     1       5.278   3.658  14.224  0.00  0.00    +0.000 A 
ATOM     19  C   UNL     1       6.435   4.074  13.550  0.00  0.00    +0.000 A 
ATOM     20  C   UNL     1       7.400   4.808  14.255  0.00  0.00    +0.000 A 
ATOM     21  C   UNL     1       7.201   5.133  15.600  0.00  0.00    +0.000 A 
BRANCH  19  22
ATOM     22  C   UNL     1       6.639   3.751  12.090  0.00  0.00    +0.000 C 
ATOM     23  F   UNL     1       5.474   3.627  11.393  0.00  0.00    +0.000 F 
ATOM     24  F   UNL     1       7.357   4.709  11.440  0.00  0.00    +0.000 F 
ATOM     25  F   UNL     1       7.313   2.584  11.898  0.00  0.00    +0.000 F 
ENDBRANCH  19  22
ENDBRANCH  15  16
ENDBRANCH   3  15
TORSDOF 4
ENDMDL
MODEL 3
REMARK VINA RESULT:      -7.8      4.245      5.591
REMARK  Name = 
REMARK  4 active torsions:
REMARK  status: ('A' for Active; 'I' for Inactive)
REMARK    1  A    between atoms: C_2  and  C_15
REMARK    2  A    between atoms: N_3  and  C_4
REMARK    3  A    between atoms: C_4  and  C_5
REMARK    4  A    between atoms: C_8  and  C_9
REMARK                            x       y       z     vdW  Elec       q    Type
REMARK                         _______ _______ _______ _____ _____    ______ ____
ROOT
ATOM      1  O   UNL     1       0.794   9.156  20.456  0.00  0.00    +0.000 OA
ATOM      2  C   UNL     1       1.185   9.400  19.316  0.00  0.00    +0.000 C 
ATOM      3  N   UNL     1       1.948   8.518  18.586  0.00  0.00    +0.000 N 
ATOM      4  H   UNL     1       2.301   8.782  17.676  0.00  0.00    +0.000 HD
ENDROOT
BRANCH   2   5
ATOM      5  C   UNL     1       0.770  10.693  18.603  0.00  0.00    +0.000 C 
ATOM      6  C   UNL     1       1.273  11.913  19.373  0.00  0.00    +0.000 C 
ATOM      7  C   UNL     1       0.323  12.227  20.516  0.00  0.00    +0.000 C 
ATOM      8  O   UNL     1      -0.990  12.531  20.046  0.00  0.00    +0.000 OA
ATOM      9  C   UNL     1      -1.498  11.677  19.109  0.00  0.00    +0.000 A 
ATOM     10  N   UNL     1      -2.833  11.770  18.964  0.00  0.00    +0.000 NA
ATOM     11  C   UNL     1      -3.418  10.958  18.059  0.00  0.00    +0.000 A 
ATOM     12  C   UNL     1      -2.728  10.037  17.293  0.00  0.00    +0.000 A 
ATOM     13  C   UNL     1      -1.352   9.952  17.455  0.00  0.00    +0.000 A 
ATOM     14  C   UNL     1      -0.713  10.791  18.375  0.00  0.00    +0.000 A 
ENDBRANCH   2   5
BRANCH   3  15
ATOM     15  C   UNL     1       2.377   7.246  19.116  0.00  0.00    +0.000 C 
BRANCH  15  16
ATOM     16  C   UNL     1       3.265   6.510  18.144  0.00  0.00    +0.000 A 
ATOM     17  C   UNL     1       3.236   5.113  18.064  0.00  0.00    +0.000 A 
ATOM     18  C   UNL     1       4.050   4.437  17.152  0.00  0.00    +0.000 A 
ATOM     19  C   UNL     1       4.914   5.145  16.305  0.00  0.00    +0.000 A 
ATOM     20  C   UNL     1       4.960   6.543  16.402  0.00  0.00    +0.000 A 
ATOM     21  C   UNL     1       4.145   7.218  17.315  0.00  0.00    +0.000 A 
BRANCH  19  22
ATOM     22  C   UNL     1       5.774   4.423  15.296  0.00  0.00    +0.000 C 
ATOM     23  F   UNL     1       5.958   3.103  15.584  0.00  0.00    +0.000 F 
ATOM     24  F   UNL     1       5.244   4.455  14.041  0.00  0.00    +0.000 F 
ATOM     25  F   UNL     1       7.022   4.957  15.189  0.00  0.00    +0.000 F 
ENDBRANCH  19  22
ENDBRANCH  15  16
ENDBRANCH   3  15
TORSDOF 4
ENDMDL
MODEL 4
REMARK VINA RESULT:      -7.8      4.548      7.517
REMARK  Name = 
REMARK  4 active torsions:
REMARK  status: ('A' for Active; 'I' for Inactive)
REMARK    1  A    between atoms: C_2  and  C_15
REMARK    2  A    between atoms: N_3  and  C_4
REMARK    3  A    between atoms: C_4  and  C_5
REMARK    4  A    between atoms: C_8  and  C_9
REMARK                            x       y       z     vdW  Elec       q    Type
REMARK                         _______ _______ _______ _____ _____    ______ ____
ROOT
ATOM      1  O   UNL     1       3.538   4.457  17.160  0.00  0.00    +0.000 OA
ATOM      2  C   UNL     1       4.364   4.674  18.045  0.00  0.00    +0.000 C 
ATOM      3  N   UNL     1       4.010   5.102  19.303  0.00  0.00    +0.000 N 
ATOM      4  H   UNL     1       4.724   5.329  19.984  0.00  0.00    +0.000 HD
ENDROOT
BRANCH   2   5
ATOM      5  C   UNL     1       5.855   4.398  17.813  0.00  0.00    +0.000 C 
ATOM      6  C   UNL     1       6.710   5.360  18.637  0.00  0.00    +0.000 C 
ATOM      7  C   UNL     1       6.833   6.689  17.912  0.00  0.00    +0.000 C 
ATOM      8  O   UNL     1       7.462   6.542  16.639  0.00  0.00    +0.000 OA
ATOM      9  C   UNL     1       7.001   5.518  15.863  0.00  0.00    +0.000 A 
ATOM     10  N   UNL     1       7.341   5.630  14.566  0.00  0.00    +0.000 NA
ATOM     11  C   UNL     1       6.923   4.659  13.727  0.00  0.00    +0.000 A 
ATOM     12  C   UNL     1       6.161   3.576  14.123  0.00  0.00    +0.000 A 
ATOM     13  C   UNL     1       5.816   3.475  15.464  0.00  0.00    +0.000 A 
ATOM     14  C   UNL     1       6.247   4.458  16.363  0.00  0.00    +0.000 A 
ENDBRANCH   2   5
BRANCH   3  15
ATOM     15  C   UNL     1       2.640   5.362  19.674  0.00  0.00    +0.000 C 
BRANCH  15  16
ATOM     16  C   UNL     1       2.273   6.809  19.464  0.00  0.00    +0.000 A 
ATOM     17  C   UNL     1       2.548   7.450  18.250  0.00  0.00    +0.000 A 
ATOM     18  C   UNL     1       2.193   8.787  18.056  0.00  0.00    +0.000 A 
ATOM     19  C   UNL     1       1.559   9.513  19.074  0.00  0.00    +0.000 A 
ATOM     20  C   UNL     1       1.305   8.878  20.298  0.00  0.00    +0.000 A 
ATOM     21  C   UNL     1       1.661   7.541  20.491  0.00  0.00    +0.000 A 
BRANCH  19  22
ATOM     22  C   UNL     1       1.145  10.948  18.860  0.00  0.00    +0.000 C 
ATOM     23  F   UNL     1      -0.079  11.080  18.273  0.00  0.00    +0.000 F 
ATOM     24  F   UNL     1       1.072  11.650  20.025  0.00  0.00    +0.000 F 
ATOM     25  F   UNL     1       2.013  11.633  18.064  0.00  0.00    +0.000 F 
ENDBRANCH  19  22
ENDBRANCH  15  16
ENDBRANCH   3  15
TORSDOF 4
ENDMDL
MODEL 5
REMARK VINA RESULT:      -7.8      4.530      7.529
REMARK  Name = 
REMARK  4 active torsions:
REMARK  status: ('A' for Active; 'I' for Inactive)
REMARK    1  A    between atoms: C_2  and  C_15
REMARK    2  A    between atoms: N_3  and  C_4
REMARK    3  A    between atoms: C_4  and  C_5
REMARK    4  A    between atoms: C_8  and  C_9
REMARK                            x       y       z     vdW  Elec       q    Type
REMARK                         _______ _______ _______ _____ _____    ______ ____
ROOT
ATOM      1  O   UNL     1       3.603   4.500  17.207  0.00  0.00    +0.000 OA
ATOM      2  C   UNL     1       4.421   4.730  18.097  0.00  0.00    +0.000 C 
ATOM      3  N   UNL     1       4.054   5.165  19.350  0.00  0.00    +0.000 N 
ATOM      4  H   UNL     1       4.761   5.403  20.034  0.00  0.00    +0.000 HD
ENDROOT
BRANCH   2   5
ATOM      5  C   UNL     1       5.915   4.466  17.878  0.00  0.00    +0.000 C 
ATOM      6  C   UNL     1       6.757   5.439  18.702  0.00  0.00    +0.000 C 
ATOM      7  C   UNL     1       6.874   6.765  17.970  0.00  0.00    +0.000 C 
ATOM      8  O   UNL     1       7.514   6.616  16.703  0.00  0.00    +0.000 OA
ATOM      9  C   UNL     1       7.066   5.583  15.930  0.00  0.00    +0.000 A 
ATOM     10  N   UNL     1       7.416   5.690  14.634  0.00  0.00    +0.000 NA
ATOM     11  C   UNL     1       7.011   4.711  13.798  0.00  0.00    +0.000 A 
ATOM     12  C   UNL     1       6.255   3.624  14.195  0.00  0.00    +0.000 A 
ATOM     13  C   UNL     1       5.901   3.529  15.534  0.00  0.00    +0.000 A 
ATOM     14  C   UNL     1       6.317   4.520  16.430  0.00  0.00    +0.000 A 
ENDBRANCH   2   5
BRANCH   3  15
ATOM     15  C   UNL     1       2.679   5.416  19.709  0.00  0.00    +0.000 C 
BRANCH  15  16
ATOM     16  C   UNL     1       2.298   6.856  19.472  0.00  0.00    +0.000 A 
ATOM     17  C   UNL     1       1.689   7.611  20.481  0.00  0.00    +0.000 A 
ATOM     18  C   UNL     1       1.350   8.949  20.261  0.00  0.00    +0.000 A 
ATOM     19  C   UNL     1       1.608   9.557  19.025  0.00  0.00    +0.000 A 
ATOM     20  C   UNL     1       2.197   8.793  18.006  0.00  0.00    +0.000 A 
ATOM     21  C   UNL     1       2.535   7.455  18.228  0.00  0.00    +0.000 A 
BRANCH  19  22
ATOM     22  C   UNL     1       1.273  11.010  18.791  0.00  0.00    +0.000 C 
ATOM     23  F   UNL     1       1.283  11.760  19.929  0.00  0.00    +0.000 F 
ATOM     24  F   UNL     1       2.149  11.617  17.942  0.00  0.00    +0.000 F 
ATOM     25  F   UNL     1       0.039  11.183  18.242  0.00  0.00    +0.000 F 
ENDBRANCH  19  22
ENDBRANCH  15  16
ENDBRANCH   3  15
TORSDOF 4
ENDMDL
MODEL 6
REMARK VINA RESULT:      -7.7      4.269      5.623
REMARK  Name = 
REMARK  4 active torsions:
REMARK  status: ('A' for Active; 'I' for Inactive)
REMARK    1  A    between atoms: C_2  and  C_15
REMARK    2  A    between atoms: N_3  and  C_4
REMARK    3  A    between atoms: C_4  and  C_5
REMARK    4  A    between atoms: C_8  and  C_9
REMARK                            x       y       z     vdW  Elec       q    Type
REMARK                         _______ _______ _______ _____ _____    ______ ____
ROOT
ATOM      1  O   UNL     1       0.642   8.992  20.323  0.00  0.00    +0.000 OA
ATOM      2  C   UNL     1       1.148   9.280  19.239  0.00  0.00    +0.000 C 
ATOM      3  N   UNL     1       2.007   8.436  18.573  0.00  0.00    +0.000 N 
ATOM      4  H   UNL     1       2.450   8.735  17.714  0.00  0.00    +0.000 HD
ENDROOT
BRANCH   2   5
ATOM      5  C   UNL     1       0.783  10.585  18.523  0.00  0.00    +0.000 C 
ATOM      6  C   UNL     1       1.452  11.776  19.207  0.00  0.00    +0.000 C 
ATOM      7  C   UNL     1       0.636  12.199  20.416  0.00  0.00    +0.000 C 
ATOM      8  O   UNL     1      -0.683  12.604  20.050  0.00  0.00    +0.000 OA
ATOM      9  C   UNL     1      -1.341  11.774  19.188  0.00  0.00    +0.000 A 
ATOM     10  N   UNL     1      -2.672  11.979  19.154  0.00  0.00    +0.000 NA
ATOM     11  C   UNL     1      -3.400  11.197  18.330  0.00  0.00    +0.000 A 
ATOM     12  C   UNL     1      -2.860  10.201  17.538  0.00  0.00    +0.000 A 
ATOM     13  C   UNL     1      -1.487  10.002  17.585  0.00  0.00    +0.000 A 
ATOM     14  C   UNL     1      -0.701  10.805  18.419  0.00  0.00    +0.000 A 
ENDBRANCH   2   5
BRANCH   3  15
ATOM     15  C   UNL     1       2.406   7.158  19.110  0.00  0.00    +0.000 C 
BRANCH  15  16
ATOM     16  C   UNL     1       3.372   6.447  18.195  0.00  0.00    +0.000 A 
ATOM     17  C   UNL     1       4.156   7.165  17.284  0.00  0.00    +0.000 A 
ATOM     18  C   UNL     1       5.059   6.504  16.448  0.00  0.00    +0.000 A 
ATOM     19  C   UNL     1       5.193   5.109  16.504  0.00  0.00    +0.000 A 
ATOM     20  C   UNL     1       4.391   4.388  17.400  0.00  0.00    +0.000 A 
ATOM     21  C   UNL     1       3.487   5.051  18.234  0.00  0.00    +0.000 A 
BRANCH  19  22
ATOM     22  C   UNL     1       6.189   4.392  15.626  0.00  0.00    +0.000 C 
ATOM     23  F   UNL     1       6.248   4.883  14.355  0.00  0.00    +0.000 F 
ATOM     24  F   UNL     1       7.461   4.468  16.109  0.00  0.00    +0.000 F 
ATOM     25  F   UNL     1       5.917   3.063  15.497  0.00  0.00    +0.000 F 
ENDBRANCH  19  22
ENDBRANCH  15  16
ENDBRANCH   3  15
TORSDOF 4
ENDMDL
MODEL 7
REMARK VINA RESULT:      -7.7      5.062      6.955
REMARK  Name = 
REMARK  4 active torsions:
REMARK  status: ('A' for Active; 'I' for Inactive)
REMARK    1  A    between atoms: C_2  and  C_15
REMARK    2  A    between atoms: N_3  and  C_4
REMARK    3  A    between atoms: C_4  and  C_5
REMARK    4  A    between atoms: C_8  and  C_9
REMARK                            x       y       z     vdW  Elec       q    Type
REMARK                         _______ _______ _______ _____ _____    ______ ____
ROOT
ATOM      1  O   UNL     1      -0.740   9.312  20.816  0.00  0.00    +0.000 OA
ATOM      2  C   UNL     1       0.168   9.675  20.070  0.00  0.00    +0.000 C 
ATOM      3  N   UNL     1       1.390   9.043  20.023  0.00  0.00    +0.000 N 
ATOM      4  H   UNL     1       2.132   9.410  19.441  0.00  0.00    +0.000 HD
ENDROOT
BRANCH   2   5
ATOM      5  C   UNL     1      -0.042  10.824  19.076  0.00  0.00    +0.000 C 
ATOM      6  C   UNL     1       0.227  12.169  19.750  0.00  0.00    +0.000 C 
ATOM      7  C   UNL     1      -0.999  12.607  20.532  0.00  0.00    +0.000 C 
ATOM      8  O   UNL     1      -2.136  12.774  19.685  0.00  0.00    +0.000 OA
ATOM      9  C   UNL     1      -2.366  11.765  18.794  0.00  0.00    +0.000 A 
ATOM     10  N   UNL     1      -3.612  11.773  18.283  0.00  0.00    +0.000 NA
ATOM     11  C   UNL     1      -3.925  10.806  17.395  0.00  0.00    +0.000 A 
ATOM     12  C   UNL     1      -3.049   9.814  16.997  0.00  0.00    +0.000 A 
ATOM     13  C   UNL     1      -1.769   9.819  17.534  0.00  0.00    +0.000 A 
ATOM     14  C   UNL     1      -1.407  10.816  18.447  0.00  0.00    +0.000 A 
ENDBRANCH   2   5
BRANCH   3  15
ATOM     15  C   UNL     1       1.712   7.922  20.873  0.00  0.00    +0.000 C 
BRANCH  15  16
ATOM     16  C   UNL     1       1.952   6.668  20.070  0.00  0.00    +0.000 A 
ATOM     17  C   UNL     1       2.537   6.731  18.800  0.00  0.00    +0.000 A 
ATOM     18  C   UNL     1       2.769   5.565  18.066  0.00  0.00    +0.000 A 
ATOM     19  C   UNL     1       2.416   4.311  18.586  0.00  0.00    +0.000 A 
ATOM     20  C   UNL     1       1.809   4.251  19.849  0.00  0.00    +0.000 A 
ATOM     21  C   UNL     1       1.576   5.418  20.581  0.00  0.00    +0.000 A 
BRANCH  19  22
ATOM     22  C   UNL     1       2.693   3.046  17.812  0.00  0.00    +0.000 C 
ATOM     23  F   UNL     1       3.954   2.560  17.996  0.00  0.00    +0.000 F 
ATOM     24  F   UNL     1       1.854   2.030  18.156  0.00  0.00    +0.000 F 
ATOM     25  F   UNL     1       2.551   3.209  16.467  0.00  0.00    +0.000 F 
ENDBRANCH  19  22
ENDBRANCH  15  16
ENDBRANCH   3  15
TORSDOF 4
ENDMDL
MODEL 8
REMARK VINA RESULT:      -7.7      4.965      6.705
REMARK  Name = 
REMARK  4 active torsions:
REMARK  status: ('A' for Active; 'I' for Inactive)
REMARK    1  A    between atoms: C_2  and  C_15
REMARK    2  A    between atoms: N_3  and  C_4
REMARK    3  A    between atoms: C_4  and  C_5
REMARK    4  A    between atoms: C_8  and  C_9
REMARK                            x       y       z     vdW  Elec       q    Type
REMARK                         _______ _______ _______ _____ _____    ______ ____
ROOT
ATOM      1  O   UNL     1       2.435  10.848  17.694  0.00  0.00    +0.000 OA
ATOM      2  C   UNL     1       1.580  10.200  18.296  0.00  0.00    +0.000 C 
ATOM      3  N   UNL     1       1.659   8.837  18.459  0.00  0.00    +0.000 N 
ATOM      4  H   UNL     1       0.904   8.332  18.907  0.00  0.00    +0.000 HD
ENDROOT
BRANCH   2   5
ATOM      5  C   UNL     1       0.397  10.901  18.976  0.00  0.00    +0.000 C 
ATOM      6  C   UNL     1       0.603  12.415  18.979  0.00  0.00    +0.000 C 
ATOM      7  C   UNL     1       1.511  12.808  20.130  0.00  0.00    +0.000 C 
ATOM      8  O   UNL     1       0.951  12.452  21.393  0.00  0.00    +0.000 OA
ATOM      9  C   UNL     1       0.444  11.187  21.483  0.00  0.00    +0.000 A 
ATOM     10  N   UNL     1       0.266  10.767  22.749  0.00  0.00    +0.000 NA
ATOM     11  C   UNL     1      -0.230   9.525  22.928  0.00  0.00    +0.000 A 
ATOM     12  C   UNL     1      -0.548   8.667  21.892  0.00  0.00    +0.000 A 
ATOM     13  C   UNL     1      -0.357   9.114  20.592  0.00  0.00    +0.000 A 
ATOM     14  C   UNL     1       0.142  10.403  20.372  0.00  0.00    +0.000 A 
ENDBRANCH   2   5
BRANCH   3  15
ATOM     15  C   UNL     1       2.738   8.053  17.907  0.00  0.00    +0.000 C 
BRANCH  15  16
ATOM     16  C   UNL     1       2.800   6.679  18.525  0.00  0.00    +0.000 A 
ATOM     17  C   UNL     1       3.374   5.607  17.833  0.00  0.00    +0.000 A 
ATOM     18  C   UNL     1       3.442   4.339  18.416  0.00  0.00    +0.000 A 
ATOM     19  C   UNL     1       2.931   4.116  19.702  0.00  0.00    +0.000 A 
ATOM     20  C   UNL     1       2.334   5.185  20.386  0.00  0.00    +0.000 A 
ATOM     21  C   UNL     1       2.267   6.453  19.802  0.00  0.00    +0.000 A 
BRANCH  19  22
ATOM     22  C   UNL     1       3.028   2.757  20.350  0.00  0.00    +0.000 C 
ATOM     23  F   UNL     1       4.258   2.181  20.224  0.00  0.00    +0.000 F 
ATOM     24  F   UNL     1       2.775   2.797  21.687  0.00  0.00    +0.000 F 
ATOM     25  F   UNL     1       2.144   1.861  19.828  0.00  0.00    +0.000 F 
ENDBRANCH  19  22
ENDBRANCH  15  16
ENDBRANCH   3  15
TORSDOF 4
ENDMDL
MODEL 9
REMARK VINA RESULT:      -7.6      4.657      7.492
REMARK  Name = 
REMARK  4 active torsions:
REMARK  status: ('A' for Active; 'I' for Inactive)
REMARK    1  A    between atoms: C_2  and  C_15
REMARK    2  A    between atoms: N_3  and  C_4
REMARK    3  A    between atoms: C_4  and  C_5
REMARK    4  A    between atoms: C_8  and  C_9
REMARK                            x       y       z     vdW  Elec       q    Type
REMARK                         _______ _______ _______ _____ _____    ______ ____
ROOT
ATOM      1  O   UNL     1       5.194   3.389  19.660  0.00  0.00    +0.000 OA
ATOM      2  C   UNL     1       5.436   4.366  18.952  0.00  0.00    +0.000 C 
ATOM      3  N   UNL     1       4.593   5.449  18.866  0.00  0.00    +0.000 N 
ATOM      4  H   UNL     1       4.798   6.205  18.226  0.00  0.00    +0.000 HD
ENDROOT
BRANCH   2   5
ATOM      5  C   UNL     1       6.754   4.464  18.173  0.00  0.00    +0.000 C 
ATOM      6  C   UNL     1       7.580   5.650  18.669  0.00  0.00    +0.000 C 
ATOM      7  C   UNL     1       7.087   6.929  18.016  0.00  0.00    +0.000 C 
ATOM      8  O   UNL     1       7.217   6.884  16.596  0.00  0.00    +0.000 OA
ATOM      9  C   UNL     1       6.776   5.739  15.996  0.00  0.00    +0.000 A 
ATOM     10  N   UNL     1       6.574   5.869  14.671  0.00  0.00    +0.000 NA
ATOM     11  C   UNL     1       6.134   4.784  14.000  0.00  0.00    +0.000 A 
ATOM     12  C   UNL     1       5.872   3.565  14.596  0.00  0.00    +0.000 A 
ATOM     13  C   UNL     1       6.085   3.447  15.963  0.00  0.00    +0.000 A 
ATOM     14  C   UNL     1       6.554   4.549  16.686  0.00  0.00    +0.000 A 
ENDBRANCH   2   5
BRANCH   3  15
ATOM     15  C   UNL     1       3.338   5.510  19.577  0.00  0.00    +0.000 C 
BRANCH  15  16
ATOM     16  C   UNL     1       2.639   6.828  19.359  0.00  0.00    +0.000 A 
ATOM     17  C   UNL     1       2.707   7.479  18.121  0.00  0.00    +0.000 A 
ATOM     18  C   UNL     1       2.046   8.693  17.920  0.00  0.00    +0.000 A 
ATOM     19  C   UNL     1       1.307   9.284  18.955  0.00  0.00    +0.000 A 
ATOM     20  C   UNL     1       1.259   8.643  20.202  0.00  0.00    +0.000 A 
ATOM     21  C   UNL     1       1.921   7.429  20.401  0.00  0.00    +0.000 A 
BRANCH  19  22
ATOM     22  C   UNL     1       0.565  10.580  18.735  0.00  0.00    +0.000 C 
ATOM     23  F   UNL     1      -0.012  11.076  19.866  0.00  0.00    +0.000 F 
ATOM     24  F   UNL     1       1.375  11.571  18.269  0.00  0.00    +0.000 F 
ATOM     25  F   UNL     1      -0.442  10.461  17.826  0.00  0.00    +0.000 F 
ENDBRANCH  19  22
ENDBRANCH  15  16
ENDBRANCH   3  15
TORSDOF 4
ENDMDL
