MODEL 1
REMARK VINA RESULT:      -6.1      0.000      0.000
REMARK  Name = 
REMARK  17 active torsions:
REMARK  status: ('A' for Active; 'I' for Inactive)
REMARK    1  A    between atoms: C_1  and  C_2
REMARK    2  A    between atoms: C_2  and  N_3
REMARK    3  A    between atoms: N_3  and  C_4
REMARK    4  A    between atoms: N_3  and  C_6
REMARK    5  A    between atoms: C_4  and  C_5
REMARK    6  A    between atoms: C_6  and  C_7
REMARK    7  A    between atoms: C_7  and  C_8
REMARK    8  A    between atoms: C_7  and  N_14
REMARK    9  A    between atoms: C_8  and  N_9
REMARK   10  A    between atoms: N_9  and  C_10
REMARK   11  A    between atoms: N_9  and  C_12
REMARK   12  A    between atoms: C_10  and  C_11
REMARK   13  A    between atoms: C_12  and  C_13
REMARK   14  A    between atoms: N_14  and  C_15
REMARK   15  A    between atoms: C_15  and  C_16
REMARK   16  A    between atoms: C_19  and  O_20
REMARK   17  A    between atoms: O_20  and  C_21
REMARK                            x       y       z     vdW  Elec       q    Type
REMARK                         _______ _______ _______ _____ _____    ______ ____
ROOT
ATOM      1  C   UNL     1       3.983   4.223  17.614  0.00  0.00    +0.000 C 
ENDROOT
BRANCH   1   2
ATOM      2  N   UNL     1       3.235   5.515  17.658  0.00  0.00    +0.000 NA
ATOM      3  H   UNL     1       2.261   5.367  17.400  0.00  0.00    +0.000 HD
BRANCH   2   4
ATOM      4  C   UNL     1       3.331   6.181  18.952  0.00  0.00    +0.000 C 
BRANCH   4   5
ATOM      5  C   UNL     1       2.519   7.458  19.048  0.00  0.00    +0.000 A 
ATOM      6  C   UNL     1       2.324   8.264  17.915  0.00  0.00    +0.000 A 
ATOM      7  C   UNL     1       1.462   9.364  17.965  0.00  0.00    +0.000 A 
ATOM      8  C   UNL     1       0.771   9.671  19.134  0.00  0.00    +0.000 A 
ATOM      9  C   UNL     1       0.995   8.904  20.277  0.00  0.00    +0.000 A 
ATOM     10  C   UNL     1       1.864   7.806  20.236  0.00  0.00    +0.000 A 
BRANCH   8  11
ATOM     11  O   UNL     1      -0.065  10.751  19.055  0.00  0.00    +0.000 OA
ATOM     12  C   UNL     1      -0.624  11.186  20.288  0.00  0.00    +0.000 C 
ENDBRANCH   8  11
ENDBRANCH   4   5
ENDBRANCH   2   4
ENDBRANCH   1   2
BRANCH   1  13
ATOM     13  C   UNL     1       2.999   2.985  17.682  0.00  0.00    +0.000 C 
BRANCH  13  14
ATOM     14  N   UNL     1       2.615   2.385  18.984  0.00  0.00    +0.000 NA
BRANCH  14  16
ATOM     15  C   UNL     1       4.611   1.856  20.421  0.00  0.00    +0.000 C 
ATOM     16  C   UNL     1       3.476   2.830  20.093  0.00  0.00    +0.000 C 
ENDBRANCH  14  16
BRANCH  14  17
ATOM     17  C   UNL     1       1.175   2.640  19.252  0.00  0.00    +0.000 C 
ATOM     18  C   UNL     1       0.818   3.794  20.197  0.00  0.00    +0.000 C 
ENDBRANCH  14  17
ENDBRANCH  13  14
ENDBRANCH   1  13
BRANCH   1  19
ATOM     19  C   UNL     1       4.900   4.160  16.333  0.00  0.00    +0.000 C 
BRANCH  19  20
ATOM     20  N   UNL     1       6.197   4.899  16.348  0.00  0.00    +0.000 NA
BRANCH  20  21
ATOM     21  C   UNL     1       6.982   4.733  17.577  0.00  0.00    +0.000 C 
ATOM     22  C   UNL     1       7.413   6.010  18.292  0.00  0.00    +0.000 C 
ENDBRANCH  20  21
BRANCH  20  23
ATOM     23  C   UNL     1       6.959   4.630  15.111  0.00  0.00    +0.000 C 
ATOM     24  C   UNL     1       6.149   4.127  13.914  0.00  0.00    +0.000 C 
ENDBRANCH  20  23
ENDBRANCH  19  20
ENDBRANCH   1  19
TORSDOF 12
ENDMDL
MODEL 2
REMARK VINA RESULT:      -6.1      0.935      4.454
REMARK  Name = 
REMARK  17 active torsions:
REMARK  status: ('A' for Active; 'I' for Inactive)
REMARK    1  A    between atoms: C_1  and  C_2
REMARK    2  A    between atoms: C_2  and  N_3
REMARK    3  A    between atoms: N_3  and  C_4
REMARK    4  A    between atoms: N_3  and  C_6
REMARK    5  A    between atoms: C_4  and  C_5
REMARK    6  A    between atoms: C_6  and  C_7
REMARK    7  A    between atoms: C_7  and  C_8
REMARK    8  A    between atoms: C_7  and  N_14
REMARK    9  A    between atoms: C_8  and  N_9
REMARK   10  A    between atoms: N_9  and  C_10
REMARK   11  A    between atoms: N_9  and  C_12
REMARK   12  A    between atoms: C_10  and  C_11
REMARK   13  A    between atoms: C_12  and  C_13
REMARK   14  A    between atoms: N_14  and  C_15
REMARK   15  A    between atoms: C_15  and  C_16
REMARK   16  A    between atoms: C_19  and  O_20
REMARK   17  A    between atoms: O_20  and  C_21
REMARK                            x       y       z     vdW  Elec       q    Type
REMARK                         _______ _______ _______ _____ _____    ______ ____
ROOT
ATOM      1  C   UNL     1       4.078   4.067  17.895  0.00  0.00    +0.000 C 
ENDROOT
BRANCH   1   2
ATOM      2  N   UNL     1       3.579   5.463  17.715  0.00  0.00    +0.000 NA
ATOM      3  H   UNL     1       2.648   5.452  17.300  0.00  0.00    +0.000 HD
BRANCH   2   4
ATOM      4  C   UNL     1       3.580   6.229  18.957  0.00  0.00    +0.000 C 
BRANCH   4   5
ATOM      5  C   UNL     1       2.574   7.364  18.980  0.00  0.00    +0.000 A 
ATOM      6  C   UNL     1       1.921   7.710  20.175  0.00  0.00    +0.000 A 
ATOM      7  C   UNL     1       1.100   8.841  20.233  0.00  0.00    +0.000 A 
ATOM      8  C   UNL     1       0.929   9.652  19.115  0.00  0.00    +0.000 A 
ATOM      9  C   UNL     1       1.537   9.289  17.913  0.00  0.00    +0.000 A 
ATOM     10  C   UNL     1       2.352   8.152  17.845  0.00  0.00    +0.000 A 
BRANCH   8  11
ATOM     11  O   UNL     1       0.129  10.745  19.301  0.00  0.00    +0.000 OA
ATOM     12  C   UNL     1      -1.231  10.581  18.916  0.00  0.00    +0.000 C 
ENDBRANCH   8  11
ENDBRANCH   4   5
ENDBRANCH   2   4
ENDBRANCH   1   2
BRANCH   1  13
ATOM     13  C   UNL     1       5.553   3.907  17.344  0.00  0.00    +0.000 C 
BRANCH  13  14
ATOM     14  N   UNL     1       6.209   5.003  16.589  0.00  0.00    +0.000 NA
BRANCH  14  16
ATOM     15  C   UNL     1       7.017   7.241  17.407  0.00  0.00    +0.000 C 
ATOM     16  C   UNL     1       7.217   5.722  17.386  0.00  0.00    +0.000 C 
ENDBRANCH  14  16
BRANCH  14  17
ATOM     17  C   UNL     1       6.769   4.475  15.317  0.00  0.00    +0.000 C 
ATOM     18  C   UNL     1       5.798   4.229  14.156  0.00  0.00    +0.000 C 
ENDBRANCH  14  17
ENDBRANCH  13  14
ENDBRANCH   1  13
BRANCH   1  19
ATOM     19  C   UNL     1       3.978   3.636  19.409  0.00  0.00    +0.000 C 
BRANCH  19  20
ATOM     20  N   UNL     1       3.089   2.492  19.768  0.00  0.00    +0.000 NA
BRANCH  20  21
ATOM     21  C   UNL     1       2.316   2.682  21.000  0.00  0.00    +0.000 C 
ATOM     22  C   UNL     1       2.150   4.118  21.489  0.00  0.00    +0.000 C 
ENDBRANCH  20  21
BRANCH  20  23
ATOM     23  C   UNL     1       2.273   2.089  18.605  0.00  0.00    +0.000 C 
ATOM     24  C   UNL     1       0.784   2.438  18.670  0.00  0.00    +0.000 C 
ENDBRANCH  20  23
ENDBRANCH  19  20
ENDBRANCH   1  19
TORSDOF 12
ENDMDL
MODEL 3
REMARK VINA RESULT:      -6.0      1.390      4.218
REMARK  Name = 
REMARK  17 active torsions:
REMARK  status: ('A' for Active; 'I' for Inactive)
REMARK    1  A    between atoms: C_1  and  C_2
REMARK    2  A    between atoms: C_2  and  N_3
REMARK    3  A    between atoms: N_3  and  C_4
REMARK    4  A    between atoms: N_3  and  C_6
REMARK    5  A    between atoms: C_4  and  C_5
REMARK    6  A    between atoms: C_6  and  C_7
REMARK    7  A    between atoms: C_7  and  C_8
REMARK    8  A    between atoms: C_7  and  N_14
REMARK    9  A    between atoms: C_8  and  N_9
REMARK   10  A    between atoms: N_9  and  C_10
REMARK   11  A    between atoms: N_9  and  C_12
REMARK   12  A    between atoms: C_10  and  C_11
REMARK   13  A    between atoms: C_12  and  C_13
REMARK   14  A    between atoms: N_14  and  C_15
REMARK   15  A    between atoms: C_15  and  C_16
REMARK   16  A    between atoms: C_19  and  O_20
REMARK   17  A    between atoms: O_20  and  C_21
REMARK                            x       y       z     vdW  Elec       q    Type
REMARK                         _______ _______ _______ _____ _____    ______ ____
ROOT
ATOM      1  C   UNL     1       3.828   5.542  17.926  0.00  0.00    +0.000 C 
ENDROOT
BRANCH   1   2
ATOM      2  N   UNL     1       2.587   6.369  17.854  0.00  0.00    +0.000 NA
ATOM      3  H   UNL     1       1.893   6.021  18.514  0.00  0.00    +0.000 HD
BRANCH   2   4
ATOM      4  C   UNL     1       2.840   7.789  18.074  0.00  0.00    +0.000 C 
BRANCH   4   5
ATOM      5  C   UNL     1       1.835   8.458  18.993  0.00  0.00    +0.000 A 
ATOM      6  C   UNL     1       1.696   8.033  20.324  0.00  0.00    +0.000 A 
ATOM      7  C   UNL     1       0.874   8.736  21.211  0.00  0.00    +0.000 A 
ATOM      8  C   UNL     1       0.193   9.877  20.795  0.00  0.00    +0.000 A 
ATOM      9  C   UNL     1       0.289  10.277  19.463  0.00  0.00    +0.000 A 
ATOM     10  C   UNL     1       1.103   9.573  18.567  0.00  0.00    +0.000 A 
BRANCH   8  11
ATOM     11  O   UNL     1      -0.556  10.496  21.758  0.00  0.00    +0.000 OA
ATOM     12  C   UNL     1      -0.474   9.925  23.059  0.00  0.00    +0.000 C 
ENDBRANCH   8  11
ENDBRANCH   4   5
ENDBRANCH   2   4
ENDBRANCH   1   2
BRANCH   1  13
ATOM     13  C   UNL     1       5.088   6.346  17.407  0.00  0.00    +0.000 C 
BRANCH  13  14
ATOM     14  N   UNL     1       6.104   5.697  16.540  0.00  0.00    +0.000 NA
BRANCH  14  16
ATOM     15  C   UNL     1       7.652   5.767  18.522  0.00  0.00    +0.000 C 
ATOM     16  C   UNL     1       7.140   4.986  17.309  0.00  0.00    +0.000 C 
ENDBRANCH  14  16
BRANCH  14  17
ATOM     17  C   UNL     1       5.433   4.816  15.549  0.00  0.00    +0.000 C 
ATOM     18  C   UNL     1       6.315   4.098  14.520  0.00  0.00    +0.000 C 
ENDBRANCH  14  17
ENDBRANCH  13  14
ENDBRANCH   1  13
BRANCH   1  19
ATOM     19  C   UNL     1       4.050   5.006  19.392  0.00  0.00    +0.000 C 
BRANCH  19  20
ATOM     20  N   UNL     1       3.880   3.546  19.652  0.00  0.00    +0.000 NA
BRANCH  20  21
ATOM     21  C   UNL     1       2.747   3.208  20.522  0.00  0.00    +0.000 C 
ATOM     22  C   UNL     1       1.770   4.335  20.842  0.00  0.00    +0.000 C 
ENDBRANCH  20  21
BRANCH  20  23
ATOM     23  C   UNL     1       3.906   2.790  18.383  0.00  0.00    +0.000 C 
ATOM     24  C   UNL     1       2.622   2.045  18.014  0.00  0.00    +0.000 C 
ENDBRANCH  20  23
ENDBRANCH  19  20
ENDBRANCH   1  19
TORSDOF 12
ENDMDL
MODEL 4
REMARK VINA RESULT:      -6.0      1.166      1.527
REMARK  Name = 
REMARK  17 active torsions:
REMARK  status: ('A' for Active; 'I' for Inactive)
REMARK    1  A    between atoms: C_1  and  C_2
REMARK    2  A    between atoms: C_2  and  N_3
REMARK    3  A    between atoms: N_3  and  C_4
REMARK    4  A    between atoms: N_3  and  C_6
REMARK    5  A    between atoms: C_4  and  C_5
REMARK    6  A    between atoms: C_6  and  C_7
REMARK    7  A    between atoms: C_7  and  C_8
REMARK    8  A    between atoms: C_7  and  N_14
REMARK    9  A    between atoms: C_8  and  N_9
REMARK   10  A    between atoms: N_9  and  C_10
REMARK   11  A    between atoms: N_9  and  C_12
REMARK   12  A    between atoms: C_10  and  C_11
REMARK   13  A    between atoms: C_12  and  C_13
REMARK   14  A    between atoms: N_14  and  C_15
REMARK   15  A    between atoms: C_15  and  C_16
REMARK   16  A    between atoms: C_19  and  O_20
REMARK   17  A    between atoms: O_20  and  C_21
REMARK                            x       y       z     vdW  Elec       q    Type
REMARK                         _______ _______ _______ _____ _____    ______ ____
ROOT
ATOM      1  C   UNL     1       4.190   4.981  19.488  0.00  0.00    +0.000 C 
ENDROOT
BRANCH   1   2
ATOM      2  N   UNL     1       3.299   6.055  18.957  0.00  0.00    +0.000 NA
ATOM      3  H   UNL     1       2.791   5.719  18.140  0.00  0.00    +0.000 HD
BRANCH   2   4
ATOM      4  C   UNL     1       2.375   6.573  19.961  0.00  0.00    +0.000 C 
BRANCH   4   5
ATOM      5  C   UNL     1       1.864   7.969  19.664  0.00  0.00    +0.000 A 
ATOM      6  C   UNL     1       2.028   8.531  18.387  0.00  0.00    +0.000 A 
ATOM      7  C   UNL     1       1.436   9.757  18.069  0.00  0.00    +0.000 A 
ATOM      8  C   UNL     1       0.662  10.435  19.006  0.00  0.00    +0.000 A 
ATOM      9  C   UNL     1       0.533   9.908  20.290  0.00  0.00    +0.000 A 
ATOM     10  C   UNL     1       1.131   8.685  20.618  0.00  0.00    +0.000 A 
BRANCH   8  11
ATOM     11  O   UNL     1       0.111  11.609  18.571  0.00  0.00    +0.000 OA
ATOM     12  C   UNL     1      -1.121  11.972  19.183  0.00  0.00    +0.000 C 
ENDBRANCH   8  11
ENDBRANCH   4   5
ENDBRANCH   2   4
ENDBRANCH   1   2
BRANCH   1  13
ATOM     13  C   UNL     1       3.387   3.644  19.752  0.00  0.00    +0.000 C 
BRANCH  13  14
ATOM     14  N   UNL     1       2.182   3.306  18.953  0.00  0.00    +0.000 NA
BRANCH  14  16
ATOM     15  C   UNL     1       3.631   1.373  18.252  0.00  0.00    +0.000 C 
ATOM     16  C   UNL     1       2.447   2.287  17.923  0.00  0.00    +0.000 C 
ENDBRANCH  14  16
BRANCH  14  17
ATOM     17  C   UNL     1       1.070   2.915  19.859  0.00  0.00    +0.000 C 
ATOM     18  C   UNL     1       1.355   2.876  21.365  0.00  0.00    +0.000 C 
ENDBRANCH  14  17
ENDBRANCH  13  14
ENDBRANCH   1  13
BRANCH   1  19
ATOM     19  C   UNL     1       5.405   4.741  18.513  0.00  0.00    +0.000 C 
BRANCH  19  20
ATOM     20  N   UNL     1       5.265   5.150  17.084  0.00  0.00    +0.000 NA
BRANCH  20  21
ATOM     21  C   UNL     1       6.157   6.240  16.671  0.00  0.00    +0.000 C 
ATOM     22  C   UNL     1       7.282   6.607  17.633  0.00  0.00    +0.000 C 
ENDBRANCH  20  21
BRANCH  20  23
ATOM     23  C   UNL     1       5.317   3.968  16.200  0.00  0.00    +0.000 C 
ATOM     24  C   UNL     1       5.965   4.176  14.830  0.00  0.00    +0.000 C 
ENDBRANCH  20  23
ENDBRANCH  19  20
ENDBRANCH   1  19
TORSDOF 12
ENDMDL
MODEL 5
REMARK VINA RESULT:      -5.9      1.531      2.135
REMARK  Name = 
REMARK  17 active torsions:
REMARK  status: ('A' for Active; 'I' for Inactive)
REMARK    1  A    between atoms: C_1  and  C_2
REMARK    2  A    between atoms: C_2  and  N_3
REMARK    3  A    between atoms: N_3  and  C_4
REMARK    4  A    between atoms: N_3  and  C_6
REMARK    5  A    between atoms: C_4  and  C_5
REMARK    6  A    between atoms: C_6  and  C_7
REMARK    7  A    between atoms: C_7  and  C_8
REMARK    8  A    between atoms: C_7  and  N_14
REMARK    9  A    between atoms: C_8  and  N_9
REMARK   10  A    between atoms: N_9  and  C_10
REMARK   11  A    between atoms: N_9  and  C_12
REMARK   12  A    between atoms: C_10  and  C_11
REMARK   13  A    between atoms: C_12  and  C_13
REMARK   14  A    between atoms: N_14  and  C_15
REMARK   15  A    between atoms: C_15  and  C_16
REMARK   16  A    between atoms: C_19  and  O_20
REMARK   17  A    between atoms: O_20  and  C_21
REMARK                            x       y       z     vdW  Elec       q    Type
REMARK                         _______ _______ _______ _____ _____    ______ ____
ROOT
ATOM      1  C   UNL     1       3.659   4.885  19.297  0.00  0.00    +0.000 C 
ENDROOT
BRANCH   1   2
ATOM      2  N   UNL     1       3.279   6.175  19.946  0.00  0.00    +0.000 NA
ATOM      3  H   UNL     1       4.084   6.582  20.418  0.00  0.00    +0.000 HD
BRANCH   2   4
ATOM      4  C   UNL     1       2.693   7.128  19.009  0.00  0.00    +0.000 C 
BRANCH   4   5
ATOM      5  C   UNL     1       1.707   8.088  19.646  0.00  0.00    +0.000 A 
ATOM      6  C   UNL     1       1.250   7.874  20.957  0.00  0.00    +0.000 A 
ATOM      7  C   UNL     1       0.453   8.829  21.596  0.00  0.00    +0.000 A 
ATOM      8  C   UNL     1       0.110  10.014  20.951  0.00  0.00    +0.000 A 
ATOM      9  C   UNL     1       0.520  10.213  19.633  0.00  0.00    +0.000 A 
ATOM     10  C   UNL     1       1.311   9.257  18.984  0.00  0.00    +0.000 A 
BRANCH   8  11
ATOM     11  O   UNL     1      -0.648  10.883  21.686  0.00  0.00    +0.000 OA
ATOM     12  C   UNL     1      -0.850  10.520  23.047  0.00  0.00    +0.000 C 
ENDBRANCH   8  11
ENDBRANCH   4   5
ENDBRANCH   2   4
ENDBRANCH   1   2
BRANCH   1  13
ATOM     13  C   UNL     1       2.534   4.385  18.302  0.00  0.00    +0.000 C 
BRANCH  13  14
ATOM     14  N   UNL     1       1.496   3.421  18.745  0.00  0.00    +0.000 NA
BRANCH  14  16
ATOM     15  C   UNL     1       3.255   1.825  17.914  0.00  0.00    +0.000 C 
ATOM     16  C   UNL     1       1.964   2.025  18.714  0.00  0.00    +0.000 C 
ENDBRANCH  14  16
BRANCH  14  17
ATOM     17  C   UNL     1       0.981   3.813  20.084  0.00  0.00    +0.000 C 
ATOM     18  C   UNL     1       1.267   2.873  21.261  0.00  0.00    +0.000 C 
ENDBRANCH  14  17
ENDBRANCH  13  14
ENDBRANCH   1  13
BRANCH   1  19
ATOM     19  C   UNL     1       5.051   5.023  18.569  0.00  0.00    +0.000 C 
BRANCH  19  20
ATOM     20  N   UNL     1       5.065   5.308  17.104  0.00  0.00    +0.000 NA
BRANCH  20  21
ATOM     21  C   UNL     1       5.653   6.602  16.740  0.00  0.00    +0.000 C 
ATOM     22  C   UNL     1       6.978   6.964  17.403  0.00  0.00    +0.000 C 
ENDBRANCH  20  21
BRANCH  20  23
ATOM     23  C   UNL     1       5.631   4.164  16.361  0.00  0.00    +0.000 C 
ATOM     24  C   UNL     1       5.708   4.318  14.840  0.00  0.00    +0.000 C 
ENDBRANCH  20  23
ENDBRANCH  19  20
ENDBRANCH   1  19
TORSDOF 12
ENDMDL
MODEL 6
REMARK VINA RESULT:      -5.9      1.761      2.538
REMARK  Name = 
REMARK  17 active torsions:
REMARK  status: ('A' for Active; 'I' for Inactive)
REMARK    1  A    between atoms: C_1  and  C_2
REMARK    2  A    between atoms: C_2  and  N_3
REMARK    3  A    between atoms: N_3  and  C_4
REMARK    4  A    between atoms: N_3  and  C_6
REMARK    5  A    between atoms: C_4  and  C_5
REMARK    6  A    between atoms: C_6  and  C_7
REMARK    7  A    between atoms: C_7  and  C_8
REMARK    8  A    between atoms: C_7  and  N_14
REMARK    9  A    between atoms: C_8  and  N_9
REMARK   10  A    between atoms: N_9  and  C_10
REMARK   11  A    between atoms: N_9  and  C_12
REMARK   12  A    between atoms: C_10  and  C_11
REMARK   13  A    between atoms: C_12  and  C_13
REMARK   14  A    between atoms: N_14  and  C_15
REMARK   15  A    between atoms: C_15  and  C_16
REMARK   16  A    between atoms: C_19  and  O_20
REMARK   17  A    between atoms: O_20  and  C_21
REMARK                            x       y       z     vdW  Elec       q    Type
REMARK                         _______ _______ _______ _____ _____    ______ ____
ROOT
ATOM      1  C   UNL     1       3.152   5.567  19.035  0.00  0.00    +0.000 C 
ENDROOT
BRANCH   1   2
ATOM      2  N   UNL     1       2.755   6.678  19.950  0.00  0.00    +0.000 NA
ATOM      3  H   UNL     1       3.571   7.037  20.443  0.00  0.00    +0.000 HD
BRANCH   2   4
ATOM      4  C   UNL     1       2.054   7.756  19.261  0.00  0.00    +0.000 C 
BRANCH   4   5
ATOM      5  C   UNL     1       1.304   8.693  20.188  0.00  0.00    +0.000 A 
ATOM      6  C   UNL     1       1.149   8.376  21.547  0.00  0.00    +0.000 A 
ATOM      7  C   UNL     1       0.583   9.300  22.432  0.00  0.00    +0.000 A 
ATOM      8  C   UNL     1       0.178  10.554  21.984  0.00  0.00    +0.000 A 
ATOM      9  C   UNL     1       0.285  10.859  20.628  0.00  0.00    +0.000 A 
ATOM     10  C   UNL     1       0.842   9.935  19.735  0.00  0.00    +0.000 A 
BRANCH   8  11
ATOM     11  O   UNL     1      -0.333  11.382  22.946  0.00  0.00    +0.000 OA
ATOM     12  C   UNL     1      -1.751  11.391  23.057  0.00  0.00    +0.000 C 
ENDBRANCH   8  11
ENDBRANCH   4   5
ENDBRANCH   2   4
ENDBRANCH   1   2
BRANCH   1  13
ATOM     13  C   UNL     1       1.900   4.705  18.597  0.00  0.00    +0.000 C 
BRANCH  13  14
ATOM     14  N   UNL     1       1.804   3.265  18.945  0.00  0.00    +0.000 NA
BRANCH  14  16
ATOM     15  C   UNL     1       3.575   1.581  18.348  0.00  0.00    +0.000 C 
ATOM     16  C   UNL     1       2.354   2.387  17.897  0.00  0.00    +0.000 C 
ENDBRANCH  14  16
BRANCH  14  17
ATOM     17  C   UNL     1       2.432   3.023  20.269  0.00  0.00    +0.000 C 
ATOM     18  C   UNL     1       1.504   2.799  21.470  0.00  0.00    +0.000 C 
ENDBRANCH  14  17
ENDBRANCH  13  14
ENDBRANCH   1  13
BRANCH   1  19
ATOM     19  C   UNL     1       3.928   6.133  17.785  0.00  0.00    +0.000 C 
BRANCH  19  20
ATOM     20  N   UNL     1       5.421   6.101  17.798  0.00  0.00    +0.000 NA
BRANCH  20  21
ATOM     21  C   UNL     1       6.008   5.450  18.975  0.00  0.00    +0.000 C 
ATOM     22  C   UNL     1       7.499   5.675  19.209  0.00  0.00    +0.000 C 
ENDBRANCH  20  21
BRANCH  20  23
ATOM     23  C   UNL     1       5.937   5.591  16.512  0.00  0.00    +0.000 C 
ATOM     24  C   UNL     1       5.612   4.132  16.184  0.00  0.00    +0.000 C 
ENDBRANCH  20  23
ENDBRANCH  19  20
ENDBRANCH   1  19
TORSDOF 12
ENDMDL
MODEL 7
REMARK VINA RESULT:      -5.8      1.326      2.484
REMARK  Name = 
REMARK  17 active torsions:
REMARK  status: ('A' for Active; 'I' for Inactive)
REMARK    1  A    between atoms: C_1  and  C_2
REMARK    2  A    between atoms: C_2  and  N_3
REMARK    3  A    between atoms: N_3  and  C_4
REMARK    4  A    between atoms: N_3  and  C_6
REMARK    5  A    between atoms: C_4  and  C_5
REMARK    6  A    between atoms: C_6  and  C_7
REMARK    7  A    between atoms: C_7  and  C_8
REMARK    8  A    between atoms: C_7  and  N_14
REMARK    9  A    between atoms: C_8  and  N_9
REMARK   10  A    between atoms: N_9  and  C_10
REMARK   11  A    between atoms: N_9  and  C_12
REMARK   12  A    between atoms: C_10  and  C_11
REMARK   13  A    between atoms: C_12  and  C_13
REMARK   14  A    between atoms: N_14  and  C_15
REMARK   15  A    between atoms: C_15  and  C_16
REMARK   16  A    between atoms: C_19  and  O_20
REMARK   17  A    between atoms: O_20  and  C_21
REMARK                            x       y       z     vdW  Elec       q    Type
REMARK                         _______ _______ _______ _____ _____    ______ ____
ROOT
ATOM      1  C   UNL     1       3.678   5.618  19.443  0.00  0.00    +0.000 C 
ENDROOT
BRANCH   1   2
ATOM      2  N   UNL     1       2.790   6.740  19.869  0.00  0.00    +0.000 NA
ATOM      3  H   UNL     1       3.215   7.251  20.641  0.00  0.00    +0.000 HD
BRANCH   2   4
ATOM      4  C   UNL     1       2.456   7.645  18.774  0.00  0.00    +0.000 C 
BRANCH   4   5
ATOM      5  C   UNL     1       1.485   8.744  19.159  0.00  0.00    +0.000 A 
ATOM      6  C   UNL     1       0.915   9.567  18.173  0.00  0.00    +0.000 A 
ATOM      7  C   UNL     1      -0.085  10.486  18.507  0.00  0.00    +0.000 A 
ATOM      8  C   UNL     1      -0.544  10.591  19.817  0.00  0.00    +0.000 A 
ATOM      9  C   UNL     1       0.049   9.811  20.809  0.00  0.00    +0.000 A 
ATOM     10  C   UNL     1       1.057   8.895  20.483  0.00  0.00    +0.000 A 
BRANCH   8  11
ATOM     11  O   UNL     1      -1.544  11.503  20.016  0.00  0.00    +0.000 OA
ATOM     12  C   UNL     1      -1.489  12.662  19.193  0.00  0.00    +0.000 C 
ENDBRANCH   8  11
ENDBRANCH   4   5
ENDBRANCH   2   4
ENDBRANCH   1   2
BRANCH   1  13
ATOM     13  C   UNL     1       2.898   4.242  19.420  0.00  0.00    +0.000 C 
BRANCH  13  14
ATOM     14  N   UNL     1       3.506   3.009  19.981  0.00  0.00    +0.000 NA
BRANCH  14  16
ATOM     15  C   UNL     1       1.360   2.854  21.286  0.00  0.00    +0.000 C 
ATOM     16  C   UNL     1       2.865   2.577  21.236  0.00  0.00    +0.000 C 
ENDBRANCH  14  16
BRANCH  14  17
ATOM     17  C   UNL     1       3.511   1.936  18.953  0.00  0.00    +0.000 C 
ATOM     18  C   UNL     1       2.703   2.171  17.671  0.00  0.00    +0.000 C 
ENDBRANCH  14  17
ENDBRANCH  13  14
ENDBRANCH   1  13
BRANCH   1  19
ATOM     19  C   UNL     1       4.332   5.933  18.043  0.00  0.00    +0.000 C 
BRANCH  19  20
ATOM     20  N   UNL     1       5.151   4.873  17.384  0.00  0.00    +0.000 NA
BRANCH  20  21
ATOM     21  C   UNL     1       5.301   5.031  15.933  0.00  0.00    +0.000 C 
ATOM     22  C   UNL     1       6.005   3.900  15.190  0.00  0.00    +0.000 C 
ENDBRANCH  20  21
BRANCH  20  23
ATOM     23  C   UNL     1       6.429   4.688  18.101  0.00  0.00    +0.000 C 
ATOM     24  C   UNL     1       7.339   5.915  18.188  0.00  0.00    +0.000 C 
ENDBRANCH  20  23
ENDBRANCH  19  20
ENDBRANCH   1  19
TORSDOF 12
ENDMDL
MODEL 8
REMARK VINA RESULT:      -5.8      1.499      4.620
REMARK  Name = 
REMARK  17 active torsions:
REMARK  status: ('A' for Active; 'I' for Inactive)
REMARK    1  A    between atoms: C_1  and  C_2
REMARK    2  A    between atoms: C_2  and  N_3
REMARK    3  A    between atoms: N_3  and  C_4
REMARK    4  A    between atoms: N_3  and  C_6
REMARK    5  A    between atoms: C_4  and  C_5
REMARK    6  A    between atoms: C_6  and  C_7
REMARK    7  A    between atoms: C_7  and  C_8
REMARK    8  A    between atoms: C_7  and  N_14
REMARK    9  A    between atoms: C_8  and  N_9
REMARK   10  A    between atoms: N_9  and  C_10
REMARK   11  A    between atoms: N_9  and  C_12
REMARK   12  A    between atoms: C_10  and  C_11
REMARK   13  A    between atoms: C_12  and  C_13
REMARK   14  A    between atoms: N_14  and  C_15
REMARK   15  A    between atoms: C_15  and  C_16
REMARK   16  A    between atoms: C_19  and  O_20
REMARK   17  A    between atoms: O_20  and  C_21
REMARK                            x       y       z     vdW  Elec       q    Type
REMARK                         _______ _______ _______ _____ _____    ______ ____
ROOT
ATOM      1  C   UNL     1       3.728   5.757  17.640  0.00  0.00    +0.000 C 
ENDROOT
BRANCH   1   2
ATOM      2  N   UNL     1       3.569   7.058  18.355  0.00  0.00    +0.000 NA
ATOM      3  H   UNL     1       4.401   7.633  18.229  0.00  0.00    +0.000 HD
BRANCH   2   4
ATOM      4  C   UNL     1       2.373   7.787  17.946  0.00  0.00    +0.000 C 
BRANCH   4   5
ATOM      5  C   UNL     1       1.698   8.544  19.073  0.00  0.00    +0.000 A 
ATOM      6  C   UNL     1       1.655   8.002  20.369  0.00  0.00    +0.000 A 
ATOM      7  C   UNL     1       1.160   8.755  21.437  0.00  0.00    +0.000 A 
ATOM      8  C   UNL     1       0.715  10.060  21.240  0.00  0.00    +0.000 A 
ATOM      9  C   UNL     1       0.710  10.588  19.950  0.00  0.00    +0.000 A 
ATOM     10  C   UNL     1       1.196   9.835  18.873  0.00  0.00    +0.000 A 
BRANCH   8  11
ATOM     11  O   UNL     1       0.281  10.707  22.364  0.00  0.00    +0.000 OA
ATOM     12  C   UNL     1      -0.571   9.951  23.216  0.00  0.00    +0.000 C 
ENDBRANCH   8  11
ENDBRANCH   4   5
ENDBRANCH   2   4
ENDBRANCH   1   2
BRANCH   1  13
ATOM     13  C   UNL     1       4.995   5.771  16.692  0.00  0.00    +0.000 C 
BRANCH  13  14
ATOM     14  N   UNL     1       6.144   4.864  16.938  0.00  0.00    +0.000 NA
BRANCH  14  16
ATOM     15  C   UNL     1       5.652   4.376  14.520  0.00  0.00    +0.000 C 
ATOM     16  C   UNL     1       6.507   4.069  15.753  0.00  0.00    +0.000 C 
ENDBRANCH  14  16
BRANCH  14  17
ATOM     17  C   UNL     1       7.295   5.640  17.470  0.00  0.00    +0.000 C 
ATOM     18  C   UNL     1       7.441   5.748  18.993  0.00  0.00    +0.000 C 
ENDBRANCH  14  17
ENDBRANCH  13  14
ENDBRANCH   1  13
BRANCH   1  19
ATOM     19  C   UNL     1       3.794   4.566  18.672  0.00  0.00    +0.000 C 
BRANCH  19  20
ATOM     20  N   UNL     1       2.514   3.948  19.130  0.00  0.00    +0.000 NA
BRANCH  20  21
ATOM     21  C   UNL     1       2.218   2.642  18.532  0.00  0.00    +0.000 C 
ATOM     22  C   UNL     1       3.412   1.815  18.064  0.00  0.00    +0.000 C 
ENDBRANCH  20  21
BRANCH  20  23
ATOM     23  C   UNL     1       2.434   3.962  20.605  0.00  0.00    +0.000 C 
ATOM     24  C   UNL     1       1.460   2.967  21.238  0.00  0.00    +0.000 C 
ENDBRANCH  20  23
ENDBRANCH  19  20
ENDBRANCH   1  19
TORSDOF 12
ENDMDL
MODEL 9
REMARK VINA RESULT:      -5.8      1.275      4.359
REMARK  Name = 
REMARK  17 active torsions:
REMARK  status: ('A' for Active; 'I' for Inactive)
REMARK    1  A    between atoms: C_1  and  C_2
REMARK    2  A    between atoms: C_2  and  N_3
REMARK    3  A    between atoms: N_3  and  C_4
REMARK    4  A    between atoms: N_3  and  C_6
REMARK    5  A    between atoms: C_4  and  C_5
REMARK    6  A    between atoms: C_6  and  C_7
REMARK    7  A    between atoms: C_7  and  C_8
REMARK    8  A    between atoms: C_7  and  N_14
REMARK    9  A    between atoms: C_8  and  N_9
REMARK   10  A    between atoms: N_9  and  C_10
REMARK   11  A    between atoms: N_9  and  C_12
REMARK   12  A    between atoms: C_10  and  C_11
REMARK   13  A    between atoms: C_12  and  C_13
REMARK   14  A    between atoms: N_14  and  C_15
REMARK   15  A    between atoms: C_15  and  C_16
REMARK   16  A    between atoms: C_19  and  O_20
REMARK   17  A    between atoms: O_20  and  C_21
REMARK                            x       y       z     vdW  Elec       q    Type
REMARK                         _______ _______ _______ _____ _____    ______ ____
ROOT
ATOM      1  C   UNL     1       3.945   5.109  18.063  0.00  0.00    +0.000 C 
ENDROOT
BRANCH   1   2
ATOM      2  N   UNL     1       2.727   5.947  17.857  0.00  0.00    +0.000 NA
ATOM      3  H   UNL     1       2.025   5.727  18.563  0.00  0.00    +0.000 HD
BRANCH   2   4
ATOM      4  C   UNL     1       3.018   7.377  17.848  0.00  0.00    +0.000 C 
BRANCH   4   5
ATOM      5  C   UNL     1       2.173   8.182  18.817  0.00  0.00    +0.000 A 
ATOM      6  C   UNL     1       1.526   9.354  18.391  0.00  0.00    +0.000 A 
ATOM      7  C   UNL     1       0.636  10.021  19.239  0.00  0.00    +0.000 A 
ATOM      8  C   UNL     1       0.364   9.528  20.512  0.00  0.00    +0.000 A 
ATOM      9  C   UNL     1       1.038   8.393  20.959  0.00  0.00    +0.000 A 
ATOM     10  C   UNL     1       1.937   7.725  20.118  0.00  0.00    +0.000 A 
BRANCH   8  11
ATOM     11  O   UNL     1      -0.545  10.249  21.238  0.00  0.00    +0.000 OA
ATOM     12  C   UNL     1      -0.386  11.662  21.188  0.00  0.00    +0.000 C 
ENDBRANCH   8  11
ENDBRANCH   4   5
ENDBRANCH   2   4
ENDBRANCH   1   2
BRANCH   1  13
ATOM     13  C   UNL     1       5.257   5.883  17.634  0.00  0.00    +0.000 C 
BRANCH  13  14
ATOM     14  N   UNL     1       6.594   5.252  17.765  0.00  0.00    +0.000 NA
BRANCH  14  16
ATOM     15  C   UNL     1       6.251   5.071  15.279  0.00  0.00    +0.000 C 
ATOM     16  C   UNL     1       7.068   4.653  16.505  0.00  0.00    +0.000 C 
ENDBRANCH  14  16
BRANCH  14  17
ATOM     17  C   UNL     1       7.563   6.232  18.321  0.00  0.00    +0.000 C 
ATOM     18  C   UNL     1       7.685   7.591  17.622  0.00  0.00    +0.000 C 
ENDBRANCH  14  17
ENDBRANCH  13  14
ENDBRANCH   1  13
BRANCH   1  19
ATOM     19  C   UNL     1       4.030   4.617  19.559  0.00  0.00    +0.000 C 
BRANCH  19  20
ATOM     20  N   UNL     1       3.414   3.304  19.914  0.00  0.00    +0.000 NA
BRANCH  20  21
ATOM     21  C   UNL     1       1.994   3.374  20.279  0.00  0.00    +0.000 C 
ATOM     22  C   UNL     1       1.590   2.704  21.589  0.00  0.00    +0.000 C 
ENDBRANCH  20  21
BRANCH  20  23
ATOM     23  C   UNL     1       3.715   2.296  18.878  0.00  0.00    +0.000 C 
ATOM     24  C   UNL     1       2.574   1.948  17.920  0.00  0.00    +0.000 C 
ENDBRANCH  20  23
ENDBRANCH  19  20
ENDBRANCH   1  19
TORSDOF 12
ENDMDL
