MODEL 1
REMARK VINA RESULT:      -9.3      0.000      0.000
REMARK  Name = 
REMARK  7 active torsions:
REMARK  status: ('A' for Active; 'I' for Inactive)
REMARK    1  A    between atoms: C_1  and  C_2
REMARK    2  A    between atoms: C_6  and  C_7
REMARK    3  A    between atoms: N_9  and  C_10
REMARK    4  A    between atoms: C_10  and  C_11
REMARK    5  A    between atoms: C_11  and  C_12
REMARK    6  A    between atoms: C_15  and  C_16
REMARK    7  A    between atoms: C_21  and  C_22
REMARK                            x       y       z     vdW  Elec       q    Type
REMARK                         _______ _______ _______ _____ _____    ______ ____
ROOT
ATOM      1  C   UNL     1      -0.724  11.214  21.772  0.00  0.00    +0.000 A 
ATOM      2  C   UNL     1      -0.502  10.500  22.933  0.00  0.00    +0.000 A 
ATOM      3  S   UNL     1       0.503   9.158  22.616  0.00  0.00    +0.000 S 
ATOM      4  C   UNL     1       0.586   9.621  20.958  0.00  0.00    +0.000 A 
ATOM      5  N   UNL     1      -0.061  10.730  20.660  0.00  0.00    +0.000 NA
ENDROOT
BRANCH   4   6
ATOM      6  C   UNL     1       1.334   8.830  19.980  0.00  0.00    +0.000 A 
ATOM      7  C   UNL     1       1.870   9.454  18.847  0.00  0.00    +0.000 A 
ATOM      8  C   UNL     1       2.556   8.704  17.900  0.00  0.00    +0.000 A 
ATOM      9  C   UNL     1       2.695   7.332  18.074  0.00  0.00    +0.000 A 
ATOM     10  F   UNL     1       3.366   6.654  17.128  0.00  0.00    +0.000 F 
ATOM     11  C   UNL     1       2.160   6.654  19.184  0.00  0.00    +0.000 A 
ATOM     12  C   UNL     1       1.479   7.438  20.128  0.00  0.00    +0.000 A 
BRANCH  11  13
ATOM     13  C   UNL     1       2.310   5.136  19.345  0.00  0.00    +0.000 C 
ATOM     14  C   UNL     1       1.809   4.410  18.064  0.00  0.00    +0.000 C 
ATOM     15  C   UNL     1       1.914   2.883  18.215  0.00  0.00    +0.000 C 
ATOM     16  C   UNL     1       3.381   2.495  18.445  0.00  0.00    +0.000 C 
ATOM     17  C   UNL     1       3.901   3.159  19.727  0.00  0.00    +0.000 C 
ATOM     18  C   UNL     1       3.057   2.707  20.925  0.00  0.00    +0.000 C 
ATOM     19  C   UNL     1       1.589   3.100  20.706  0.00  0.00    +0.000 C 
ATOM     20  C   UNL     1       1.072   2.434  19.420  0.00  0.00    +0.000 C 
ATOM     21  C   UNL     1       1.484   4.629  20.563  0.00  0.00    +0.000 C 
ATOM     22  C   UNL     1       3.788   4.683  19.580  0.00  0.00    +0.000 C 
ENDBRANCH  11  13
ENDBRANCH   4   6
BRANCH   1  23
ATOM     23  C   UNL     1      -1.572  12.434  21.629  0.00  0.00    +0.000 C 
BRANCH  23  24
ATOM     24  C   UNL     1      -1.233  13.268  20.390  0.00  0.00    +0.000 C 
BRANCH  24  27
ATOM     25  C   UNL     1      -2.984  12.209  18.976  0.00  0.00    +0.000 C 
ATOM     26  O   UNL     1      -3.838  12.379  19.835  0.00  0.00    +0.000 OA
ATOM     27  N   UNL     1      -1.672  12.618  19.171  0.00  0.00    +0.000 N 
ATOM     28  H   UNL     1      -1.004  12.474  18.420  0.00  0.00    +0.000 HD
BRANCH  25  34
ATOM     29  C   UNL     1      -5.672  12.198  16.989  0.00  0.00    +0.000 C 
ATOM     30  C   UNL     1      -4.350  11.550  16.827  0.00  0.00    +0.000 A 
ATOM     31  C   UNL     1      -3.964  10.745  15.715  0.00  0.00    +0.000 A 
ATOM     32  C   UNL     1      -2.673  10.348  15.949  0.00  0.00    +0.000 A 
ATOM     33  O   UNL     1      -2.230  10.843  17.127  0.00  0.00    +0.000 OA
ATOM     34  C   UNL     1      -3.247  11.578  17.679  0.00  0.00    +0.000 A 
ENDBRANCH  25  34
ENDBRANCH  24  27
ENDBRANCH  23  24
ENDBRANCH   1  23
TORSDOF 6
ENDMDL
MODEL 2
REMARK VINA RESULT:      -9.3      2.315      3.596
REMARK  Name = 
REMARK  7 active torsions:
REMARK  status: ('A' for Active; 'I' for Inactive)
REMARK    1  A    between atoms: C_1  and  C_2
REMARK    2  A    between atoms: C_6  and  C_7
REMARK    3  A    between atoms: N_9  and  C_10
REMARK    4  A    between atoms: C_10  and  C_11
REMARK    5  A    between atoms: C_11  and  C_12
REMARK    6  A    between atoms: C_15  and  C_16
REMARK    7  A    between atoms: C_21  and  C_22
REMARK                            x       y       z     vdW  Elec       q    Type
REMARK                         _______ _______ _______ _____ _____    ______ ____
ROOT
ATOM      1  C   UNL     1       0.718  10.381  20.718  0.00  0.00    +0.000 A 
ATOM      2  C   UNL     1      -0.198   9.995  21.676  0.00  0.00    +0.000 A 
ATOM      3  S   UNL     1      -0.112   8.309  21.928  0.00  0.00    +0.000 S 
ATOM      4  C   UNL     1       1.145   8.205  20.753  0.00  0.00    +0.000 A 
ATOM      5  N   UNL     1       1.511   9.358  20.231  0.00  0.00    +0.000 NA
ENDROOT
BRANCH   4   6
ATOM      6  C   UNL     1       1.749   6.922  20.393  0.00  0.00    +0.000 A 
ATOM      7  C   UNL     1       1.328   5.752  21.035  0.00  0.00    +0.000 A 
ATOM      8  C   UNL     1       1.918   4.534  20.719  0.00  0.00    +0.000 A 
ATOM      9  C   UNL     1       2.937   4.486  19.775  0.00  0.00    +0.000 A 
ATOM     10  F   UNL     1       3.475   3.285  19.507  0.00  0.00    +0.000 F 
ATOM     11  C   UNL     1       3.410   5.634  19.115  0.00  0.00    +0.000 A 
ATOM     12  C   UNL     1       2.790   6.848  19.448  0.00  0.00    +0.000 A 
BRANCH  11  13
ATOM     13  C   UNL     1       4.549   5.558  18.090  0.00  0.00    +0.000 C 
ATOM     14  C   UNL     1       4.706   6.924  17.362  0.00  0.00    +0.000 C 
ATOM     15  C   UNL     1       5.818   6.863  16.302  0.00  0.00    +0.000 C 
ATOM     16  C   UNL     1       7.151   6.523  16.983  0.00  0.00    +0.000 C 
ATOM     17  C   UNL     1       7.049   5.159  17.678  0.00  0.00    +0.000 C 
ATOM     18  C   UNL     1       6.710   4.075  16.647  0.00  0.00    +0.000 C 
ATOM     19  C   UNL     1       5.374   4.403  15.968  0.00  0.00    +0.000 C 
ATOM     20  C   UNL     1       5.479   5.771  15.274  0.00  0.00    +0.000 C 
ATOM     21  C   UNL     1       4.259   4.456  17.028  0.00  0.00    +0.000 C 
ATOM     22  C   UNL     1       5.934   5.217  18.730  0.00  0.00    +0.000 C 
ENDBRANCH  11  13
ENDBRANCH   4   6
BRANCH   1  23
ATOM     23  C   UNL     1       0.930  11.764  20.199  0.00  0.00    +0.000 C 
BRANCH  23  24
ATOM     24  C   UNL     1       0.723  11.884  18.686  0.00  0.00    +0.000 C 
BRANCH  24  27
ATOM     25  C   UNL     1      -1.394  10.928  17.797  0.00  0.00    +0.000 C 
ATOM     26  O   UNL     1      -0.861   9.850  17.572  0.00  0.00    +0.000 OA
ATOM     27  N   UNL     1      -0.682  11.986  18.345  0.00  0.00    +0.000 N 
ATOM     28  H   UNL     1      -1.174  12.854  18.532  0.00  0.00    +0.000 HD
BRANCH  25  34
ATOM     29  C   UNL     1      -3.268  10.567  15.052  0.00  0.00    +0.000 C 
ATOM     30  C   UNL     1      -3.618  11.076  16.398  0.00  0.00    +0.000 A 
ATOM     31  C   UNL     1      -4.908  11.539  16.789  0.00  0.00    +0.000 A 
ATOM     32  C   UNL     1      -4.809  11.911  18.105  0.00  0.00    +0.000 A 
ATOM     33  O   UNL     1      -3.550  11.718  18.560  0.00  0.00    +0.000 OA
ATOM     34  C   UNL     1      -2.807  11.211  17.525  0.00  0.00    +0.000 A 
ENDBRANCH  25  34
ENDBRANCH  24  27
ENDBRANCH  23  24
ENDBRANCH   1  23
TORSDOF 6
ENDMDL
MODEL 3
REMARK VINA RESULT:      -9.2      2.194      2.923
REMARK  Name = 
REMARK  7 active torsions:
REMARK  status: ('A' for Active; 'I' for Inactive)
REMARK    1  A    between atoms: C_1  and  C_2
REMARK    2  A    between atoms: C_6  and  C_7
REMARK    3  A    between atoms: N_9  and  C_10
REMARK    4  A    between atoms: C_10  and  C_11
REMARK    5  A    between atoms: C_11  and  C_12
REMARK    6  A    between atoms: C_15  and  C_16
REMARK    7  A    between atoms: C_21  and  C_22
REMARK                            x       y       z     vdW  Elec       q    Type
REMARK                         _______ _______ _______ _____ _____    ______ ____
ROOT
ATOM      1  C   UNL     1      -0.903  10.800  18.436  0.00  0.00    +0.000 A 
ATOM      2  C   UNL     1      -0.658  11.028  19.775  0.00  0.00    +0.000 A 
ATOM      3  S   UNL     1       0.661  10.083  20.303  0.00  0.00    +0.000 S 
ATOM      4  C   UNL     1       0.827   9.440  18.713  0.00  0.00    +0.000 A 
ATOM      5  N   UNL     1      -0.020   9.927  17.828  0.00  0.00    +0.000 NA
ENDROOT
BRANCH   4   6
ATOM      6  C   UNL     1       1.847   8.441  18.395  0.00  0.00    +0.000 A 
ATOM      7  C   UNL     1       2.956   8.803  17.621  0.00  0.00    +0.000 A 
ATOM      8  C   UNL     1       3.914   7.852  17.290  0.00  0.00    +0.000 A 
ATOM      9  C   UNL     1       3.759   6.540  17.718  0.00  0.00    +0.000 A 
ATOM     10  F   UNL     1       4.712   5.660  17.369  0.00  0.00    +0.000 F 
ATOM     11  C   UNL     1       2.655   6.119  18.481  0.00  0.00    +0.000 A 
ATOM     12  C   UNL     1       1.708   7.102  18.806  0.00  0.00    +0.000 A 
BRANCH  11  13
ATOM     13  C   UNL     1       2.497   4.659  18.925  0.00  0.00    +0.000 C 
ATOM     14  C   UNL     1       2.216   3.753  17.693  0.00  0.00    +0.000 C 
ATOM     15  C   UNL     1       2.016   2.288  18.116  0.00  0.00    +0.000 C 
ATOM     16  C   UNL     1       3.288   1.780  18.808  0.00  0.00    +0.000 C 
ATOM     17  C   UNL     1       3.576   2.625  20.056  0.00  0.00    +0.000 C 
ATOM     18  C   UNL     1       2.392   2.534  21.029  0.00  0.00    +0.000 C 
ATOM     19  C   UNL     1       1.118   3.048  20.347  0.00  0.00    +0.000 C 
ATOM     20  C   UNL     1       0.834   2.201  19.095  0.00  0.00    +0.000 C 
ATOM     21  C   UNL     1       1.316   4.517  19.930  0.00  0.00    +0.000 C 
ATOM     22  C   UNL     1       3.767   4.088  19.635  0.00  0.00    +0.000 C 
ENDBRANCH  11  13
ENDBRANCH   4   6
BRANCH   1  23
ATOM     23  C   UNL     1      -1.988  11.413  17.615  0.00  0.00    +0.000 C 
BRANCH  23  24
ATOM     24  C   UNL     1      -3.036  10.401  17.140  0.00  0.00    +0.000 C 
BRANCH  24  27
ATOM     25  C   UNL     1      -5.288  11.016  17.998  0.00  0.00    +0.000 C 
ATOM     26  O   UNL     1      -5.453  11.830  17.098  0.00  0.00    +0.000 OA
ATOM     27  N   UNL     1      -4.122  10.270  18.092  0.00  0.00    +0.000 N 
ATOM     28  H   UNL     1      -4.040   9.593  18.844  0.00  0.00    +0.000 HD
BRANCH  25  34
ATOM     29  C   UNL     1      -6.922  13.018  20.120  0.00  0.00    +0.000 C 
ATOM     30  C   UNL     1      -6.977  11.548  19.943  0.00  0.00    +0.000 A 
ATOM     31  C   UNL     1      -7.795  10.663  20.705  0.00  0.00    +0.000 A 
ATOM     32  C   UNL     1      -7.557   9.400  20.226  0.00  0.00    +0.000 A 
ATOM     33  O   UNL     1      -6.648   9.435  19.225  0.00  0.00    +0.000 OA
ATOM     34  C   UNL     1      -6.281  10.744  19.043  0.00  0.00    +0.000 A 
ENDBRANCH  25  34
ENDBRANCH  24  27
ENDBRANCH  23  24
ENDBRANCH   1  23
TORSDOF 6
ENDMDL
MODEL 4
REMARK VINA RESULT:      -9.1      1.045      1.449
REMARK  Name = 
REMARK  7 active torsions:
REMARK  status: ('A' for Active; 'I' for Inactive)
REMARK    1  A    between atoms: C_1  and  C_2
REMARK    2  A    between atoms: C_6  and  C_7
REMARK    3  A    between atoms: N_9  and  C_10
REMARK    4  A    between atoms: C_10  and  C_11
REMARK    5  A    between atoms: C_11  and  C_12
REMARK    6  A    between atoms: C_15  and  C_16
REMARK    7  A    between atoms: C_21  and  C_22
REMARK                            x       y       z     vdW  Elec       q    Type
REMARK                         _______ _______ _______ _____ _____    ______ ____
ROOT
ATOM      1  C   UNL     1       0.360  11.676  21.308  0.00  0.00    +0.000 A 
ATOM      2  C   UNL     1      -0.460  10.844  22.043  0.00  0.00    +0.000 A 
ATOM      3  S   UNL     1      -0.203   9.217  21.594  0.00  0.00    +0.000 S 
ATOM      4  C   UNL     1       0.990   9.727  20.460  0.00  0.00    +0.000 A 
ATOM      5  N   UNL     1       1.217  11.025  20.441  0.00  0.00    +0.000 NA
ENDROOT
BRANCH   4   6
ATOM      6  C   UNL     1       1.691   8.768  19.605  0.00  0.00    +0.000 A 
ATOM      7  C   UNL     1       2.337   9.214  18.446  0.00  0.00    +0.000 A 
ATOM      8  C   UNL     1       2.978   8.305  17.614  0.00  0.00    +0.000 A 
ATOM      9  C   UNL     1       2.964   6.952  17.929  0.00  0.00    +0.000 A 
ATOM     10  F   UNL     1       3.597   6.115  17.090  0.00  0.00    +0.000 F 
ATOM     11  C   UNL     1       2.314   6.449  19.070  0.00  0.00    +0.000 A 
ATOM     12  C   UNL     1       1.681   7.391  19.896  0.00  0.00    +0.000 A 
BRANCH  11  13
ATOM     13  C   UNL     1       2.295   4.948  19.387  0.00  0.00    +0.000 C 
ATOM     14  C   UNL     1       1.836   4.144  18.138  0.00  0.00    +0.000 C 
ATOM     15  C   UNL     1       1.773   2.637  18.441  0.00  0.00    +0.000 C 
ATOM     16  C   UNL     1       3.167   2.142  18.847  0.00  0.00    +0.000 C 
ATOM     17  C   UNL     1       3.639   2.884  20.104  0.00  0.00    +0.000 C 
ATOM     18  C   UNL     1       2.653   2.637  21.254  0.00  0.00    +0.000 C 
ATOM     19  C   UNL     1       1.257   3.138  20.858  0.00  0.00    +0.000 C 
ATOM     20  C   UNL     1       0.789   2.394  19.597  0.00  0.00    +0.000 C 
ATOM     21  C   UNL     1       1.319   4.647  20.563  0.00  0.00    +0.000 C 
ATOM     22  C   UNL     1       3.694   4.388  19.805  0.00  0.00    +0.000 C 
ENDBRANCH  11  13
ENDBRANCH   4   6
BRANCH   1  23
ATOM     23  C   UNL     1       0.412  13.166  21.387  0.00  0.00    +0.000 C 
BRANCH  23  24
ATOM     24  C   UNL     1      -0.349  13.861  20.254  0.00  0.00    +0.000 C 
BRANCH  24  27
ATOM     25  C   UNL     1      -2.451  12.668  19.669  0.00  0.00    +0.000 C 
ATOM     26  O   UNL     1      -3.073  13.245  20.551  0.00  0.00    +0.000 OA
ATOM     27  N   UNL     1      -1.102  12.913  19.456  0.00  0.00    +0.000 N 
ATOM     28  H   UNL     1      -0.636  12.425  18.699  0.00  0.00    +0.000 HD
BRANCH  25  34
ATOM     29  C   UNL     1      -1.129  10.194  17.849  0.00  0.00    +0.000 C 
ATOM     30  C   UNL     1      -2.533  10.647  17.986  0.00  0.00    +0.000 A 
ATOM     31  C   UNL     1      -3.649  10.067  17.315  0.00  0.00    +0.000 A 
ATOM     32  C   UNL     1      -4.756  10.768  17.719  0.00  0.00    +0.000 A 
ATOM     33  O   UNL     1      -4.410  11.743  18.588  0.00  0.00    +0.000 OA
ATOM     34  C   UNL     1      -3.050  11.685  18.760  0.00  0.00    +0.000 A 
ENDBRANCH  25  34
ENDBRANCH  24  27
ENDBRANCH  23  24
ENDBRANCH   1  23
TORSDOF 6
ENDMDL
MODEL 5
REMARK VINA RESULT:      -9.1      1.932      2.504
REMARK  Name = 
REMARK  7 active torsions:
REMARK  status: ('A' for Active; 'I' for Inactive)
REMARK    1  A    between atoms: C_1  and  C_2
REMARK    2  A    between atoms: C_6  and  C_7
REMARK    3  A    between atoms: N_9  and  C_10
REMARK    4  A    between atoms: C_10  and  C_11
REMARK    5  A    between atoms: C_11  and  C_12
REMARK    6  A    between atoms: C_15  and  C_16
REMARK    7  A    between atoms: C_21  and  C_22
REMARK                            x       y       z     vdW  Elec       q    Type
REMARK                         _______ _______ _______ _____ _____    ______ ____
ROOT
ATOM      1  C   UNL     1      -0.821  11.442  21.964  0.00  0.00    +0.000 A 
ATOM      2  C   UNL     1      -0.867  10.552  23.018  0.00  0.00    +0.000 A 
ATOM      3  S   UNL     1      -0.017   9.125  22.623  0.00  0.00    +0.000 S 
ATOM      4  C   UNL     1       0.365   9.790  21.080  0.00  0.00    +0.000 A 
ATOM      5  N   UNL     1      -0.076  11.015  20.880  0.00  0.00    +0.000 NA
ENDROOT
BRANCH   4   6
ATOM      6  C   UNL     1       1.133   9.032  20.091  0.00  0.00    +0.000 A 
ATOM      7  C   UNL     1       1.673   9.690  18.980  0.00  0.00    +0.000 A 
ATOM      8  C   UNL     1       2.378   8.971  18.021  0.00  0.00    +0.000 A 
ATOM      9  C   UNL     1       2.531   7.598  18.163  0.00  0.00    +0.000 A 
ATOM     10  F   UNL     1       3.219   6.951  17.208  0.00  0.00    +0.000 F 
ATOM     11  C   UNL     1       1.992   6.886  19.250  0.00  0.00    +0.000 A 
ATOM     12  C   UNL     1       1.292   7.638  20.205  0.00  0.00    +0.000 A 
BRANCH  11  13
ATOM     13  C   UNL     1       2.157   5.366  19.374  0.00  0.00    +0.000 C 
ATOM     14  C   UNL     1       3.640   5.013  19.684  0.00  0.00    +0.000 C 
ATOM     15  C   UNL     1       3.840   3.491  19.777  0.00  0.00    +0.000 C 
ATOM     16  C   UNL     1       2.965   2.932  20.907  0.00  0.00    +0.000 C 
ATOM     17  C   UNL     1       1.487   3.223  20.616  0.00  0.00    +0.000 C 
ATOM     18  C   UNL     1       1.082   2.575  19.286  0.00  0.00    +0.000 C 
ATOM     19  C   UNL     1       1.948   3.136  18.149  0.00  0.00    +0.000 C 
ATOM     20  C   UNL     1       3.428   2.844  18.445  0.00  0.00    +0.000 C 
ATOM     21  C   UNL     1       1.741   4.658  18.051  0.00  0.00    +0.000 C 
ATOM     22  C   UNL     1       1.289   4.741  20.515  0.00  0.00    +0.000 C 
ENDBRANCH  11  13
ENDBRANCH   4   6
BRANCH   1  23
ATOM     23  C   UNL     1      -1.467  12.786  21.908  0.00  0.00    +0.000 C 
BRANCH  23  24
ATOM     24  C   UNL     1      -2.942  12.768  22.318  0.00  0.00    +0.000 C 
BRANCH  24  27
ATOM     25  C   UNL     1      -5.184  12.484  21.279  0.00  0.00    +0.000 C 
ATOM     26  O   UNL     1      -5.721  12.362  22.372  0.00  0.00    +0.000 OA
ATOM     27  N   UNL     1      -3.816  12.686  21.164  0.00  0.00    +0.000 N 
ATOM     28  H   UNL     1      -3.421  12.802  20.236  0.00  0.00    +0.000 HD
BRANCH  25  34
ATOM     29  C   UNL     1      -7.178  10.174  19.913  0.00  0.00    +0.000 C 
ATOM     30  C   UNL     1      -6.744  11.496  19.405  0.00  0.00    +0.000 A 
ATOM     31  C   UNL     1      -7.126  12.056  18.150  0.00  0.00    +0.000 A 
ATOM     32  C   UNL     1      -6.520  13.283  18.069  0.00  0.00    +0.000 A 
ATOM     33  O   UNL     1      -5.787  13.525  19.179  0.00  0.00    +0.000 OA
ATOM     34  C   UNL     1      -5.910  12.438  20.005  0.00  0.00    +0.000 A 
ENDBRANCH  25  34
ENDBRANCH  24  27
ENDBRANCH  23  24
ENDBRANCH   1  23
TORSDOF 6
ENDMDL
MODEL 6
REMARK VINA RESULT:      -9.1      2.844      4.433
REMARK  Name = 
REMARK  7 active torsions:
REMARK  status: ('A' for Active; 'I' for Inactive)
REMARK    1  A    between atoms: C_1  and  C_2
REMARK    2  A    between atoms: C_6  and  C_7
REMARK    3  A    between atoms: N_9  and  C_10
REMARK    4  A    between atoms: C_10  and  C_11
REMARK    5  A    between atoms: C_11  and  C_12
REMARK    6  A    between atoms: C_15  and  C_16
REMARK    7  A    between atoms: C_21  and  C_22
REMARK                            x       y       z     vdW  Elec       q    Type
REMARK                         _______ _______ _______ _____ _____    ______ ____
ROOT
ATOM      1  C   UNL     1      -0.282  10.912  21.342  0.00  0.00    +0.000 A 
ATOM      2  C   UNL     1      -0.754  11.610  20.248  0.00  0.00    +0.000 A 
ATOM      3  S   UNL     1      -0.114  10.952  18.808  0.00  0.00    +0.000 S 
ATOM      4  C   UNL     1       0.740   9.777  19.735  0.00  0.00    +0.000 A 
ATOM      5  N   UNL     1       0.533   9.839  21.035  0.00  0.00    +0.000 NA
ENDROOT
BRANCH   4   6
ATOM      6  C   UNL     1       1.611   8.788  19.099  0.00  0.00    +0.000 A 
ATOM      7  C   UNL     1       2.461   9.180  18.057  0.00  0.00    +0.000 A 
ATOM      8  C   UNL     1       3.269   8.242  17.428  0.00  0.00    +0.000 A 
ATOM      9  C   UNL     1       3.220   6.912  17.827  0.00  0.00    +0.000 A 
ATOM     10  F   UNL     1       4.020   6.044  17.185  0.00  0.00    +0.000 F 
ATOM     11  C   UNL     1       2.372   6.462  18.854  0.00  0.00    +0.000 A 
ATOM     12  C   UNL     1       1.572   7.433  19.476  0.00  0.00    +0.000 A 
BRANCH  11  13
ATOM     13  C   UNL     1       2.321   4.984  19.263  0.00  0.00    +0.000 C 
ATOM     14  C   UNL     1       1.801   4.119  18.080  0.00  0.00    +0.000 C 
ATOM     15  C   UNL     1       1.705   2.636  18.478  0.00  0.00    +0.000 C 
ATOM     16  C   UNL     1       3.098   2.125  18.872  0.00  0.00    +0.000 C 
ATOM     17  C   UNL     1       3.629   2.928  20.067  0.00  0.00    +0.000 C 
ATOM     18  C   UNL     1       2.673   2.782  21.258  0.00  0.00    +0.000 C 
ATOM     19  C   UNL     1       1.280   3.298  20.874  0.00  0.00    +0.000 C 
ATOM     20  C   UNL     1       0.752   2.493  19.675  0.00  0.00    +0.000 C 
ATOM     21  C   UNL     1       1.375   4.784  20.484  0.00  0.00    +0.000 C 
ATOM     22  C   UNL     1       3.716   4.409  19.673  0.00  0.00    +0.000 C 
ENDBRANCH  11  13
ENDBRANCH   4   6
BRANCH   1  23
ATOM     23  C   UNL     1      -0.587  11.198  22.775  0.00  0.00    +0.000 C 
BRANCH  23  24
ATOM     24  C   UNL     1      -2.087  11.281  23.072  0.00  0.00    +0.000 C 
BRANCH  24  27
ATOM     25  C   UNL     1      -3.652  12.916  24.101  0.00  0.00    +0.000 C 
ATOM     26  O   UNL     1      -4.389  12.024  24.498  0.00  0.00    +0.000 OA
ATOM     27  N   UNL     1      -2.495  12.635  23.389  0.00  0.00    +0.000 N 
ATOM     28  H   UNL     1      -1.906  13.409  23.099  0.00  0.00    +0.000 HD
BRANCH  25  34
ATOM     29  C   UNL     1      -1.981  15.231  25.842  0.00  0.00    +0.000 C 
ATOM     30  C   UNL     1      -3.231  15.332  25.054  0.00  0.00    +0.000 A 
ATOM     31  C   UNL     1      -4.000  16.522  24.890  0.00  0.00    +0.000 A 
ATOM     32  C   UNL     1      -5.065  16.192  24.091  0.00  0.00    +0.000 A 
ATOM     33  O   UNL     1      -5.016  14.884  23.750  0.00  0.00    +0.000 OA
ATOM     34  C   UNL     1      -3.901  14.343  24.336  0.00  0.00    +0.000 A 
ENDBRANCH  25  34
ENDBRANCH  24  27
ENDBRANCH  23  24
ENDBRANCH   1  23
TORSDOF 6
ENDMDL
MODEL 7
REMARK VINA RESULT:      -9.0      1.611      2.397
REMARK  Name = 
REMARK  7 active torsions:
REMARK  status: ('A' for Active; 'I' for Inactive)
REMARK    1  A    between atoms: C_1  and  C_2
REMARK    2  A    between atoms: C_6  and  C_7
REMARK    3  A    between atoms: N_9  and  C_10
REMARK    4  A    between atoms: C_10  and  C_11
REMARK    5  A    between atoms: C_11  and  C_12
REMARK    6  A    between atoms: C_15  and  C_16
REMARK    7  A    between atoms: C_21  and  C_22
REMARK                            x       y       z     vdW  Elec       q    Type
REMARK                         _______ _______ _______ _____ _____    ______ ____
ROOT
ATOM      1  C   UNL     1      -0.045  11.562  19.886  0.00  0.00    +0.000 A 
ATOM      2  C   UNL     1      -0.441  10.924  21.045  0.00  0.00    +0.000 A 
ATOM      3  S   UNL     1       0.235   9.358  21.116  0.00  0.00    +0.000 S 
ATOM      4  C   UNL     1       1.018   9.637  19.606  0.00  0.00    +0.000 A 
ATOM      5  N   UNL     1       0.825  10.836  19.095  0.00  0.00    +0.000 NA
ENDROOT
BRANCH   4   6
ATOM      6  C   UNL     1       1.839   8.606  18.970  0.00  0.00    +0.000 A 
ATOM      7  C   UNL     1       2.705   8.954  17.927  0.00  0.00    +0.000 A 
ATOM      8  C   UNL     1       3.465   7.976  17.298  0.00  0.00    +0.000 A 
ATOM      9  C   UNL     1       3.352   6.650  17.699  0.00  0.00    +0.000 A 
ATOM     10  F   UNL     1       4.107   5.744  17.058  0.00  0.00    +0.000 F 
ATOM     11  C   UNL     1       2.484   6.245  18.729  0.00  0.00    +0.000 A 
ATOM     12  C   UNL     1       1.734   7.255  19.350  0.00  0.00    +0.000 A 
BRANCH  11  13
ATOM     13  C   UNL     1       2.362   4.772  19.141  0.00  0.00    +0.000 C 
ATOM     14  C   UNL     1       1.359   4.628  20.321  0.00  0.00    +0.000 C 
ATOM     15  C   UNL     1       1.246   3.164  20.778  0.00  0.00    +0.000 C 
ATOM     16  C   UNL     1       0.743   2.304  19.610  0.00  0.00    +0.000 C 
ATOM     17  C   UNL     1       1.731   2.386  18.439  0.00  0.00    +0.000 C 
ATOM     18  C   UNL     1       3.111   1.886  18.886  0.00  0.00    +0.000 C 
ATOM     19  C   UNL     1       3.624   2.747  20.049  0.00  0.00    +0.000 C 
ATOM     20  C   UNL     1       2.631   2.664  21.220  0.00  0.00    +0.000 C 
ATOM     21  C   UNL     1       3.744   4.211  19.588  0.00  0.00    +0.000 C 
ATOM     22  C   UNL     1       1.849   3.848  17.988  0.00  0.00    +0.000 C 
ENDBRANCH  11  13
ENDBRANCH   4   6
BRANCH   1  23
ATOM     23  C   UNL     1      -0.448  12.930  19.445  0.00  0.00    +0.000 C 
BRANCH  23  24
ATOM     24  C   UNL     1      -1.636  13.496  20.228  0.00  0.00    +0.000 C 
BRANCH  24  27
ATOM     25  C   UNL     1      -3.970  12.655  20.414  0.00  0.00    +0.000 C 
ATOM     26  O   UNL     1      -3.891  12.587  21.633  0.00  0.00    +0.000 OA
ATOM     27  N   UNL     1      -2.901  13.093  19.645  0.00  0.00    +0.000 N 
ATOM     28  H   UNL     1      -3.022  13.151  18.639  0.00  0.00    +0.000 HD
BRANCH  25  34
ATOM     29  C   UNL     1      -7.128  12.078  21.347  0.00  0.00    +0.000 C 
ATOM     30  C   UNL     1      -6.497  12.048  20.007  0.00  0.00    +0.000 A 
ATOM     31  C   UNL     1      -7.175  11.743  18.790  0.00  0.00    +0.000 A 
ATOM     32  C   UNL     1      -6.241  11.832  17.790  0.00  0.00    +0.000 A 
ATOM     33  O   UNL     1      -5.033  12.166  18.296  0.00  0.00    +0.000 OA
ATOM     34  C   UNL     1      -5.172  12.298  19.653  0.00  0.00    +0.000 A 
ENDBRANCH  25  34
ENDBRANCH  24  27
ENDBRANCH  23  24
ENDBRANCH   1  23
TORSDOF 6
ENDMDL
MODEL 8
REMARK VINA RESULT:      -9.0      2.877      4.083
REMARK  Name = 
REMARK  7 active torsions:
REMARK  status: ('A' for Active; 'I' for Inactive)
REMARK    1  A    between atoms: C_1  and  C_2
REMARK    2  A    between atoms: C_6  and  C_7
REMARK    3  A    between atoms: N_9  and  C_10
REMARK    4  A    between atoms: C_10  and  C_11
REMARK    5  A    between atoms: C_11  and  C_12
REMARK    6  A    between atoms: C_15  and  C_16
REMARK    7  A    between atoms: C_21  and  C_22
REMARK                            x       y       z     vdW  Elec       q    Type
REMARK                         _______ _______ _______ _____ _____    ______ ____
ROOT
ATOM      1  C   UNL     1      -0.353  10.614  21.302  0.00  0.00    +0.000 A 
ATOM      2  C   UNL     1      -0.474  11.563  20.307  0.00  0.00    +0.000 A 
ATOM      3  S   UNL     1       0.382  11.071  18.915  0.00  0.00    +0.000 S 
ATOM      4  C   UNL     1       0.849   9.623  19.724  0.00  0.00    +0.000 A 
ATOM      5  N   UNL     1       0.366   9.489  20.943  0.00  0.00    +0.000 NA
ENDROOT
BRANCH   4   6
ATOM      6  C   UNL     1       1.707   8.629  19.077  0.00  0.00    +0.000 A 
ATOM      7  C   UNL     1       2.575   9.024  18.052  0.00  0.00    +0.000 A 
ATOM      8  C   UNL     1       3.371   8.081  17.413  0.00  0.00    +0.000 A 
ATOM      9  C   UNL     1       3.290   6.745  17.785  0.00  0.00    +0.000 A 
ATOM     10  F   UNL     1       4.079   5.874  17.134  0.00  0.00    +0.000 F 
ATOM     11  C   UNL     1       2.422   6.293  18.794  0.00  0.00    +0.000 A 
ATOM     12  C   UNL     1       1.636   7.268  19.427  0.00  0.00    +0.000 A 
BRANCH  11  13
ATOM     13  C   UNL     1       2.336   4.809  19.174  0.00  0.00    +0.000 C 
ATOM     14  C   UNL     1       3.723   4.301  19.662  0.00  0.00    +0.000 C 
ATOM     15  C   UNL     1       3.673   2.805  20.014  0.00  0.00    +0.000 C 
ATOM     16  C   UNL     1       2.654   2.581  21.140  0.00  0.00    +0.000 C 
ATOM     17  C   UNL     1       1.262   3.031  20.680  0.00  0.00    +0.000 C 
ATOM     18  C   UNL     1       0.840   2.231  19.440  0.00  0.00    +0.000 C 
ATOM     19  C   UNL     1       1.850   2.457  18.307  0.00  0.00    +0.000 C 
ATOM     20  C   UNL     1       3.245   2.007  18.772  0.00  0.00    +0.000 C 
ATOM     21  C   UNL     1       1.894   3.954  17.950  0.00  0.00    +0.000 C 
ATOM     22  C   UNL     1       1.313   4.522  20.321  0.00  0.00    +0.000 C 
ENDBRANCH  11  13
ENDBRANCH   4   6
BRANCH   1  23
ATOM     23  C   UNL     1      -0.931  10.689  22.676  0.00  0.00    +0.000 C 
BRANCH  23  24
ATOM     24  C   UNL     1      -1.271  12.117  23.114  0.00  0.00    +0.000 C 
BRANCH  24  27
ATOM     25  C   UNL     1      -3.276  13.541  23.484  0.00  0.00    +0.000 C 
ATOM     26  O   UNL     1      -2.600  14.561  23.497  0.00  0.00    +0.000 OA
ATOM     27  N   UNL     1      -2.697  12.293  23.302  0.00  0.00    +0.000 N 
ATOM     28  H   UNL     1      -3.303  11.479  23.278  0.00  0.00    +0.000 HD
BRANCH  25  34
ATOM     29  C   UNL     1      -5.595  15.927  23.158  0.00  0.00    +0.000 C 
ATOM     30  C   UNL     1      -5.726  14.498  23.524  0.00  0.00    +0.000 A 
ATOM     31  C   UNL     1      -6.954  13.841  23.828  0.00  0.00    +0.000 A 
ATOM     32  C   UNL     1      -6.641  12.535  24.104  0.00  0.00    +0.000 A 
ATOM     33  O   UNL     1      -5.309  12.333  23.999  0.00  0.00    +0.000 OA
ATOM     34  C   UNL     1      -4.733  13.527  23.648  0.00  0.00    +0.000 A 
ENDBRANCH  25  34
ENDBRANCH  24  27
ENDBRANCH  23  24
ENDBRANCH   1  23
TORSDOF 6
ENDMDL
MODEL 9
REMARK VINA RESULT:      -8.9      2.026      3.037
REMARK  Name = 
REMARK  7 active torsions:
REMARK  status: ('A' for Active; 'I' for Inactive)
REMARK    1  A    between atoms: C_1  and  C_2
REMARK    2  A    between atoms: C_6  and  C_7
REMARK    3  A    between atoms: N_9  and  C_10
REMARK    4  A    between atoms: C_10  and  C_11
REMARK    5  A    between atoms: C_11  and  C_12
REMARK    6  A    between atoms: C_15  and  C_16
REMARK    7  A    between atoms: C_21  and  C_22
REMARK                            x       y       z     vdW  Elec       q    Type
REMARK                         _______ _______ _______ _____ _____    ______ ____
ROOT
ATOM      1  C   UNL     1      -0.440  11.295  20.186  0.00  0.00    +0.000 A 
ATOM      2  C   UNL     1      -0.345  10.851  21.490  0.00  0.00    +0.000 A 
ATOM      3  S   UNL     1       0.660   9.474  21.572  0.00  0.00    +0.000 S 
ATOM      4  C   UNL     1       0.911   9.566  19.870  0.00  0.00    +0.000 A 
ATOM      5  N   UNL     1       0.318  10.582  19.276  0.00  0.00    +0.000 NA
ENDROOT
BRANCH   4   6
ATOM      6  C   UNL     1       1.736   8.583  19.166  0.00  0.00    +0.000 A 
ATOM      7  C   UNL     1       2.556   8.995  18.109  0.00  0.00    +0.000 A 
ATOM      8  C   UNL     1       3.319   8.063  17.416  0.00  0.00    +0.000 A 
ATOM      9  C   UNL     1       3.253   6.720  17.767  0.00  0.00    +0.000 A 
ATOM     10  F   UNL     1       4.009   5.860  17.065  0.00  0.00    +0.000 F 
ATOM     11  C   UNL     1       2.432   6.251  18.808  0.00  0.00    +0.000 A 
ATOM     12  C   UNL     1       1.679   7.216  19.494  0.00  0.00    +0.000 A 
BRANCH  11  13
ATOM     13  C   UNL     1       2.362   4.761  19.164  0.00  0.00    +0.000 C 
ATOM     14  C   UNL     1       1.329   4.532  20.305  0.00  0.00    +0.000 C 
ATOM     15  C   UNL     1       1.267   3.048  20.707  0.00  0.00    +0.000 C 
ATOM     16  C   UNL     1       0.838   2.211  19.494  0.00  0.00    +0.000 C 
ATOM     17  C   UNL     1       1.857   2.377  18.359  0.00  0.00    +0.000 C 
ATOM     18  C   UNL     1       3.243   1.920  18.833  0.00  0.00    +0.000 C 
ATOM     19  C   UNL     1       3.682   2.759  20.041  0.00  0.00    +0.000 C 
ATOM     20  C   UNL     1       2.658   2.592  21.176  0.00  0.00    +0.000 C 
ATOM     21  C   UNL     1       3.752   4.243  19.636  0.00  0.00    +0.000 C 
ATOM     22  C   UNL     1       1.926   3.858  17.963  0.00  0.00    +0.000 C 
ENDBRANCH  11  13
ENDBRANCH   4   6
BRANCH   1  23
ATOM     23  C   UNL     1      -1.247  12.452  19.699  0.00  0.00    +0.000 C 
BRANCH  23  24
ATOM     24  C   UNL     1      -2.530  12.035  18.972  0.00  0.00    +0.000 C 
BRANCH  24  27
ATOM     25  C   UNL     1      -4.992  12.241  19.251  0.00  0.00    +0.000 C 
ATOM     26  O   UNL     1      -5.190  11.960  18.076  0.00  0.00    +0.000 OA
ATOM     27  N   UNL     1      -3.708  12.301  19.773  0.00  0.00    +0.000 N 
ATOM     28  H   UNL     1      -3.597  12.518  20.758  0.00  0.00    +0.000 HD
BRANCH  25  34
ATOM     29  C   UNL     1      -7.480  10.372  20.473  0.00  0.00    +0.000 C 
ATOM     30  C   UNL     1      -7.113  11.782  20.739  0.00  0.00    +0.000 A 
ATOM     31  C   UNL     1      -7.809  12.655  21.625  0.00  0.00    +0.000 A 
ATOM     32  C   UNL     1      -7.148  13.856  21.589  0.00  0.00    +0.000 A 
ATOM     33  O   UNL     1      -6.096  13.795  20.743  0.00  0.00    +0.000 OA
ATOM     34  C   UNL     1      -6.063  12.532  20.211  0.00  0.00    +0.000 A 
ENDBRANCH  25  34
ENDBRANCH  24  27
ENDBRANCH  23  24
ENDBRANCH   1  23
TORSDOF 6
ENDMDL
