MODEL 1
REMARK VINA RESULT:      -7.8      0.000      0.000
REMARK  Name = 
REMARK  1 active torsions:
REMARK  status: ('A' for Active; 'I' for Inactive)
REMARK    1  A    between atoms: C_9  and  O_10
REMARK                            x       y       z     vdW  Elec       q    Type
REMARK                         _______ _______ _______ _____ _____    ______ ____
ROOT
ATOM      1  O   UNL     1       5.812   2.912  15.382  0.00  0.00    +0.000 OA
ATOM      2  C   UNL     1       5.816   3.960  16.013  0.00  0.00    +0.000 C 
ATOM      3  C   UNL     1       6.916   4.910  15.814  0.00  0.00    +0.000 C 
ATOM      4  C   UNL     1       6.894   6.118  16.380  0.00  0.00    +0.000 C 
ATOM      5  C   UNL     1       5.760   6.567  17.202  0.00  0.00    +0.000 C 
ATOM      6  O   UNL     1       5.769   7.696  17.674  0.00  0.00    +0.000 OA
ATOM      7  C   UNL     1       4.642   5.613  17.428  0.00  0.00    +0.000 C 
ATOM      8  C   UNL     1       4.719   4.342  16.953  0.00  0.00    +0.000 C 
ATOM      9  C   UNL     1       3.658   3.290  17.235  0.00  0.00    +0.000 C 
ATOM     10  C   UNL     1       2.962   3.634  18.550  0.00  0.00    +0.000 C 
ATOM     11  C   UNL     1       1.810   2.701  18.975  0.00  0.00    +0.000 C 
ATOM     12  C   UNL     1       1.026   3.268  20.153  0.00  0.00    +0.000 C 
ATOM     13  C   UNL     1       1.108   4.557  20.554  0.00  0.00    +0.000 C 
ATOM     14  C   UNL     1       2.163   5.440  19.968  0.00  0.00    +0.000 C 
ATOM     15  C   UNL     1       2.225   6.942  19.825  0.00  0.00    +0.000 C 
ATOM     16  O   UNL     1       1.584   7.790  20.413  0.00  0.00    +0.000 OA
ATOM     17  O   UNL     1       3.317   7.169  18.996  0.00  0.00    +0.000 OA
ATOM     18  C   UNL     1       3.336   6.142  17.997  0.00  0.00    +0.000 C 
ATOM     19  C   UNL     1       2.423   5.054  18.527  0.00  0.00    +0.000 C 
ENDROOT
BRANCH   9  20
ATOM     20  O   UNL     1       4.191   1.983  17.417  0.00  0.00    +0.000 OA
ATOM     21  H   UNL     1       3.998   1.439  16.636  0.00  0.00    +0.000 HD
ENDBRANCH   9  20
TORSDOF 1
ENDMDL
MODEL 2
REMARK VINA RESULT:      -7.2      1.258      4.754
REMARK  Name = 
REMARK  1 active torsions:
REMARK  status: ('A' for Active; 'I' for Inactive)
REMARK    1  A    between atoms: C_9  and  O_10
REMARK                            x       y       z     vdW  Elec       q    Type
REMARK                         _______ _______ _______ _____ _____    ______ ____
ROOT
ATOM      1  O   UNL     1       1.682   1.871  19.630  0.00  0.00    +0.000 OA
ATOM      2  C   UNL     1       1.865   3.079  19.589  0.00  0.00    +0.000 C 
ATOM      3  C   UNL     1       1.014   3.959  20.398  0.00  0.00    +0.000 C 
ATOM      4  C   UNL     1       1.261   5.267  20.486  0.00  0.00    +0.000 C 
ATOM      5  C   UNL     1       2.409   5.886  19.806  0.00  0.00    +0.000 C 
ATOM      6  O   UNL     1       2.615   7.084  19.942  0.00  0.00    +0.000 OA
ATOM      7  C   UNL     1       3.275   5.013  18.968  0.00  0.00    +0.000 C 
ATOM      8  C   UNL     1       2.954   3.706  18.781  0.00  0.00    +0.000 C 
ATOM      9  C   UNL     1       3.741   2.788  17.858  0.00  0.00    +0.000 C 
ATOM     10  C   UNL     1       4.406   3.633  16.774  0.00  0.00    +0.000 C 
ATOM     11  C   UNL     1       5.296   2.875  15.769  0.00  0.00    +0.000 C 
ATOM     12  C   UNL     1       6.106   3.827  14.897  0.00  0.00    +0.000 C 
ATOM     13  C   UNL     1       6.280   5.136  15.183  0.00  0.00    +0.000 C 
ATOM     14  C   UNL     1       5.484   5.757  16.287  0.00  0.00    +0.000 C 
ATOM     15  C   UNL     1       5.760   6.972  17.140  0.00  0.00    +0.000 C 
ATOM     16  O   UNL     1       6.531   7.889  16.934  0.00  0.00    +0.000 OA
ATOM     17  O   UNL     1       4.801   6.918  18.144  0.00  0.00    +0.000 OA
ATOM     18  C   UNL     1       4.624   5.545  18.516  0.00  0.00    +0.000 C 
ATOM     19  C   UNL     1       5.242   4.744  17.386  0.00  0.00    +0.000 C 
ENDROOT
BRANCH   9  20
ATOM     20  O   UNL     1       2.924   1.852  17.162  0.00  0.00    +0.000 OA
ATOM     21  H   UNL     1       2.036   1.836  17.556  0.00  0.00    +0.000 HD
ENDBRANCH   9  20
TORSDOF 1
ENDMDL
MODEL 3
REMARK VINA RESULT:      -7.1      1.977      5.602
REMARK  Name = 
REMARK  1 active torsions:
REMARK  status: ('A' for Active; 'I' for Inactive)
REMARK    1  A    between atoms: C_9  and  O_10
REMARK                            x       y       z     vdW  Elec       q    Type
REMARK                         _______ _______ _______ _____ _____    ______ ____
ROOT
ATOM      1  O   UNL     1       0.498   4.386  20.412  0.00  0.00    +0.000 OA
ATOM      2  C   UNL     1       1.621   3.910  20.493  0.00  0.00    +0.000 C 
ATOM      3  C   UNL     1       1.864   2.809  21.433  0.00  0.00    +0.000 C 
ATOM      4  C   UNL     1       3.038   2.174  21.460  0.00  0.00    +0.000 C 
ATOM      5  C   UNL     1       4.129   2.522  20.538  0.00  0.00    +0.000 C 
ATOM      6  O   UNL     1       5.175   1.889  20.578  0.00  0.00    +0.000 OA
ATOM      7  C   UNL     1       3.906   3.645  19.588  0.00  0.00    +0.000 C 
ATOM      8  C   UNL     1       2.759   4.370  19.641  0.00  0.00    +0.000 C 
ATOM      9  C   UNL     1       2.513   5.590  18.767  0.00  0.00    +0.000 C 
ATOM     10  C   UNL     1       3.859   6.210  18.399  0.00  0.00    +0.000 C 
ATOM     11  C   UNL     1       3.812   7.436  17.465  0.00  0.00    +0.000 C 
ATOM     12  C   UNL     1       5.198   7.818  16.959  0.00  0.00    +0.000 C 
ATOM     13  C   UNL     1       6.273   7.003  17.040  0.00  0.00    +0.000 C 
ATOM     14  C   UNL     1       6.180   5.745  17.844  0.00  0.00    +0.000 C 
ATOM     15  C   UNL     1       6.961   4.456  17.753  0.00  0.00    +0.000 C 
ATOM     16  O   UNL     1       8.032   4.250  17.217  0.00  0.00    +0.000 OA
ATOM     17  O   UNL     1       6.277   3.575  18.583  0.00  0.00    +0.000 OA
ATOM     18  C   UNL     1       4.874   3.821  18.430  0.00  0.00    +0.000 C 
ATOM     19  C   UNL     1       4.778   5.180  17.764  0.00  0.00    +0.000 C 
ENDROOT
BRANCH   9  20
ATOM     20  O   UNL     1       1.788   6.622  19.428  0.00  0.00    +0.000 OA
ATOM     21  H   UNL     1       2.391   7.139  19.987  0.00  0.00    +0.000 HD
ENDBRANCH   9  20
TORSDOF 1
ENDMDL
MODEL 4
REMARK VINA RESULT:      -7.0      1.628      4.734
REMARK  Name = 
REMARK  1 active torsions:
REMARK  status: ('A' for Active; 'I' for Inactive)
REMARK    1  A    between atoms: C_9  and  O_10
REMARK                            x       y       z     vdW  Elec       q    Type
REMARK                         _______ _______ _______ _____ _____    ______ ____
ROOT
ATOM      1  O   UNL     1       1.032   7.573  21.295  0.00  0.00    +0.000 OA
ATOM      2  C   UNL     1       1.522   7.647  20.177  0.00  0.00    +0.000 C 
ATOM      3  C   UNL     1       1.433   8.913  19.440  0.00  0.00    +0.000 C 
ATOM      4  C   UNL     1       2.065   9.078  18.277  0.00  0.00    +0.000 C 
ATOM      5  C   UNL     1       2.902   8.020  17.693  0.00  0.00    +0.000 C 
ATOM      6  O   UNL     1       3.490   8.229  16.640  0.00  0.00    +0.000 OA
ATOM      7  C   UNL     1       2.993   6.724  18.417  0.00  0.00    +0.000 C 
ATOM      8  C   UNL     1       2.254   6.512  19.538  0.00  0.00    +0.000 C 
ATOM      9  C   UNL     1       2.226   5.178  20.267  0.00  0.00    +0.000 C 
ATOM     10  C   UNL     1       2.541   4.066  19.269  0.00  0.00    +0.000 C 
ATOM     11  C   UNL     1       2.610   2.636  19.842  0.00  0.00    +0.000 C 
ATOM     12  C   UNL     1       3.173   1.646  18.830  0.00  0.00    +0.000 C 
ATOM     13  C   UNL     1       3.835   2.016  17.711  0.00  0.00    +0.000 C 
ATOM     14  C   UNL     1       3.850   3.458  17.312  0.00  0.00    +0.000 C 
ATOM     15  C   UNL     1       4.827   4.237  16.466  0.00  0.00    +0.000 C 
ATOM     16  O   UNL     1       5.650   3.822  15.675  0.00  0.00    +0.000 OA
ATOM     17  O   UNL     1       4.461   5.566  16.645  0.00  0.00    +0.000 OA
ATOM     18  C   UNL     1       4.078   5.740  18.015  0.00  0.00    +0.000 C 
ATOM     19  C   UNL     1       3.848   4.338  18.545  0.00  0.00    +0.000 C 
ENDROOT
BRANCH   9  20
ATOM     20  O   UNL     1       0.948   4.855  20.805  0.00  0.00    +0.000 OA
ATOM     21  H   UNL     1       0.424   4.380  20.139  0.00  0.00    +0.000 HD
ENDBRANCH   9  20
TORSDOF 1
ENDMDL
MODEL 5
REMARK VINA RESULT:      -6.9      1.811      3.549
REMARK  Name = 
REMARK  1 active torsions:
REMARK  status: ('A' for Active; 'I' for Inactive)
REMARK    1  A    between atoms: C_9  and  O_10
REMARK                            x       y       z     vdW  Elec       q    Type
REMARK                         _______ _______ _______ _____ _____    ______ ____
ROOT
ATOM      1  O   UNL     1       5.384   7.031  15.401  0.00  0.00    +0.000 OA
ATOM      2  C   UNL     1       5.047   5.975  15.917  0.00  0.00    +0.000 C 
ATOM      3  C   UNL     1       5.418   4.712  15.269  0.00  0.00    +0.000 C 
ATOM      4  C   UNL     1       5.186   3.540  15.862  0.00  0.00    +0.000 C 
ATOM      5  C   UNL     1       4.580   3.454  17.199  0.00  0.00    +0.000 C 
ATOM      6  O   UNL     1       4.417   2.358  17.717  0.00  0.00    +0.000 OA
ATOM      7  C   UNL     1       4.183   4.723  17.866  0.00  0.00    +0.000 C 
ATOM      8  C   UNL     1       4.307   5.909  17.213  0.00  0.00    +0.000 C 
ATOM      9  C   UNL     1       3.828   7.227  17.800  0.00  0.00    +0.000 C 
ATOM     10  C   UNL     1       2.692   6.945  18.780  0.00  0.00    +0.000 C 
ATOM     11  C   UNL     1       2.111   8.167  19.519  0.00  0.00    +0.000 C 
ATOM     12  C   UNL     1       1.171   7.755  20.646  0.00  0.00    +0.000 C 
ATOM     13  C   UNL     1       1.113   6.502  21.150  0.00  0.00    +0.000 C 
ATOM     14  C   UNL     1       1.843   5.398  20.453  0.00  0.00    +0.000 C 
ATOM     15  C   UNL     1       2.365   4.080  20.970  0.00  0.00    +0.000 C 
ATOM     16  O   UNL     1       2.057   3.482  21.983  0.00  0.00    +0.000 OA
ATOM     17  O   UNL     1       3.156   3.589  19.938  0.00  0.00    +0.000 OA
ATOM     18  C   UNL     1       3.852   4.694  19.349  0.00  0.00    +0.000 C 
ATOM     19  C   UNL     1       3.116   5.930  19.828  0.00  0.00    +0.000 C 
ENDROOT
BRANCH   9  20
ATOM     20  O   UNL     1       3.281   8.112  16.829  0.00  0.00    +0.000 OA
ATOM     21  H   UNL     1       3.318   9.025  17.160  0.00  0.00    +0.000 HD
ENDBRANCH   9  20
TORSDOF 1
ENDMDL
MODEL 6
REMARK VINA RESULT:      -6.9      1.815      4.774
REMARK  Name = 
REMARK  1 active torsions:
REMARK  status: ('A' for Active; 'I' for Inactive)
REMARK    1  A    between atoms: C_9  and  O_10
REMARK                            x       y       z     vdW  Elec       q    Type
REMARK                         _______ _______ _______ _____ _____    ______ ____
ROOT
ATOM      1  O   UNL     1       4.360   1.797  21.204  0.00  0.00    +0.000 OA
ATOM      2  C   UNL     1       3.480   2.604  20.939  0.00  0.00    +0.000 C 
ATOM      3  C   UNL     1       2.169   2.467  21.583  0.00  0.00    +0.000 C 
ATOM      4  C   UNL     1       1.224   3.397  21.426  0.00  0.00    +0.000 C 
ATOM      5  C   UNL     1       1.458   4.612  20.632  0.00  0.00    +0.000 C 
ATOM      6  O   UNL     1       0.573   5.453  20.543  0.00  0.00    +0.000 OA
ATOM      7  C   UNL     1       2.776   4.762  19.959  0.00  0.00    +0.000 C 
ATOM      8  C   UNL     1       3.693   3.761  20.019  0.00  0.00    +0.000 C 
ATOM      9  C   UNL     1       5.017   3.810  19.271  0.00  0.00    +0.000 C 
ATOM     10  C   UNL     1       4.856   4.704  18.044  0.00  0.00    +0.000 C 
ATOM     11  C   UNL     1       6.119   4.917  17.186  0.00  0.00    +0.000 C 
ATOM     12  C   UNL     1       5.919   6.012  16.145  0.00  0.00    +0.000 C 
ATOM     13  C   UNL     1       4.904   6.904  16.184  0.00  0.00    +0.000 C 
ATOM     14  C   UNL     1       3.791   6.705  17.163  0.00  0.00    +0.000 C 
ATOM     15  C   UNL     1       2.828   7.692  17.776  0.00  0.00    +0.000 C 
ATOM     16  O   UNL     1       2.537   8.809  17.396  0.00  0.00    +0.000 OA
ATOM     17  O   UNL     1       2.190   6.977  18.783  0.00  0.00    +0.000 OA
ATOM     18  C   UNL     1       3.159   6.122  19.402  0.00  0.00    +0.000 C 
ATOM     19  C   UNL     1       4.323   6.072  18.432  0.00  0.00    +0.000 C 
ENDROOT
BRANCH   9  20
ATOM     20  O   UNL     1       5.429   2.544  18.768  0.00  0.00    +0.000 OA
ATOM     21  H   UNL     1       4.651   2.036  18.483  0.00  0.00    +0.000 HD
ENDBRANCH   9  20
TORSDOF 1
ENDMDL
MODEL 7
REMARK VINA RESULT:      -6.9      1.919      3.631
REMARK  Name = 
REMARK  1 active torsions:
REMARK  status: ('A' for Active; 'I' for Inactive)
REMARK    1  A    between atoms: C_9  and  O_10
REMARK                            x       y       z     vdW  Elec       q    Type
REMARK                         _______ _______ _______ _____ _____    ______ ____
ROOT
ATOM      1  O   UNL     1       3.323   8.078  16.930  0.00  0.00    +0.000 OA
ATOM      2  C   UNL     1       4.047   7.094  16.993  0.00  0.00    +0.000 C 
ATOM      3  C   UNL     1       5.178   6.980  16.064  0.00  0.00    +0.000 C 
ATOM      4  C   UNL     1       6.068   5.992  16.182  0.00  0.00    +0.000 C 
ATOM      5  C   UNL     1       5.979   4.993  17.258  0.00  0.00    +0.000 C 
ATOM      6  O   UNL     1       6.837   4.126  17.345  0.00  0.00    +0.000 OA
ATOM      7  C   UNL     1       4.831   5.084  18.199  0.00  0.00    +0.000 C 
ATOM      8  C   UNL     1       3.860   6.015  18.008  0.00  0.00    +0.000 C 
ATOM      9  C   UNL     1       2.612   6.094  18.874  0.00  0.00    +0.000 C 
ATOM     10  C   UNL     1       2.320   4.709  19.444  0.00  0.00    +0.000 C 
ATOM     11  C   UNL     1       1.113   4.604  20.398  0.00  0.00    +0.000 C 
ATOM     12  C   UNL     1       1.061   3.254  21.102  0.00  0.00    +0.000 C 
ATOM     13  C   UNL     1       2.103   2.395  21.148  0.00  0.00    +0.000 C 
ATOM     14  C   UNL     1       3.308   2.659  20.303  0.00  0.00    +0.000 C 
ATOM     15  C   UNL     1       4.743   2.218  20.464  0.00  0.00    +0.000 C 
ATOM     16  O   UNL     1       5.190   1.311  21.138  0.00  0.00    +0.000 OA
ATOM     17  O   UNL     1       5.445   2.961  19.522  0.00  0.00    +0.000 OA
ATOM     18  C   UNL     1       4.879   4.277  19.485  0.00  0.00    +0.000 C 
ATOM     19  C   UNL     1       3.533   4.151  20.171  0.00  0.00    +0.000 C 
ENDROOT
BRANCH   9  20
ATOM     20  O   UNL     1       1.444   6.461  18.149  0.00  0.00    +0.000 OA
ATOM     21  H   UNL     1       0.653   6.217  18.659  0.00  0.00    +0.000 HD
ENDBRANCH   9  20
TORSDOF 1
ENDMDL
MODEL 8
REMARK VINA RESULT:      -6.6      1.337      5.728
REMARK  Name = 
REMARK  1 active torsions:
REMARK  status: ('A' for Active; 'I' for Inactive)
REMARK    1  A    between atoms: C_9  and  O_10
REMARK                            x       y       z     vdW  Elec       q    Type
REMARK                         _______ _______ _______ _____ _____    ______ ____
ROOT
ATOM      1  O   UNL     1       0.668   5.000  20.628  0.00  0.00    +0.000 OA
ATOM      2  C   UNL     1       1.400   4.159  20.127  0.00  0.00    +0.000 C 
ATOM      3  C   UNL     1       1.228   2.749  20.498  0.00  0.00    +0.000 C 
ATOM      4  C   UNL     1       1.914   1.785  19.880  0.00  0.00    +0.000 C 
ATOM      5  C   UNL     1       2.848   2.081  18.783  0.00  0.00    +0.000 C 
ATOM      6  O   UNL     1       3.430   1.161  18.224  0.00  0.00    +0.000 OA
ATOM      7  C   UNL     1       3.048   3.505  18.403  0.00  0.00    +0.000 C 
ATOM      8  C   UNL     1       2.442   4.495  19.111  0.00  0.00    +0.000 C 
ATOM      9  C   UNL     1       2.684   5.971  18.837  0.00  0.00    +0.000 C 
ATOM     10  C   UNL     1       4.069   6.135  18.216  0.00  0.00    +0.000 C 
ATOM     11  C   UNL     1       4.472   7.570  17.818  0.00  0.00    +0.000 C 
ATOM     12  C   UNL     1       5.749   7.590  16.986  0.00  0.00    +0.000 C 
ATOM     13  C   UNL     1       6.271   6.494  16.392  0.00  0.00    +0.000 C 
ATOM     14  C   UNL     1       5.711   5.147  16.719  0.00  0.00    +0.000 C 
ATOM     15  C   UNL     1       5.717   3.858  15.933  0.00  0.00    +0.000 C 
ATOM     16  O   UNL     1       6.428   3.537  15.001  0.00  0.00    +0.000 OA
ATOM     17  O   UNL     1       4.847   3.023  16.624  0.00  0.00    +0.000 OA
ATOM     18  C   UNL     1       3.750   3.817  17.093  0.00  0.00    +0.000 C 
ATOM     19  C   UNL     1       4.225   5.253  16.989  0.00  0.00    +0.000 C 
ENDROOT
BRANCH   9  20
ATOM     20  O   UNL     1       2.699   6.769  20.015  0.00  0.00    +0.000 OA
ATOM     21  H   UNL     1       2.572   7.703  19.779  0.00  0.00    +0.000 HD
ENDBRANCH   9  20
TORSDOF 1
ENDMDL
MODEL 9
REMARK VINA RESULT:      -6.6      1.985      5.136
REMARK  Name = 
REMARK  1 active torsions:
REMARK  status: ('A' for Active; 'I' for Inactive)
REMARK    1  A    between atoms: C_9  and  O_10
REMARK                            x       y       z     vdW  Elec       q    Type
REMARK                         _______ _______ _______ _____ _____    ______ ____
ROOT
ATOM      1  O   UNL     1       0.704   7.679  21.731  0.00  0.00    +0.000 OA
ATOM      2  C   UNL     1       1.069   8.038  20.620  0.00  0.00    +0.000 C 
ATOM      3  C   UNL     1       0.611   9.333  20.101  0.00  0.00    +0.000 C 
ATOM      4  C   UNL     1       1.087   9.822  18.955  0.00  0.00    +0.000 C 
ATOM      5  C   UNL     1       2.110   9.110  18.174  0.00  0.00    +0.000 C 
ATOM      6  O   UNL     1       2.540   9.614  17.145  0.00  0.00    +0.000 OA
ATOM      7  C   UNL     1       2.575   7.789  18.676  0.00  0.00    +0.000 C 
ATOM      8  C   UNL     1       2.004   7.235  19.777  0.00  0.00    +0.000 C 
ATOM      9  C   UNL     1       2.364   5.846  20.281  0.00  0.00    +0.000 C 
ATOM     10  C   UNL     1       2.862   5.009  19.106  0.00  0.00    +0.000 C 
ATOM     11  C   UNL     1       3.326   3.577  19.437  0.00  0.00    +0.000 C 
ATOM     12  C   UNL     1       4.033   2.922  18.256  0.00  0.00    +0.000 C 
ATOM     13  C   UNL     1       4.491   3.608  17.185  0.00  0.00    +0.000 C 
ATOM     14  C   UNL     1       4.118   5.048  17.024  0.00  0.00    +0.000 C 
ATOM     15  C   UNL     1       4.801   6.166  16.275  0.00  0.00    +0.000 C 
ATOM     16  O   UNL     1       5.635   6.095  15.393  0.00  0.00    +0.000 OA
ATOM     17  O   UNL     1       4.135   7.316  16.681  0.00  0.00    +0.000 OA
ATOM     18  C   UNL     1       3.833   7.185  18.076  0.00  0.00    +0.000 C 
ATOM     19  C   UNL     1       3.999   5.709  18.381  0.00  0.00    +0.000 C 
ENDROOT
BRANCH   9  20
ATOM     20  O   UNL     1       1.253   5.132  20.812  0.00  0.00    +0.000 OA
ATOM     21  H   UNL     1       0.670   4.849  20.089  0.00  0.00    +0.000 HD
ENDBRANCH   9  20
TORSDOF 1
ENDMDL
