MODEL 1
REMARK VINA RESULT:      -8.8      0.000      0.000
REMARK  Name = 
REMARK  4 active torsions:
REMARK  status: ('A' for Active; 'I' for Inactive)
REMARK    1  A    between atoms: C_2  and  C_3
REMARK    2  A    between atoms: C_3  and  N_4
REMARK    3  A    between atoms: N_18  and  C_19
REMARK    4  A    between atoms: C_19  and  C_20
REMARK                            x       y       z     vdW  Elec       q    Type
REMARK                         _______ _______ _______ _____ _____    ______ ____
ROOT
ATOM      1  N   UNL     1       5.960   6.319  17.209  0.00  0.00    +0.000 N 
ATOM      2  C   UNL     1       4.558   6.576  17.474  0.00  0.00    +0.000 A 
ATOM      3  C   UNL     1       3.935   7.820  17.546  0.00  0.00    +0.000 A 
ATOM      4  C   UNL     1       2.569   7.840  17.885  0.00  0.00    +0.000 A 
ATOM      5  C   UNL     1       1.847   6.663  18.143  0.00  0.00    +0.000 A 
ATOM      6  C   UNL     1       2.477   5.415  18.052  0.00  0.00    +0.000 A 
ATOM      7  C   UNL     1       1.871   4.169  18.298  0.00  0.00    +0.000 A 
ATOM      8  C   UNL     1       2.612   2.976  18.179  0.00  0.00    +0.000 A 
ATOM      9  C   UNL     1       3.965   2.986  17.808  0.00  0.00    +0.000 A 
ATOM     10  C   UNL     1       4.531   4.232  17.571  0.00  0.00    +0.000 A 
ATOM     11  C   UNL     1       3.813   5.409  17.702  0.00  0.00    +0.000 A 
ATOM     12  S   UNL     1       6.183   4.647  17.138  0.00  0.00    +0.000 S 
ATOM     13  O   UNL     1       6.229   4.149  15.786  0.00  0.00    +0.000 OA
ATOM     14  O   UNL     1       6.875   4.077  18.264  0.00  0.00    +0.000 OA
ENDROOT
BRANCH   1  15
ATOM     15  C   UNL     1       6.985   7.244  16.762  0.00  0.00    +0.000 C 
BRANCH  15  17
ATOM     16  O   UNL     1       8.235   6.993  18.810  0.00  0.00    +0.000 OA
ATOM     17  C   UNL     1       7.834   7.746  17.927  0.00  0.00    +0.000 C 
ATOM     18  N   UNL     1       8.126   9.094  17.892  0.00  0.00    +0.000 N 
ATOM     19  H   UNL     1       7.828   9.664  17.109  0.00  0.00    +0.000 HD
BRANCH  18  20
ATOM     20  C   UNL     1       8.942   9.730  18.904  0.00  0.00    +0.000 C 
BRANCH  20  21
ATOM     21  C   UNL     1       9.547  11.005  18.371  0.00  0.00    +0.000 A 
ATOM     22  C   UNL     1       8.717  12.059  17.954  0.00  0.00    +0.000 A 
ATOM     23  C   UNL     1       9.270  13.239  17.450  0.00  0.00    +0.000 A 
ATOM     24  C   UNL     1      10.650  13.360  17.351  0.00  0.00    +0.000 A 
ATOM     25  F   UNL     1      11.181  14.491  16.866  0.00  0.00    +0.000 F 
ATOM     26  C   UNL     1      11.490  12.325  17.745  0.00  0.00    +0.000 A 
ATOM     27  C   UNL     1      10.940  11.146  18.254  0.00  0.00    +0.000 A 
ENDBRANCH  20  21
ENDBRANCH  18  20
ENDBRANCH  15  17
ENDBRANCH   1  15
TORSDOF 4
ENDMDL
MODEL 2
REMARK VINA RESULT:      -8.4      1.831      2.156
REMARK  Name = 
REMARK  4 active torsions:
REMARK  status: ('A' for Active; 'I' for Inactive)
REMARK    1  A    between atoms: C_2  and  C_3
REMARK    2  A    between atoms: C_3  and  N_4
REMARK    3  A    between atoms: N_18  and  C_19
REMARK    4  A    between atoms: C_19  and  C_20
REMARK                            x       y       z     vdW  Elec       q    Type
REMARK                         _______ _______ _______ _____ _____    ______ ____
ROOT
ATOM      1  N   UNL     1       4.654   5.989  18.006  0.00  0.00    +0.000 N 
ATOM      2  C   UNL     1       3.516   6.190  18.881  0.00  0.00    +0.000 A 
ATOM      3  C   UNL     1       2.784   7.364  19.045  0.00  0.00    +0.000 A 
ATOM      4  C   UNL     1       1.754   7.356  20.005  0.00  0.00    +0.000 A 
ATOM      5  C   UNL     1       1.463   6.219  20.776  0.00  0.00    +0.000 A 
ATOM      6  C   UNL     1       2.193   5.037  20.594  0.00  0.00    +0.000 A 
ATOM      7  C   UNL     1       2.008   3.839  21.308  0.00  0.00    +0.000 A 
ATOM      8  C   UNL     1       2.811   2.713  21.039  0.00  0.00    +0.000 A 
ATOM      9  C   UNL     1       3.808   2.742  20.052  0.00  0.00    +0.000 A 
ATOM     10  C   UNL     1       3.962   3.938  19.365  0.00  0.00    +0.000 A 
ATOM     11  C   UNL     1       3.188   5.054  19.637  0.00  0.00    +0.000 A 
ATOM     12  S   UNL     1       5.117   4.369  18.112  0.00  0.00    +0.000 S 
ATOM     13  O   UNL     1       4.618   3.575  17.016  0.00  0.00    +0.000 OA
ATOM     14  O   UNL     1       6.344   4.132  18.826  0.00  0.00    +0.000 OA
ENDROOT
BRANCH   1  15
ATOM     15  C   UNL     1       5.166   6.861  16.966  0.00  0.00    +0.000 C 
BRANCH  15  17
ATOM     16  O   UNL     1       7.448   6.311  16.411  0.00  0.00    +0.000 OA
ATOM     17  C   UNL     1       6.681   7.017  17.060  0.00  0.00    +0.000 C 
ATOM     18  N   UNL     1       7.109   8.018  17.907  0.00  0.00    +0.000 N 
ATOM     19  H   UNL     1       6.439   8.619  18.372  0.00  0.00    +0.000 HD
BRANCH  18  20
ATOM     20  C   UNL     1       8.512   8.320  18.094  0.00  0.00    +0.000 C 
BRANCH  20  21
ATOM     21  C   UNL     1       8.702   9.783  18.409  0.00  0.00    +0.000 A 
ATOM     22  C   UNL     1       8.290  10.761  17.489  0.00  0.00    +0.000 A 
ATOM     23  C   UNL     1       8.472  12.117  17.768  0.00  0.00    +0.000 A 
ATOM     24  C   UNL     1       9.076  12.496  18.960  0.00  0.00    +0.000 A 
ATOM     25  F   UNL     1       9.253  13.797  19.228  0.00  0.00    +0.000 F 
ATOM     26  C   UNL     1       9.505  11.544  19.879  0.00  0.00    +0.000 A 
ATOM     27  C   UNL     1       9.319  10.187  19.604  0.00  0.00    +0.000 A 
ENDBRANCH  20  21
ENDBRANCH  18  20
ENDBRANCH  15  17
ENDBRANCH   1  15
TORSDOF 4
ENDMDL
MODEL 3
REMARK VINA RESULT:      -8.2      4.997      6.686
REMARK  Name = 
REMARK  4 active torsions:
REMARK  status: ('A' for Active; 'I' for Inactive)
REMARK    1  A    between atoms: C_2  and  C_3
REMARK    2  A    between atoms: C_3  and  N_4
REMARK    3  A    between atoms: N_18  and  C_19
REMARK    4  A    between atoms: C_19  and  C_20
REMARK                            x       y       z     vdW  Elec       q    Type
REMARK                         _______ _______ _______ _____ _____    ______ ____
ROOT
ATOM      1  N   UNL     1       4.591   6.019  18.138  0.00  0.00    +0.000 N 
ATOM      2  C   UNL     1       3.455   6.152  19.029  0.00  0.00    +0.000 A 
ATOM      3  C   UNL     1       2.700   7.300  19.256  0.00  0.00    +0.000 A 
ATOM      4  C   UNL     1       1.677   7.221  20.220  0.00  0.00    +0.000 A 
ATOM      5  C   UNL     1       1.415   6.040  20.934  0.00  0.00    +0.000 A 
ATOM      6  C   UNL     1       2.169   4.885  20.688  0.00  0.00    +0.000 A 
ATOM      7  C   UNL     1       2.014   3.648  21.341  0.00  0.00    +0.000 A 
ATOM      8  C   UNL     1       2.838   2.555  21.010  0.00  0.00    +0.000 A 
ATOM      9  C   UNL     1       3.828   2.655  20.021  0.00  0.00    +0.000 A 
ATOM     10  C   UNL     1       3.952   3.888  19.394  0.00  0.00    +0.000 A 
ATOM     11  C   UNL     1       3.157   4.972  19.727  0.00  0.00    +0.000 A 
ATOM     12  S   UNL     1       5.090   4.406  18.158  0.00  0.00    +0.000 S 
ATOM     13  O   UNL     1       4.600   3.659  17.027  0.00  0.00    +0.000 OA
ATOM     14  O   UNL     1       6.325   4.160  18.853  0.00  0.00    +0.000 OA
ENDROOT
BRANCH   1  15
ATOM     15  C   UNL     1       5.078   6.954  17.141  0.00  0.00    +0.000 C 
BRANCH  15  17
ATOM     16  O   UNL     1       7.447   6.597  16.857  0.00  0.00    +0.000 OA
ATOM     17  C   UNL     1       6.313   6.416  16.423  0.00  0.00    +0.000 C 
ATOM     18  N   UNL     1       6.048   5.700  15.274  0.00  0.00    +0.000 N 
ATOM     19  H   UNL     1       5.093   5.520  14.989  0.00  0.00    +0.000 HD
BRANCH  18  20
ATOM     20  C   UNL     1       7.100   5.096  14.485  0.00  0.00    +0.000 C 
BRANCH  20  21
ATOM     21  C   UNL     1       6.517   4.198  13.422  0.00  0.00    +0.000 A 
ATOM     22  C   UNL     1       5.131   3.977  13.369  0.00  0.00    +0.000 A 
ATOM     23  C   UNL     1       4.584   3.139  12.395  0.00  0.00    +0.000 A 
ATOM     24  C   UNL     1       5.423   2.512  11.482  0.00  0.00    +0.000 A 
ATOM     25  F   UNL     1       4.899   1.706  10.549  0.00  0.00    +0.000 F 
ATOM     26  C   UNL     1       6.799   2.705  11.525  0.00  0.00    +0.000 A 
ATOM     27  C   UNL     1       7.348   3.547  12.495  0.00  0.00    +0.000 A 
ENDBRANCH  20  21
ENDBRANCH  18  20
ENDBRANCH  15  17
ENDBRANCH   1  15
TORSDOF 4
ENDMDL
MODEL 4
REMARK VINA RESULT:      -8.2      0.904      1.048
REMARK  Name = 
REMARK  4 active torsions:
REMARK  status: ('A' for Active; 'I' for Inactive)
REMARK    1  A    between atoms: C_2  and  C_3
REMARK    2  A    between atoms: C_3  and  N_4
REMARK    3  A    between atoms: N_18  and  C_19
REMARK    4  A    between atoms: C_19  and  C_20
REMARK                            x       y       z     vdW  Elec       q    Type
REMARK                         _______ _______ _______ _____ _____    ______ ____
ROOT
ATOM      1  N   UNL     1       6.080   6.468  17.206  0.00  0.00    +0.000 N 
ATOM      2  C   UNL     1       4.662   6.612  17.474  0.00  0.00    +0.000 A 
ATOM      3  C   UNL     1       3.965   7.802  17.671  0.00  0.00    +0.000 A 
ATOM      4  C   UNL     1       2.597   7.705  17.986  0.00  0.00    +0.000 A 
ATOM      5  C   UNL     1       1.944   6.467  18.102  0.00  0.00    +0.000 A 
ATOM      6  C   UNL     1       2.649   5.275  17.886  0.00  0.00    +0.000 A 
ATOM      7  C   UNL     1       2.116   3.976  17.984  0.00  0.00    +0.000 A 
ATOM      8  C   UNL     1       2.928   2.850  17.748  0.00  0.00    +0.000 A 
ATOM      9  C   UNL     1       4.282   2.979  17.403  0.00  0.00    +0.000 A 
ATOM     10  C   UNL     1       4.774   4.274  17.313  0.00  0.00    +0.000 A 
ATOM     11  C   UNL     1       3.986   5.386  17.560  0.00  0.00    +0.000 A 
ATOM     12  S   UNL     1       6.404   4.830  16.957  0.00  0.00    +0.000 S 
ATOM     13  O   UNL     1       6.493   4.487  15.559  0.00  0.00    +0.000 OA
ATOM     14  O   UNL     1       7.116   4.181  18.025  0.00  0.00    +0.000 OA
ENDROOT
BRANCH   1  15
ATOM     15  C   UNL     1       7.053   7.495  16.881  0.00  0.00    +0.000 C 
BRANCH  15  17
ATOM     16  O   UNL     1       8.310   6.970  18.871  0.00  0.00    +0.000 OA
ATOM     17  C   UNL     1       7.936   7.831  18.079  0.00  0.00    +0.000 C 
ATOM     18  N   UNL     1       8.290   9.160  18.183  0.00  0.00    +0.000 N 
ATOM     19  H   UNL     1       8.011   9.823  17.470  0.00  0.00    +0.000 HD
BRANCH  18  20
ATOM     20  C   UNL     1       9.145   9.647  19.244  0.00  0.00    +0.000 C 
BRANCH  20  21
ATOM     21  C   UNL     1       9.443  11.114  19.053  0.00  0.00    +0.000 A 
ATOM     22  C   UNL     1       9.684  11.935  20.166  0.00  0.00    +0.000 A 
ATOM     23  C   UNL     1       9.950  13.296  19.998  0.00  0.00    +0.000 A 
ATOM     24  C   UNL     1       9.962  13.838  18.719  0.00  0.00    +0.000 A 
ATOM     25  F   UNL     1      10.215  15.144  18.557  0.00  0.00    +0.000 F 
ATOM     26  C   UNL     1       9.712  13.047  17.604  0.00  0.00    +0.000 A 
ATOM     27  C   UNL     1       9.451  11.684  17.769  0.00  0.00    +0.000 A 
ENDBRANCH  20  21
ENDBRANCH  18  20
ENDBRANCH  15  17
ENDBRANCH   1  15
TORSDOF 4
ENDMDL
MODEL 5
REMARK VINA RESULT:      -8.1      4.739      6.539
REMARK  Name = 
REMARK  4 active torsions:
REMARK  status: ('A' for Active; 'I' for Inactive)
REMARK    1  A    between atoms: C_2  and  C_3
REMARK    2  A    between atoms: C_3  and  N_4
REMARK    3  A    between atoms: N_18  and  C_19
REMARK    4  A    between atoms: C_19  and  C_20
REMARK                            x       y       z     vdW  Elec       q    Type
REMARK                         _______ _______ _______ _____ _____    ______ ____
ROOT
ATOM      1  N   UNL     1       4.247   3.813  19.060  0.00  0.00    +0.000 N 
ATOM      2  C   UNL     1       5.454   4.539  18.714  0.00  0.00    +0.000 A 
ATOM      3  C   UNL     1       6.307   5.208  19.589  0.00  0.00    +0.000 A 
ATOM      4  C   UNL     1       7.391   5.908  19.026  0.00  0.00    +0.000 A 
ATOM      5  C   UNL     1       7.617   5.942  17.640  0.00  0.00    +0.000 A 
ATOM      6  C   UNL     1       6.764   5.253  16.768  0.00  0.00    +0.000 A 
ATOM      7  C   UNL     1       6.875   5.218  15.366  0.00  0.00    +0.000 A 
ATOM      8  C   UNL     1       5.949   4.491  14.592  0.00  0.00    +0.000 A 
ATOM      9  C   UNL     1       4.898   3.775  15.185  0.00  0.00    +0.000 A 
ATOM     10  C   UNL     1       4.819   3.829  16.570  0.00  0.00    +0.000 A 
ATOM     11  C   UNL     1       5.716   4.556  17.335  0.00  0.00    +0.000 A 
ATOM     12  S   UNL     1       3.633   3.112  17.652  0.00  0.00    +0.000 S 
ATOM     13  O   UNL     1       3.980   1.719  17.528  0.00  0.00    +0.000 OA
ATOM     14  O   UNL     1       2.439   3.727  17.137  0.00  0.00    +0.000 OA
ENDROOT
BRANCH   1  15
ATOM     15  C   UNL     1       3.757   3.438  20.374  0.00  0.00    +0.000 C 
BRANCH  15  17
ATOM     16  O   UNL     1       1.591   3.778  21.378  0.00  0.00    +0.000 OA
ATOM     17  C   UNL     1       2.543   4.269  20.778  0.00  0.00    +0.000 C 
ATOM     18  N   UNL     1       2.615   5.604  20.436  0.00  0.00    +0.000 N 
ATOM     19  H   UNL     1       3.449   5.978  19.999  0.00  0.00    +0.000 HD
BRANCH  18  20
ATOM     20  C   UNL     1       1.563   6.541  20.768  0.00  0.00    +0.000 C 
BRANCH  20  21
ATOM     21  C   UNL     1       1.645   7.763  19.888  0.00  0.00    +0.000 A 
ATOM     22  C   UNL     1       2.327   7.705  18.661  0.00  0.00    +0.000 A 
ATOM     23  C   UNL     1       2.416   8.836  17.847  0.00  0.00    +0.000 A 
ATOM     24  C   UNL     1       1.836  10.028  18.263  0.00  0.00    +0.000 A 
ATOM     25  F   UNL     1       1.923  11.113  17.483  0.00  0.00    +0.000 F 
ATOM     26  C   UNL     1       1.169  10.111  19.480  0.00  0.00    +0.000 A 
ATOM     27  C   UNL     1       1.074   8.980  20.294  0.00  0.00    +0.000 A 
ENDBRANCH  20  21
ENDBRANCH  18  20
ENDBRANCH  15  17
ENDBRANCH   1  15
TORSDOF 4
ENDMDL
MODEL 6
REMARK VINA RESULT:      -7.8      6.637      9.418
REMARK  Name = 
REMARK  4 active torsions:
REMARK  status: ('A' for Active; 'I' for Inactive)
REMARK    1  A    between atoms: C_2  and  C_3
REMARK    2  A    between atoms: C_3  and  N_4
REMARK    3  A    between atoms: N_18  and  C_19
REMARK    4  A    between atoms: C_19  and  C_20
REMARK                            x       y       z     vdW  Elec       q    Type
REMARK                         _______ _______ _______ _____ _____    ______ ____
ROOT
ATOM      1  N   UNL     1      -0.620  10.457  18.961  0.00  0.00    +0.000 N 
ATOM      2  C   UNL     1      -0.506  10.226  20.388  0.00  0.00    +0.000 A 
ATOM      3  C   UNL     1      -0.079   9.058  21.014  0.00  0.00    +0.000 A 
ATOM      4  C   UNL     1      -0.111   9.029  22.421  0.00  0.00    +0.000 A 
ATOM      5  C   UNL     1      -0.553  10.126  23.180  0.00  0.00    +0.000 A 
ATOM      6  C   UNL     1      -0.965  11.304  22.542  0.00  0.00    +0.000 A 
ATOM      7  C   UNL     1      -1.439  12.463  23.184  0.00  0.00    +0.000 A 
ATOM      8  C   UNL     1      -1.832  13.588  22.433  0.00  0.00    +0.000 A 
ATOM      9  C   UNL     1      -1.757  13.598  21.032  0.00  0.00    +0.000 A 
ATOM     10  C   UNL     1      -1.283  12.440  20.431  0.00  0.00    +0.000 A 
ATOM     11  C   UNL     1      -0.912  11.324  21.163  0.00  0.00    +0.000 A 
ATOM     12  S   UNL     1      -1.094  12.061  18.725  0.00  0.00    +0.000 S 
ATOM     13  O   UNL     1       0.012  12.923  18.390  0.00  0.00    +0.000 OA
ATOM     14  O   UNL     1      -2.453  12.236  18.289  0.00  0.00    +0.000 OA
ENDROOT
BRANCH   1  15
ATOM     15  C   UNL     1      -0.139   9.636  17.866  0.00  0.00    +0.000 C 
BRANCH  15  17
ATOM     16  O   UNL     1       2.138  10.413  18.043  0.00  0.00    +0.000 OA
ATOM     17  C   UNL     1       1.376   9.457  17.923  0.00  0.00    +0.000 C 
ATOM     18  N   UNL     1       1.808   8.149  17.852  0.00  0.00    +0.000 N 
ATOM     19  H   UNL     1       1.140   7.389  17.820  0.00  0.00    +0.000 HD
BRANCH  18  20
ATOM     20  C   UNL     1       3.210   7.798  17.919  0.00  0.00    +0.000 C 
BRANCH  20  21
ATOM     21  C   UNL     1       3.387   6.303  17.823  0.00  0.00    +0.000 A 
ATOM     22  C   UNL     1       4.650   5.759  17.537  0.00  0.00    +0.000 A 
ATOM     23  C   UNL     1       4.819   4.376  17.437  0.00  0.00    +0.000 A 
ATOM     24  C   UNL     1       3.724   3.538  17.610  0.00  0.00    +0.000 A 
ATOM     25  F   UNL     1       3.886   2.212  17.512  0.00  0.00    +0.000 F 
ATOM     26  C   UNL     1       2.463   4.056  17.880  0.00  0.00    +0.000 A 
ATOM     27  C   UNL     1       2.292   5.438  17.986  0.00  0.00    +0.000 A 
ENDBRANCH  20  21
ENDBRANCH  18  20
ENDBRANCH  15  17
ENDBRANCH   1  15
TORSDOF 4
ENDMDL
MODEL 7
REMARK VINA RESULT:      -7.7      6.454      9.731
REMARK  Name = 
REMARK  4 active torsions:
REMARK  status: ('A' for Active; 'I' for Inactive)
REMARK    1  A    between atoms: C_2  and  C_3
REMARK    2  A    between atoms: C_3  and  N_4
REMARK    3  A    between atoms: N_18  and  C_19
REMARK    4  A    between atoms: C_19  and  C_20
REMARK                            x       y       z     vdW  Elec       q    Type
REMARK                         _______ _______ _______ _____ _____    ______ ____
ROOT
ATOM      1  N   UNL     1       0.869  10.613  18.801  0.00  0.00    +0.000 N 
ATOM      2  C   UNL     1       1.504  11.908  18.954  0.00  0.00    +0.000 A 
ATOM      3  C   UNL     1       2.536  12.430  18.177  0.00  0.00    +0.000 A 
ATOM      4  C   UNL     1       3.051  13.687  18.546  0.00  0.00    +0.000 A 
ATOM      5  C   UNL     1       2.558  14.400  19.651  0.00  0.00    +0.000 A 
ATOM      6  C   UNL     1       1.508  13.875  20.418  0.00  0.00    +0.000 A 
ATOM      7  C   UNL     1       0.936  14.481  21.551  0.00  0.00    +0.000 A 
ATOM      8  C   UNL     1      -0.115  13.851  22.246  0.00  0.00    +0.000 A 
ATOM      9  C   UNL     1      -0.630  12.613  21.834  0.00  0.00    +0.000 A 
ATOM     10  C   UNL     1      -0.044  12.044  20.712  0.00  0.00    +0.000 A 
ATOM     11  C   UNL     1       1.001  12.650  20.034  0.00  0.00    +0.000 A 
ATOM     12  S   UNL     1      -0.380  10.504  19.933  0.00  0.00    +0.000 S 
ATOM     13  O   UNL     1      -1.673  10.781  19.360  0.00  0.00    +0.000 OA
ATOM     14  O   UNL     1      -0.125   9.618  21.037  0.00  0.00    +0.000 OA
ENDROOT
BRANCH   1  15
ATOM     15  C   UNL     1       0.998   9.660  17.715  0.00  0.00    +0.000 C 
BRANCH  15  17
ATOM     16  O   UNL     1       2.989   8.365  17.292  0.00  0.00    +0.000 OA
ATOM     17  C   UNL     1       2.035   8.585  18.032  0.00  0.00    +0.000 C 
ATOM     18  N   UNL     1       1.823   7.908  19.215  0.00  0.00    +0.000 N 
ATOM     19  H   UNL     1       1.058   8.168  19.827  0.00  0.00    +0.000 HD
BRANCH  18  20
ATOM     20  C   UNL     1       2.724   6.876  19.682  0.00  0.00    +0.000 C 
BRANCH  20  21
ATOM     21  C   UNL     1       2.143   5.508  19.422  0.00  0.00    +0.000 A 
ATOM     22  C   UNL     1       2.178   4.961  18.128  0.00  0.00    +0.000 A 
ATOM     23  C   UNL     1       1.634   3.700  17.878  0.00  0.00    +0.000 A 
ATOM     24  C   UNL     1       1.043   2.991  18.916  0.00  0.00    +0.000 A 
ATOM     25  F   UNL     1       0.519   1.782  18.675  0.00  0.00    +0.000 F 
ATOM     26  C   UNL     1       0.985   3.519  20.201  0.00  0.00    +0.000 A 
ATOM     27  C   UNL     1       1.533   4.778  20.455  0.00  0.00    +0.000 A 
ENDBRANCH  20  21
ENDBRANCH  18  20
ENDBRANCH  15  17
ENDBRANCH   1  15
TORSDOF 4
ENDMDL
MODEL 8
REMARK VINA RESULT:      -7.6      6.179      8.915
REMARK  Name = 
REMARK  4 active torsions:
REMARK  status: ('A' for Active; 'I' for Inactive)
REMARK    1  A    between atoms: C_2  and  C_3
REMARK    2  A    between atoms: C_3  and  N_4
REMARK    3  A    between atoms: N_18  and  C_19
REMARK    4  A    between atoms: C_19  and  C_20
REMARK                            x       y       z     vdW  Elec       q    Type
REMARK                         _______ _______ _______ _____ _____    ______ ____
ROOT
ATOM      1  N   UNL     1       0.538  11.072  18.672  0.00  0.00    +0.000 N 
ATOM      2  C   UNL     1      -0.862  10.843  18.371  0.00  0.00    +0.000 A 
ATOM      3  C   UNL     1      -1.380   9.979  17.409  0.00  0.00    +0.000 A 
ATOM      4  C   UNL     1      -2.777   9.963  17.238  0.00  0.00    +0.000 A 
ATOM      5  C   UNL     1      -3.630  10.780  17.998  0.00  0.00    +0.000 A 
ATOM      6  C   UNL     1      -3.102  11.635  18.976  0.00  0.00    +0.000 A 
ATOM      7  C   UNL     1      -3.845  12.508  19.791  0.00  0.00    +0.000 A 
ATOM      8  C   UNL     1      -3.200  13.327  20.739  0.00  0.00    +0.000 A 
ATOM      9  C   UNL     1      -1.808  13.296  20.908  0.00  0.00    +0.000 A 
ATOM     10  C   UNL     1      -1.105  12.422  20.090  0.00  0.00    +0.000 A 
ATOM     11  C   UNL     1      -1.732  11.627  19.144  0.00  0.00    +0.000 A 
ATOM     12  S   UNL     1       0.626  12.140  19.977  0.00  0.00    +0.000 S 
ATOM     13  O   UNL     1       0.860  11.467  21.230  0.00  0.00    +0.000 OA
ATOM     14  O   UNL     1       1.063  13.470  19.647  0.00  0.00    +0.000 OA
ENDROOT
BRANCH   1  15
ATOM     15  C   UNL     1       1.699  10.335  18.211  0.00  0.00    +0.000 C 
BRANCH  15  17
ATOM     16  O   UNL     1       1.240   8.704  19.927  0.00  0.00    +0.000 OA
ATOM     17  C   UNL     1       1.774   8.950  18.849  0.00  0.00    +0.000 C 
ATOM     18  N   UNL     1       2.463   8.009  18.113  0.00  0.00    +0.000 N 
ATOM     19  H   UNL     1       2.831   8.242  17.198  0.00  0.00    +0.000 HD
BRANCH  18  20
ATOM     20  C   UNL     1       2.607   6.640  18.557  0.00  0.00    +0.000 C 
BRANCH  20  21
ATOM     21  C   UNL     1       3.561   5.889  17.661  0.00  0.00    +0.000 A 
ATOM     22  C   UNL     1       3.509   4.487  17.593  0.00  0.00    +0.000 A 
ATOM     23  C   UNL     1       4.395   3.785  16.773  0.00  0.00    +0.000 A 
ATOM     24  C   UNL     1       5.341   4.482  16.032  0.00  0.00    +0.000 A 
ATOM     25  F   UNL     1       6.192   3.809  15.247  0.00  0.00    +0.000 F 
ATOM     26  C   UNL     1       5.419   5.869  16.095  0.00  0.00    +0.000 A 
ATOM     27  C   UNL     1       4.530   6.574  16.910  0.00  0.00    +0.000 A 
ENDBRANCH  20  21
ENDBRANCH  18  20
ENDBRANCH  15  17
ENDBRANCH   1  15
TORSDOF 4
ENDMDL
MODEL 9
REMARK VINA RESULT:      -7.5      7.005     10.276
REMARK  Name = 
REMARK  4 active torsions:
REMARK  status: ('A' for Active; 'I' for Inactive)
REMARK    1  A    between atoms: C_2  and  C_3
REMARK    2  A    between atoms: C_3  and  N_4
REMARK    3  A    between atoms: N_18  and  C_19
REMARK    4  A    between atoms: C_19  and  C_20
REMARK                            x       y       z     vdW  Elec       q    Type
REMARK                         _______ _______ _______ _____ _____    ______ ____
ROOT
ATOM      1  N   UNL     1       0.493  11.118  20.137  0.00  0.00    +0.000 N 
ATOM      2  C   UNL     1       1.260  12.237  19.626  0.00  0.00    +0.000 A 
ATOM      3  C   UNL     1       2.114  12.233  18.526  0.00  0.00    +0.000 A 
ATOM      4  C   UNL     1       2.815  13.421  18.246  0.00  0.00    +0.000 A 
ATOM      5  C   UNL     1       2.672  14.574  19.035  0.00  0.00    +0.000 A 
ATOM      6  C   UNL     1       1.797  14.576  20.130  0.00  0.00    +0.000 A 
ATOM      7  C   UNL     1       1.574  15.658  21.001  0.00  0.00    +0.000 A 
ATOM      8  C   UNL     1       0.671  15.538  22.076  0.00  0.00    +0.000 A 
ATOM      9  C   UNL     1      -0.038  14.350  22.310  0.00  0.00    +0.000 A 
ATOM     10  C   UNL     1       0.204  13.304  21.430  0.00  0.00    +0.000 A 
ATOM     11  C   UNL     1       1.103  13.410  20.382  0.00  0.00    +0.000 A 
ATOM     12  S   UNL     1      -0.449  11.671  21.425  0.00  0.00    +0.000 S 
ATOM     13  O   UNL     1      -1.812  11.939  21.042  0.00  0.00    +0.000 OA
ATOM     14  O   UNL     1      -0.015  11.237  22.726  0.00  0.00    +0.000 OA
ENDROOT
BRANCH   1  15
ATOM     15  C   UNL     1       0.267   9.819  19.532  0.00  0.00    +0.000 C 
BRANCH  15  17
ATOM     16  O   UNL     1       1.300   8.566  21.315  0.00  0.00    +0.000 OA
ATOM     17  C   UNL     1       1.206   8.762  20.107  0.00  0.00    +0.000 C 
ATOM     18  N   UNL     1       1.913   8.042  19.166  0.00  0.00    +0.000 N 
ATOM     19  H   UNL     1       1.754   8.194  18.177  0.00  0.00    +0.000 HD
BRANCH  18  20
ATOM     20  C   UNL     1       2.827   6.983  19.536  0.00  0.00    +0.000 C 
BRANCH  20  21
ATOM     21  C   UNL     1       2.196   5.633  19.302  0.00  0.00    +0.000 A 
ATOM     22  C   UNL     1       1.662   4.908  20.380  0.00  0.00    +0.000 A 
ATOM     23  C   UNL     1       1.086   3.653  20.173  0.00  0.00    +0.000 A 
ATOM     24  C   UNL     1       1.055   3.116  18.891  0.00  0.00    +0.000 A 
ATOM     25  F   UNL     1       0.504   1.912  18.693  0.00  0.00    +0.000 F 
ATOM     26  C   UNL     1       1.590   3.810  17.812  0.00  0.00    +0.000 A 
ATOM     27  C   UNL     1       2.162   5.068  18.016  0.00  0.00    +0.000 A 
ENDBRANCH  20  21
ENDBRANCH  18  20
ENDBRANCH  15  17
ENDBRANCH   1  15
TORSDOF 4
ENDMDL
