MODEL 1
REMARK VINA RESULT:      -8.1      0.000      0.000
REMARK  Name = 
REMARK  5 active torsions:
REMARK  status: ('A' for Active; 'I' for Inactive)
REMARK    1  A    between atoms: C_1  and  C_2
REMARK    2  A    between atoms: C_2  and  C_3
REMARK    3  A    between atoms: C_6  and  N_7
REMARK    4  A    between atoms: C_8  and  C_10
REMARK    5  A    between atoms: C_18  and  C_19
REMARK                            x       y       z     vdW  Elec       q    Type
REMARK                         _______ _______ _______ _____ _____    ______ ____
ROOT
ATOM      1  C   UNL     1       5.930   4.243  16.357  0.00  0.00    +0.000 C 
ATOM      2  C   UNL     1       4.828   4.220  17.428  0.00  0.00    +0.000 C 
ATOM      3  C   UNL     1       4.837   2.808  18.031  0.00  0.00    +0.000 C 
ATOM      4  O   UNL     1       5.146   5.185  18.435  0.00  0.00    +0.000 OA
ATOM      5  C   UNL     1       4.747   6.521  18.092  0.00  0.00    +0.000 C 
ATOM      6  C   UNL     1       3.229   6.631  17.823  0.00  0.00    +0.000 C 
ATOM      7  C   UNL     1       2.649   5.208  17.640  0.00  0.00    +0.000 C 
ATOM      8  O   UNL     1       3.547   4.430  16.828  0.00  0.00    +0.000 OA
ENDROOT
BRANCH   7   9
ATOM      9  C   UNL     1       2.176   4.494  18.915  0.00  0.00    +0.000 A 
ATOM     10  C   UNL     1       1.339   3.375  18.807  0.00  0.00    +0.000 A 
ATOM     11  C   UNL     1       0.884   2.708  19.952  0.00  0.00    +0.000 A 
ATOM     12  C   UNL     1       1.268   3.141  21.219  0.00  0.00    +0.000 A 
ATOM     13  C   UNL     1       2.101   4.243  21.349  0.00  0.00    +0.000 A 
ATOM     14  C   UNL     1       2.548   4.912  20.210  0.00  0.00    +0.000 A 
ENDBRANCH   7   9
BRANCH   6  15
ATOM     15  N   UNL     1       2.469   7.420  18.803  0.00  0.00    +0.000 N 
ATOM     16  C   UNL     1       1.897   8.638  18.522  0.00  0.00    +0.000 C 
ATOM     17  O   UNL     1       2.012   9.172  17.430  0.00  0.00    +0.000 OA
ATOM     18  H   UNL     1       2.214   6.965  19.673  0.00  0.00    +0.000 HD
BRANCH  16  19
ATOM     19  C   UNL     1       1.163   9.335  19.621  0.00  0.00    +0.000 A 
ATOM     20  C   UNL     1       0.636   8.495  20.625  0.00  0.00    +0.000 A 
ATOM     21  C   UNL     1      -0.042   9.026  21.725  0.00  0.00    +0.000 A 
ATOM     22  C   UNL     1      -0.201  10.402  21.834  0.00  0.00    +0.000 A 
ATOM     23 CL   UNL     1      -1.007  11.064  23.202  0.00  0.00    +0.000 Cl
ATOM     24  C   UNL     1       0.299  11.249  20.848  0.00  0.00    +0.000 A 
ATOM     25  C   UNL     1       0.982  10.720  19.743  0.00  0.00    +0.000 A 
ATOM     26 CL   UNL     1       1.598  11.875  18.610  0.00  0.00    +0.000 Cl
ENDBRANCH  16  19
ENDBRANCH   6  15
TORSDOF 3
ENDMDL
MODEL 2
REMARK VINA RESULT:      -7.9      0.743      1.216
REMARK  Name = 
REMARK  5 active torsions:
REMARK  status: ('A' for Active; 'I' for Inactive)
REMARK    1  A    between atoms: C_1  and  C_2
REMARK    2  A    between atoms: C_2  and  C_3
REMARK    3  A    between atoms: C_6  and  N_7
REMARK    4  A    between atoms: C_8  and  C_10
REMARK    5  A    between atoms: C_18  and  C_19
REMARK                            x       y       z     vdW  Elec       q    Type
REMARK                         _______ _______ _______ _____ _____    ______ ____
ROOT
ATOM      1  C   UNL     1       5.990   4.218  16.496  0.00  0.00    +0.000 C 
ATOM      2  C   UNL     1       4.849   4.154  17.523  0.00  0.00    +0.000 C 
ATOM      3  C   UNL     1       4.873   2.735  18.112  0.00  0.00    +0.000 C 
ATOM      4  O   UNL     1       5.101   5.116  18.550  0.00  0.00    +0.000 OA
ATOM      5  C   UNL     1       4.678   6.443  18.205  0.00  0.00    +0.000 C 
ATOM      6  C   UNL     1       3.168   6.515  17.878  0.00  0.00    +0.000 C 
ATOM      7  C   UNL     1       2.636   5.079  17.658  0.00  0.00    +0.000 C 
ATOM      8  O   UNL     1       3.586   4.335  16.875  0.00  0.00    +0.000 OA
ENDROOT
BRANCH   7   9
ATOM      9  C   UNL     1       2.134   4.338  18.908  0.00  0.00    +0.000 A 
ATOM     10  C   UNL     1       2.483   4.817  20.177  0.00  0.00    +0.000 A 
ATOM     11  C   UNL     1       2.050   4.158  21.335  0.00  0.00    +0.000 A 
ATOM     12  C   UNL     1       1.251   3.021  21.241  0.00  0.00    +0.000 A 
ATOM     13  C   UNL     1       0.887   2.533  19.993  0.00  0.00    +0.000 A 
ATOM     14  C   UNL     1       1.326   3.184  18.841  0.00  0.00    +0.000 A 
ENDBRANCH   7   9
BRANCH   6  15
ATOM     15  N   UNL     1       2.349   7.272  18.834  0.00  0.00    +0.000 N 
ATOM     16  C   UNL     1       1.836   8.521  18.577  0.00  0.00    +0.000 C 
ATOM     17  O   UNL     1       2.058   9.111  17.532  0.00  0.00    +0.000 OA
ATOM     18  H   UNL     1       2.010   6.778  19.653  0.00  0.00    +0.000 HD
BRANCH  16  19
ATOM     19  C   UNL     1       1.030   9.180  19.650  0.00  0.00    +0.000 A 
ATOM     20  C   UNL     1       1.471   8.943  20.970  0.00  0.00    +0.000 A 
ATOM     21  C   UNL     1       0.824   9.528  22.060  0.00  0.00    +0.000 A 
ATOM     22  C   UNL     1      -0.269  10.359  21.845  0.00  0.00    +0.000 A 
ATOM     23 CL   UNL     1      -1.051  11.109  23.181  0.00  0.00    +0.000 Cl
ATOM     24  C   UNL     1      -0.729  10.596  20.552  0.00  0.00    +0.000 A 
ATOM     25  C   UNL     1      -0.082  10.011  19.454  0.00  0.00    +0.000 A 
ATOM     26 CL   UNL     1      -0.715  10.419  17.895  0.00  0.00    +0.000 Cl
ENDBRANCH  16  19
ENDBRANCH   6  15
TORSDOF 3
ENDMDL
MODEL 3
REMARK VINA RESULT:      -7.5      1.033      1.493
REMARK  Name = 
REMARK  5 active torsions:
REMARK  status: ('A' for Active; 'I' for Inactive)
REMARK    1  A    between atoms: C_1  and  C_2
REMARK    2  A    between atoms: C_2  and  C_3
REMARK    3  A    between atoms: C_6  and  N_7
REMARK    4  A    between atoms: C_8  and  C_10
REMARK    5  A    between atoms: C_18  and  C_19
REMARK                            x       y       z     vdW  Elec       q    Type
REMARK                         _______ _______ _______ _____ _____    ______ ____
ROOT
ATOM      1  C   UNL     1       5.776   4.205  16.286  0.00  0.00    +0.000 C 
ATOM      2  C   UNL     1       4.734   4.210  17.416  0.00  0.00    +0.000 C 
ATOM      3  C   UNL     1       4.773   2.811  18.048  0.00  0.00    +0.000 C 
ATOM      4  O   UNL     1       5.108   5.196  18.381  0.00  0.00    +0.000 OA
ATOM      5  C   UNL     1       4.694   6.524  18.030  0.00  0.00    +0.000 C 
ATOM      6  C   UNL     1       3.163   6.634  17.842  0.00  0.00    +0.000 C 
ATOM      7  C   UNL     1       2.571   5.208  17.722  0.00  0.00    +0.000 C 
ATOM      8  O   UNL     1       3.422   4.410  16.881  0.00  0.00    +0.000 OA
ENDROOT
BRANCH   7   9
ATOM      9  C   UNL     1       2.167   4.524  19.038  0.00  0.00    +0.000 A 
ATOM     10  C   UNL     1       1.100   3.616  19.041  0.00  0.00    +0.000 A 
ATOM     11  C   UNL     1       0.701   2.984  20.226  0.00  0.00    +0.000 A 
ATOM     12  C   UNL     1       1.371   3.239  21.420  0.00  0.00    +0.000 A 
ATOM     13  C   UNL     1       2.436   4.130  21.439  0.00  0.00    +0.000 A 
ATOM     14  C   UNL     1       2.827   4.766  20.260  0.00  0.00    +0.000 A 
ENDBRANCH   7   9
BRANCH   6  15
ATOM     15  N   UNL     1       2.458   7.446  18.843  0.00  0.00    +0.000 N 
ATOM     16  C   UNL     1       1.873   8.658  18.566  0.00  0.00    +0.000 C 
ATOM     17  O   UNL     1       1.928   9.167  17.458  0.00  0.00    +0.000 OA
ATOM     18  H   UNL     1       2.252   7.012  19.737  0.00  0.00    +0.000 HD
BRANCH  16  19
ATOM     19  C   UNL     1       1.201   9.382  19.687  0.00  0.00    +0.000 A 
ATOM     20  C   UNL     1       1.035  10.772  19.497  0.00  0.00    +0.000 A 
ATOM     21  C   UNL     1       0.392  11.557  20.457  0.00  0.00    +0.000 A 
ATOM     22  C   UNL     1      -0.094  10.964  21.615  0.00  0.00    +0.000 A 
ATOM     23 CL   UNL     1      -0.916  11.920  22.785  0.00  0.00    +0.000 Cl
ATOM     24  C   UNL     1       0.069   9.598  21.829  0.00  0.00    +0.000 A 
ATOM     25  C   UNL     1       0.713   8.805  20.868  0.00  0.00    +0.000 A 
ATOM     26 CL   UNL     1       0.814   7.114  21.225  0.00  0.00    +0.000 Cl
ENDBRANCH  16  19
ENDBRANCH   6  15
TORSDOF 3
ENDMDL
MODEL 4
REMARK VINA RESULT:      -7.1      1.126      1.720
REMARK  Name = 
REMARK  5 active torsions:
REMARK  status: ('A' for Active; 'I' for Inactive)
REMARK    1  A    between atoms: C_1  and  C_2
REMARK    2  A    between atoms: C_2  and  C_3
REMARK    3  A    between atoms: C_6  and  N_7
REMARK    4  A    between atoms: C_8  and  C_10
REMARK    5  A    between atoms: C_18  and  C_19
REMARK                            x       y       z     vdW  Elec       q    Type
REMARK                         _______ _______ _______ _____ _____    ______ ____
ROOT
ATOM      1  C   UNL     1       6.061   4.397  16.581  0.00  0.00    +0.000 C 
ATOM      2  C   UNL     1       4.886   4.374  17.572  0.00  0.00    +0.000 C 
ATOM      3  C   UNL     1       4.908   2.992  18.240  0.00  0.00    +0.000 C 
ATOM      4  O   UNL     1       5.092   5.396  18.551  0.00  0.00    +0.000 OA
ATOM      5  C   UNL     1       4.665   6.696  18.117  0.00  0.00    +0.000 C 
ATOM      6  C   UNL     1       3.167   6.729  17.737  0.00  0.00    +0.000 C 
ATOM      7  C   UNL     1       2.659   5.275  17.581  0.00  0.00    +0.000 C 
ATOM      8  O   UNL     1       3.644   4.501  16.873  0.00  0.00    +0.000 OA
ENDROOT
BRANCH   7   9
ATOM      9  C   UNL     1       2.124   4.598  18.853  0.00  0.00    +0.000 A 
ATOM     10  C   UNL     1       2.543   5.063  20.107  0.00  0.00    +0.000 A 
ATOM     11  C   UNL     1       2.082   4.460  21.284  0.00  0.00    +0.000 A 
ATOM     12  C   UNL     1       1.185   3.396  21.226  0.00  0.00    +0.000 A 
ATOM     13  C   UNL     1       0.752   2.924  19.995  0.00  0.00    +0.000 A 
ATOM     14  C   UNL     1       1.218   3.518  18.823  0.00  0.00    +0.000 A 
ENDBRANCH   7   9
BRANCH   6  15
ATOM     15  N   UNL     1       2.306   7.526  18.622  0.00  0.00    +0.000 N 
ATOM     16  C   UNL     1       1.867   8.793  18.318  0.00  0.00    +0.000 C 
ATOM     17  O   UNL     1       2.195   9.365  17.291  0.00  0.00    +0.000 OA
ATOM     18  H   UNL     1       1.883   7.053  19.413  0.00  0.00    +0.000 HD
BRANCH  16  19
ATOM     19  C   UNL     1       1.007   9.493  19.320  0.00  0.00    +0.000 A 
ATOM     20  C   UNL     1       0.165  10.498  18.798  0.00  0.00    +0.000 A 
ATOM     21  C   UNL     1      -0.712  11.203  19.625  0.00  0.00    +0.000 A 
ATOM     22  C   UNL     1      -0.759  10.912  20.983  0.00  0.00    +0.000 A 
ATOM     23 CL   UNL     1      -1.860  11.754  22.002  0.00  0.00    +0.000 Cl
ATOM     24  C   UNL     1       0.072   9.933  21.522  0.00  0.00    +0.000 A 
ATOM     25  C   UNL     1       0.954   9.222  20.695  0.00  0.00    +0.000 A 
ATOM     26 CL   UNL     1       1.901   7.999  21.472  0.00  0.00    +0.000 Cl
ENDBRANCH  16  19
ENDBRANCH   6  15
TORSDOF 3
ENDMDL
MODEL 5
REMARK VINA RESULT:      -6.9      2.047      3.802
REMARK  Name = 
REMARK  5 active torsions:
REMARK  status: ('A' for Active; 'I' for Inactive)
REMARK    1  A    between atoms: C_1  and  C_2
REMARK    2  A    between atoms: C_2  and  C_3
REMARK    3  A    between atoms: C_6  and  N_7
REMARK    4  A    between atoms: C_8  and  C_10
REMARK    5  A    between atoms: C_18  and  C_19
REMARK                            x       y       z     vdW  Elec       q    Type
REMARK                         _______ _______ _______ _____ _____    ______ ____
ROOT
ATOM      1  C   UNL     1       2.176   1.734  19.422  0.00  0.00    +0.000 C 
ATOM      2  C   UNL     1       2.900   3.003  18.946  0.00  0.00    +0.000 C 
ATOM      3  C   UNL     1       3.917   2.552  17.888  0.00  0.00    +0.000 C 
ATOM      4  O   UNL     1       1.941   3.887  18.360  0.00  0.00    +0.000 OA
ATOM      5  C   UNL     1       1.235   4.684  19.323  0.00  0.00    +0.000 C 
ATOM      6  C   UNL     1       2.186   5.552  20.179  0.00  0.00    +0.000 C 
ATOM      7  C   UNL     1       3.633   5.033  20.001  0.00  0.00    +0.000 C 
ATOM      8  O   UNL     1       3.629   3.595  20.026  0.00  0.00    +0.000 OA
ENDROOT
BRANCH   7   9
ATOM      9  C   UNL     1       4.438   5.639  18.840  0.00  0.00    +0.000 A 
ATOM     10  C   UNL     1       5.836   5.546  18.850  0.00  0.00    +0.000 A 
ATOM     11  C   UNL     1       6.597   6.097  17.811  0.00  0.00    +0.000 A 
ATOM     12  C   UNL     1       5.973   6.735  16.742  0.00  0.00    +0.000 A 
ATOM     13  C   UNL     1       4.589   6.833  16.709  0.00  0.00    +0.000 A 
ATOM     14  C   UNL     1       3.831   6.292  17.747  0.00  0.00    +0.000 A 
ENDBRANCH   7   9
BRANCH   6  15
ATOM     15  N   UNL     1       2.085   7.002  19.965  0.00  0.00    +0.000 N 
ATOM     16  C   UNL     1       1.155   7.801  20.587  0.00  0.00    +0.000 C 
ATOM     17  O   UNL     1       0.315   7.348  21.347  0.00  0.00    +0.000 OA
ATOM     18  H   UNL     1       2.842   7.455  19.464  0.00  0.00    +0.000 HD
BRANCH  16  19
ATOM     19  C   UNL     1       1.159   9.260  20.262  0.00  0.00    +0.000 A 
ATOM     20  C   UNL     1       0.992  10.126  21.364  0.00  0.00    +0.000 A 
ATOM     21  C   UNL     1       1.011  11.513  21.199  0.00  0.00    +0.000 A 
ATOM     22  C   UNL     1       1.199  12.050  19.932  0.00  0.00    +0.000 A 
ATOM     23 CL   UNL     1       1.256  13.757  19.726  0.00  0.00    +0.000 Cl
ATOM     24  C   UNL     1       1.352  11.215  18.828  0.00  0.00    +0.000 A 
ATOM     25  C   UNL     1       1.335   9.822  18.990  0.00  0.00    +0.000 A 
ATOM     26 CL   UNL     1       1.584   8.889  17.552  0.00  0.00    +0.000 Cl
ENDBRANCH  16  19
ENDBRANCH   6  15
TORSDOF 3
ENDMDL
MODEL 6
REMARK VINA RESULT:      -6.8      1.775      3.936
REMARK  Name = 
REMARK  5 active torsions:
REMARK  status: ('A' for Active; 'I' for Inactive)
REMARK    1  A    between atoms: C_1  and  C_2
REMARK    2  A    between atoms: C_2  and  C_3
REMARK    3  A    between atoms: C_6  and  N_7
REMARK    4  A    between atoms: C_8  and  C_10
REMARK    5  A    between atoms: C_18  and  C_19
REMARK                            x       y       z     vdW  Elec       q    Type
REMARK                         _______ _______ _______ _____ _____    ______ ____
ROOT
ATOM      1  C   UNL     1       2.845   1.531  18.531  0.00  0.00    +0.000 C 
ATOM      2  C   UNL     1       3.543   2.880  18.300  0.00  0.00    +0.000 C 
ATOM      3  C   UNL     1       4.805   2.582  17.478  0.00  0.00    +0.000 C 
ATOM      4  O   UNL     1       2.665   3.731  17.559  0.00  0.00    +0.000 OA
ATOM      5  C   UNL     1       1.696   4.403  18.378  0.00  0.00    +0.000 C 
ATOM      6  C   UNL     1       2.353   5.275  19.473  0.00  0.00    +0.000 C 
ATOM      7  C   UNL     1       3.844   4.878  19.601  0.00  0.00    +0.000 C 
ATOM      8  O   UNL     1       3.959   3.445  19.547  0.00  0.00    +0.000 OA
ENDROOT
BRANCH   7   9
ATOM      9  C   UNL     1       4.829   5.622  18.686  0.00  0.00    +0.000 A 
ATOM     10  C   UNL     1       6.202   5.558  18.959  0.00  0.00    +0.000 A 
ATOM     11  C   UNL     1       7.125   6.234  18.150  0.00  0.00    +0.000 A 
ATOM     12  C   UNL     1       6.691   6.971  17.051  0.00  0.00    +0.000 A 
ATOM     13  C   UNL     1       5.336   7.043  16.759  0.00  0.00    +0.000 A 
ATOM     14  C   UNL     1       4.416   6.377  17.569  0.00  0.00    +0.000 A 
ENDBRANCH   7   9
BRANCH   6  15
ATOM     15  N   UNL     1       2.176   6.725  19.319  0.00  0.00    +0.000 N 
ATOM     16  C   UNL     1       1.548   7.520  20.249  0.00  0.00    +0.000 C 
ATOM     17  O   UNL     1       1.058   7.062  21.269  0.00  0.00    +0.000 OA
ATOM     18  H   UNL     1       2.687   7.182  18.571  0.00  0.00    +0.000 HD
BRANCH  16  19
ATOM     19  C   UNL     1       1.427   8.979  19.953  0.00  0.00    +0.000 A 
ATOM     20  C   UNL     1       1.769   9.361  18.637  0.00  0.00    +0.000 A 
ATOM     21  C   UNL     1       1.666  10.691  18.225  0.00  0.00    +0.000 A 
ATOM     22  C   UNL     1       1.219  11.655  19.120  0.00  0.00    +0.000 A 
ATOM     23 CL   UNL     1       1.058  13.289  18.608  0.00  0.00    +0.000 Cl
ATOM     24  C   UNL     1       0.888  11.304  20.426  0.00  0.00    +0.000 A 
ATOM     25  C   UNL     1       0.989   9.969  20.845  0.00  0.00    +0.000 A 
ATOM     26 CL   UNL     1       0.505   9.648  22.476  0.00  0.00    +0.000 Cl
ENDBRANCH  16  19
ENDBRANCH   6  15
TORSDOF 3
ENDMDL
MODEL 7
REMARK VINA RESULT:      -6.7      1.775      3.868
REMARK  Name = 
REMARK  5 active torsions:
REMARK  status: ('A' for Active; 'I' for Inactive)
REMARK    1  A    between atoms: C_1  and  C_2
REMARK    2  A    between atoms: C_2  and  C_3
REMARK    3  A    between atoms: C_6  and  N_7
REMARK    4  A    between atoms: C_8  and  C_10
REMARK    5  A    between atoms: C_18  and  C_19
REMARK                            x       y       z     vdW  Elec       q    Type
REMARK                         _______ _______ _______ _____ _____    ______ ____
ROOT
ATOM      1  C   UNL     1       2.408   1.602  19.207  0.00  0.00    +0.000 C 
ATOM      2  C   UNL     1       3.108   2.902  18.780  0.00  0.00    +0.000 C 
ATOM      3  C   UNL     1       4.198   2.498  17.776  0.00  0.00    +0.000 C 
ATOM      4  O   UNL     1       2.150   3.754  18.148  0.00  0.00    +0.000 OA
ATOM      5  C   UNL     1       1.363   4.516  19.076  0.00  0.00    +0.000 C 
ATOM      6  C   UNL     1       2.233   5.411  19.990  0.00  0.00    +0.000 C 
ATOM      7  C   UNL     1       3.706   4.948  19.887  0.00  0.00    +0.000 C 
ATOM      8  O   UNL     1       3.754   3.510  19.902  0.00  0.00    +0.000 OA
ENDROOT
BRANCH   7   9
ATOM      9  C   UNL     1       4.549   5.594  18.776  0.00  0.00    +0.000 A 
ATOM     10  C   UNL     1       3.906   6.273  17.732  0.00  0.00    +0.000 A 
ATOM     11  C   UNL     1       4.647   6.863  16.699  0.00  0.00    +0.000 A 
ATOM     12  C   UNL     1       6.038   6.795  16.702  0.00  0.00    +0.000 A 
ATOM     13  C   UNL     1       6.695   6.132  17.730  0.00  0.00    +0.000 A 
ATOM     14  C   UNL     1       5.958   5.537  18.753  0.00  0.00    +0.000 A 
ENDBRANCH   7   9
BRANCH   6  15
ATOM     15  N   UNL     1       2.089   6.858  19.779  0.00  0.00    +0.000 N 
ATOM     16  C   UNL     1       1.271   7.661  20.538  0.00  0.00    +0.000 C 
ATOM     17  O   UNL     1       0.571   7.213  21.433  0.00  0.00    +0.000 OA
ATOM     18  H   UNL     1       2.750   7.308  19.155  0.00  0.00    +0.000 HD
BRANCH  16  19
ATOM     19  C   UNL     1       1.212   9.116  20.202  0.00  0.00    +0.000 A 
ATOM     20  C   UNL     1       1.592   9.448  18.884  0.00  0.00    +0.000 A 
ATOM     21  C   UNL     1       1.549  10.770  18.435  0.00  0.00    +0.000 A 
ATOM     22  C   UNL     1       1.124  11.774  19.296  0.00  0.00    +0.000 A 
ATOM     23 CL   UNL     1       1.038  13.399  18.739  0.00  0.00    +0.000 Cl
ATOM     24  C   UNL     1       0.757  11.471  20.604  0.00  0.00    +0.000 A 
ATOM     25  C   UNL     1       0.798  10.145  21.060  0.00  0.00    +0.000 A 
ATOM     26 CL   UNL     1       0.273   9.887  22.689  0.00  0.00    +0.000 Cl
ENDBRANCH  16  19
ENDBRANCH   6  15
TORSDOF 3
ENDMDL
MODEL 8
REMARK VINA RESULT:      -6.6      9.257     11.119
REMARK  Name = 
REMARK  5 active torsions:
REMARK  status: ('A' for Active; 'I' for Inactive)
REMARK    1  A    between atoms: C_1  and  C_2
REMARK    2  A    between atoms: C_2  and  C_3
REMARK    3  A    between atoms: C_6  and  N_7
REMARK    4  A    between atoms: C_8  and  C_10
REMARK    5  A    between atoms: C_18  and  C_19
REMARK                            x       y       z     vdW  Elec       q    Type
REMARK                         _______ _______ _______ _____ _____    ______ ____
ROOT
ATOM      1  C   UNL     1      10.487  18.121  17.220  0.00  0.00    +0.000 C 
ATOM      2  C   UNL     1      10.624  16.691  17.765  0.00  0.00    +0.000 C 
ATOM      3  C   UNL     1      11.842  16.073  17.062  0.00  0.00    +0.000 C 
ATOM      4  O   UNL     1      10.853  16.756  19.175  0.00  0.00    +0.000 OA
ATOM      5  C   UNL     1       9.648  16.903  19.942  0.00  0.00    +0.000 C 
ATOM      6  C   UNL     1       8.649  15.748  19.698  0.00  0.00    +0.000 C 
ATOM      7  C   UNL     1       9.080  14.974  18.429  0.00  0.00    +0.000 C 
ATOM      8  O   UNL     1       9.477  15.912  17.413  0.00  0.00    +0.000 OA
ENDROOT
BRANCH   7   9
ATOM      9  C   UNL     1      10.071  13.818  18.637  0.00  0.00    +0.000 A 
ATOM     10  C   UNL     1      10.085  12.753  17.726  0.00  0.00    +0.000 A 
ATOM     11  C   UNL     1      10.969  11.679  17.895  0.00  0.00    +0.000 A 
ATOM     12  C   UNL     1      11.860  11.661  18.966  0.00  0.00    +0.000 A 
ATOM     13  C   UNL     1      11.867  12.709  19.876  0.00  0.00    +0.000 A 
ATOM     14  C   UNL     1      10.981  13.774  19.713  0.00  0.00    +0.000 A 
ENDBRANCH   7   9
BRANCH   6  15
ATOM     15  N   UNL     1       8.422  14.855  20.843  0.00  0.00    +0.000 N 
ATOM     16  C   UNL     1       7.175  14.538  21.326  0.00  0.00    +0.000 C 
ATOM     17  O   UNL     1       6.155  15.011  20.851  0.00  0.00    +0.000 OA
ATOM     18  H   UNL     1       9.214  14.319  21.182  0.00  0.00    +0.000 HD
BRANCH  16  19
ATOM     19  C   UNL     1       7.095  13.627  22.508  0.00  0.00    +0.000 A 
ATOM     20  C   UNL     1       6.251  14.062  23.552  0.00  0.00    +0.000 A 
ATOM     21  C   UNL     1       6.063  13.284  24.697  0.00  0.00    +0.000 A 
ATOM     22  C   UNL     1       6.715  12.063  24.812  0.00  0.00    +0.000 A 
ATOM     23 CL   UNL     1       6.463  11.086  26.205  0.00  0.00    +0.000 Cl
ATOM     24  C   UNL     1       7.563  11.620  23.800  0.00  0.00    +0.000 A 
ATOM     25  C   UNL     1       7.753  12.396  22.647  0.00  0.00    +0.000 A 
ATOM     26 CL   UNL     1       8.791  11.718  21.440  0.00  0.00    +0.000 Cl
ENDBRANCH  16  19
ENDBRANCH   6  15
TORSDOF 3
ENDMDL
MODEL 9
REMARK VINA RESULT:      -6.6      1.793      3.939
REMARK  Name = 
REMARK  5 active torsions:
REMARK  status: ('A' for Active; 'I' for Inactive)
REMARK    1  A    between atoms: C_1  and  C_2
REMARK    2  A    between atoms: C_2  and  C_3
REMARK    3  A    between atoms: C_6  and  N_7
REMARK    4  A    between atoms: C_8  and  C_10
REMARK    5  A    between atoms: C_18  and  C_19
REMARK                            x       y       z     vdW  Elec       q    Type
REMARK                         _______ _______ _______ _____ _____    ______ ____
ROOT
ATOM      1  C   UNL     1       1.909   1.859  19.962  0.00  0.00    +0.000 C 
ATOM      2  C   UNL     1       2.564   3.088  19.312  0.00  0.00    +0.000 C 
ATOM      3  C   UNL     1       3.382   2.566  18.122  0.00  0.00    +0.000 C 
ATOM      4  O   UNL     1       1.535   3.968  18.852  0.00  0.00    +0.000 OA
ATOM      5  C   UNL     1       1.014   4.823  19.881  0.00  0.00    +0.000 C 
ATOM      6  C   UNL     1       2.108   5.705  20.525  0.00  0.00    +0.000 C 
ATOM      7  C   UNL     1       3.497   5.144  20.132  0.00  0.00    +0.000 C 
ATOM      8  O   UNL     1       3.473   3.709  20.226  0.00  0.00    +0.000 OA
ENDROOT
BRANCH   7   9
ATOM      9  C   UNL     1       4.105   5.678  18.826  0.00  0.00    +0.000 A 
ATOM     10  C   UNL     1       5.407   5.304  18.470  0.00  0.00    +0.000 A 
ATOM     11  C   UNL     1       5.993   5.783  17.291  0.00  0.00    +0.000 A 
ATOM     12  C   UNL     1       5.281   6.629  16.444  0.00  0.00    +0.000 A 
ATOM     13  C   UNL     1       3.987   7.008  16.774  0.00  0.00    +0.000 A 
ATOM     14  C   UNL     1       3.407   6.538  17.953  0.00  0.00    +0.000 A 
ENDBRANCH   7   9
BRANCH   6  15
ATOM     15  N   UNL     1       1.996   7.146  20.261  0.00  0.00    +0.000 N 
ATOM     16  C   UNL     1       0.995   7.938  20.771  0.00  0.00    +0.000 C 
ATOM     17  O   UNL     1       0.096   7.484  21.461  0.00  0.00    +0.000 OA
ATOM     18  H   UNL     1       2.787   7.604  19.821  0.00  0.00    +0.000 HD
BRANCH  16  19
ATOM     19  C   UNL     1       0.997   9.388  20.408  0.00  0.00    +0.000 A 
ATOM     20  C   UNL     1       1.496   9.689  19.122  0.00  0.00    +0.000 A 
ATOM     21  C   UNL     1       1.521  11.003  18.649  0.00  0.00    +0.000 A 
ATOM     22  C   UNL     1       1.046  12.031  19.455  0.00  0.00    +0.000 A 
ATOM     23 CL   UNL     1       1.044  13.647  18.867  0.00  0.00    +0.000 Cl
ATOM     24  C   UNL     1       0.562  11.759  20.732  0.00  0.00    +0.000 A 
ATOM     25  C   UNL     1       0.534  10.440  21.210  0.00  0.00    +0.000 A 
ATOM     26 CL   UNL     1      -0.134  10.222  22.792  0.00  0.00    +0.000 Cl
ENDBRANCH  16  19
ENDBRANCH   6  15
TORSDOF 3
ENDMDL
