MODEL 1
REMARK VINA RESULT:      -8.6      0.000      0.000
REMARK  Name = 
REMARK  6 active torsions:
REMARK  status: ('A' for Active; 'I' for Inactive)
REMARK    1  A    between atoms: O_1  and  C_2
REMARK    2  A    between atoms: C_2  and  C_3
REMARK    3  A    between atoms: C_2  and  C_9
REMARK    4  A    between atoms: C_2  and  C_24
REMARK    5  A    between atoms: C_3  and  N_4
REMARK    6  A    between atoms: C_9  and  N_10
REMARK                            x       y       z     vdW  Elec       q    Type
REMARK                         _______ _______ _______ _____ _____    ______ ____
ROOT
ATOM      1  C   UNL     1       5.522   4.931  17.622  0.00  0.00    +0.000 C 
ENDROOT
BRANCH   1   2
ATOM      2  C   UNL     1       6.322   6.233  17.832  0.00  0.00    +0.000 A 
ATOM      3  C   UNL     1       5.906   7.443  17.233  0.00  0.00    +0.000 A 
ATOM      4  C   UNL     1       6.711   8.587  17.266  0.00  0.00    +0.000 A 
ATOM      5  C   UNL     1       7.943   8.539  17.903  0.00  0.00    +0.000 A 
ATOM      6  F   UNL     1       8.746   9.611  17.872  0.00  0.00    +0.000 F 
ATOM      7  C   UNL     1       8.357   7.390  18.556  0.00  0.00    +0.000 A 
ATOM      8  C   UNL     1       7.544   6.260  18.526  0.00  0.00    +0.000 A 
ATOM      9  F   UNL     1       7.987   5.166  19.160  0.00  0.00    +0.000 F 
ENDBRANCH   1   2
BRANCH   1  10
ATOM     10  O   UNL     1       5.405   4.345  18.953  0.00  0.00    +0.000 OA
ATOM     11  H   UNL     1       4.869   4.974  19.487  0.00  0.00    +0.000 HD
ENDBRANCH   1  10
BRANCH   1  12
ATOM     12  C   UNL     1       6.285   3.878  16.766  0.00  0.00    +0.000 C 
BRANCH  12  13
ATOM     13  N   UNL     1       6.503   4.249  15.375  0.00  0.00    +0.000 N 
ATOM     14  C   UNL     1       5.893   3.728  14.277  0.00  0.00    +0.000 A 
ATOM     15  N   UNL     1       6.494   4.162  13.194  0.00  0.00    +0.000 NA
ATOM     16  C   UNL     1       7.459   4.992  13.683  0.00  0.00    +0.000 A 
ATOM     17  N   UNL     1       7.471   5.121  15.013  0.00  0.00    +0.000 NA
ENDBRANCH  12  13
ENDBRANCH   1  12
BRANCH   1  18
ATOM     18  C   UNL     1       4.048   5.253  17.137  0.00  0.00    +0.000 C 
BRANCH  18  19
ATOM     19  N   UNL     1       3.011   5.414  18.145  0.00  0.00    +0.000 N 
ATOM     20  C   UNL     1       2.558   4.381  18.942  0.00  0.00    +0.000 A 
ATOM     21  C   UNL     1       2.551   3.002  18.757  0.00  0.00    +0.000 A 
ATOM     22  C   UNL     1       2.837   2.236  19.882  0.00  0.00    +0.000 A 
ATOM     23  C   UNL     1       2.668   2.777  21.147  0.00  0.00    +0.000 A 
ATOM     24  C   UNL     1       2.233   4.096  21.295  0.00  0.00    +0.000 A 
ATOM     25  C   UNL     1       2.256   4.956  20.168  0.00  0.00    +0.000 A 
ATOM     26  C   UNL     1       2.003   6.330  19.891  0.00  0.00    +0.000 A 
ATOM     27  C   UNL     1       1.425   7.381  20.653  0.00  0.00    +0.000 A 
ATOM     28  C   UNL     1       1.421   8.682  20.119  0.00  0.00    +0.000 A 
ATOM     29  C   UNL     1       1.943   8.931  18.862  0.00  0.00    +0.000 A 
ATOM     30 BR   UNL     1       2.034  10.707  18.216  0.00  0.00    +0.000 Br
ATOM     31  C   UNL     1       2.472   7.894  18.073  0.00  0.00    +0.000 A 
ATOM     32  C   UNL     1       2.476   6.611  18.612  0.00  0.00    +0.000 A 
ENDBRANCH  18  19
ENDBRANCH   1  18
TORSDOF 6
ENDMDL
MODEL 2
REMARK VINA RESULT:      -7.9      0.924      1.257
REMARK  Name = 
REMARK  6 active torsions:
REMARK  status: ('A' for Active; 'I' for Inactive)
REMARK    1  A    between atoms: O_1  and  C_2
REMARK    2  A    between atoms: C_2  and  C_3
REMARK    3  A    between atoms: C_2  and  C_9
REMARK    4  A    between atoms: C_2  and  C_24
REMARK    5  A    between atoms: C_3  and  N_4
REMARK    6  A    between atoms: C_9  and  N_10
REMARK                            x       y       z     vdW  Elec       q    Type
REMARK                         _______ _______ _______ _____ _____    ______ ____
ROOT
ATOM      1  C   UNL     1       5.284   4.645  17.436  0.00  0.00    +0.000 C 
ENDROOT
BRANCH   1   2
ATOM      2  C   UNL     1       6.311   5.779  17.635  0.00  0.00    +0.000 A 
ATOM      3  C   UNL     1       7.361   5.648  18.571  0.00  0.00    +0.000 A 
ATOM      4  C   UNL     1       8.191   6.728  18.891  0.00  0.00    +0.000 A 
ATOM      5  C   UNL     1       7.985   7.955  18.276  0.00  0.00    +0.000 A 
ATOM      6  F   UNL     1       8.732   9.007  18.635  0.00  0.00    +0.000 F 
ATOM      7  C   UNL     1       7.007   8.104  17.308  0.00  0.00    +0.000 A 
ATOM      8  C   UNL     1       6.193   7.020  16.989  0.00  0.00    +0.000 A 
ATOM      9  F   UNL     1       5.252   7.211  16.055  0.00  0.00    +0.000 F 
ENDBRANCH   1   2
BRANCH   1  10
ATOM     10  O   UNL     1       5.144   4.031  18.751  0.00  0.00    +0.000 OA
ATOM     11  H   UNL     1       6.023   3.650  18.975  0.00  0.00    +0.000 HD
ENDBRANCH   1  10
BRANCH   1  12
ATOM     12  C   UNL     1       5.799   3.515  16.498  0.00  0.00    +0.000 C 
BRANCH  12  13
ATOM     13  N   UNL     1       6.191   3.945  15.163  0.00  0.00    +0.000 N 
ATOM     14  C   UNL     1       5.585   3.636  13.985  0.00  0.00    +0.000 A 
ATOM     15  N   UNL     1       6.340   4.033  12.987  0.00  0.00    +0.000 NA
ATOM     16  C   UNL     1       7.398   4.626  13.611  0.00  0.00    +0.000 A 
ATOM     17  N   UNL     1       7.327   4.645  14.945  0.00  0.00    +0.000 NA
ENDBRANCH  12  13
ENDBRANCH   1  12
BRANCH   1  18
ATOM     18  C   UNL     1       3.863   5.238  17.059  0.00  0.00    +0.000 C 
BRANCH  18  19
ATOM     19  N   UNL     1       2.882   5.404  18.121  0.00  0.00    +0.000 N 
ATOM     20  C   UNL     1       2.446   4.368  18.922  0.00  0.00    +0.000 A 
ATOM     21  C   UNL     1       2.396   2.993  18.714  0.00  0.00    +0.000 A 
ATOM     22  C   UNL     1       2.721   2.200  19.811  0.00  0.00    +0.000 A 
ATOM     23  C   UNL     1       2.629   2.722  21.091  0.00  0.00    +0.000 A 
ATOM     24  C   UNL     1       2.232   4.048  21.283  0.00  0.00    +0.000 A 
ATOM     25  C   UNL     1       2.219   4.927  20.171  0.00  0.00    +0.000 A 
ATOM     26  C   UNL     1       1.985   6.311  19.931  0.00  0.00    +0.000 A 
ATOM     27  C   UNL     1       1.471   7.361  20.739  0.00  0.00    +0.000 A 
ATOM     28  C   UNL     1       1.471   8.671  20.227  0.00  0.00    +0.000 A 
ATOM     29  C   UNL     1       1.935   8.931  18.949  0.00  0.00    +0.000 A 
ATOM     30 BR   UNL     1       2.035  10.716  18.330  0.00  0.00    +0.000 Br
ATOM     31  C   UNL     1       2.398   7.896  18.117  0.00  0.00    +0.000 A 
ATOM     32  C   UNL     1       2.400   6.605  18.634  0.00  0.00    +0.000 A 
ENDBRANCH  18  19
ENDBRANCH   1  18
TORSDOF 6
ENDMDL
MODEL 3
REMARK VINA RESULT:      -7.7      6.031      8.991
REMARK  Name = 
REMARK  6 active torsions:
REMARK  status: ('A' for Active; 'I' for Inactive)
REMARK    1  A    between atoms: O_1  and  C_2
REMARK    2  A    between atoms: C_2  and  C_3
REMARK    3  A    between atoms: C_2  and  C_9
REMARK    4  A    between atoms: C_2  and  C_24
REMARK    5  A    between atoms: C_3  and  N_4
REMARK    6  A    between atoms: C_9  and  N_10
REMARK                            x       y       z     vdW  Elec       q    Type
REMARK                         _______ _______ _______ _____ _____    ______ ____
ROOT
ATOM      1  C   UNL     1       0.531  10.706  19.417  0.00  0.00    +0.000 C 
ENDROOT
BRANCH   1   2
ATOM      2  C   UNL     1       1.411   9.461  19.180  0.00  0.00    +0.000 A 
ATOM      3  C   UNL     1       2.072   9.265  17.947  0.00  0.00    +0.000 A 
ATOM      4  C   UNL     1       2.726   8.063  17.653  0.00  0.00    +0.000 A 
ATOM      5  C   UNL     1       2.733   7.041  18.591  0.00  0.00    +0.000 A 
ATOM      6  F   UNL     1       3.296   5.865  18.283  0.00  0.00    +0.000 F 
ATOM      7  C   UNL     1       2.152   7.219  19.835  0.00  0.00    +0.000 A 
ATOM      8  C   UNL     1       1.512   8.423  20.122  0.00  0.00    +0.000 A 
ATOM      9  F   UNL     1       0.952   8.549  21.332  0.00  0.00    +0.000 F 
ENDBRANCH   1   2
BRANCH   1  10
ATOM     10  O   UNL     1       0.665  11.496  18.198  0.00  0.00    +0.000 OA
ATOM     11  H   UNL     1      -0.021  12.199  18.246  0.00  0.00    +0.000 HD
ENDBRANCH   1  10
BRANCH   1  12
ATOM     12  C   UNL     1       1.058  11.614  20.566  0.00  0.00    +0.000 C 
BRANCH  12  13
ATOM     13  N   UNL     1       1.420  12.968  20.172  0.00  0.00    +0.000 N 
ATOM     14  C   UNL     1       2.645  13.553  20.261  0.00  0.00    +0.000 A 
ATOM     15  N   UNL     1       2.537  14.836  20.006  0.00  0.00    +0.000 NA
ATOM     16  C   UNL     1       1.212  14.988  19.720  0.00  0.00    +0.000 A 
ATOM     17  N   UNL     1       0.494  13.861  19.756  0.00  0.00    +0.000 NA
ENDBRANCH  12  13
ENDBRANCH   1  12
BRANCH   1  18
ATOM     18  C   UNL     1      -0.996  10.297  19.526  0.00  0.00    +0.000 C 
BRANCH  18  19
ATOM     19  N   UNL     1      -2.002  11.301  19.211  0.00  0.00    +0.000 N 
ATOM     20  C   UNL     1      -2.577  11.436  17.963  0.00  0.00    +0.000 A 
ATOM     21  C   UNL     1      -2.126  11.089  16.693  0.00  0.00    +0.000 A 
ATOM     22  C   UNL     1      -3.084  10.569  15.829  0.00  0.00    +0.000 A 
ATOM     23  C   UNL     1      -4.427  10.823  16.054  0.00  0.00    +0.000 A 
ATOM     24  C   UNL     1      -4.825  11.582  17.158  0.00  0.00    +0.000 A 
ATOM     25  C   UNL     1      -3.887  11.829  18.192  0.00  0.00    +0.000 A 
ATOM     26  C   UNL     1      -3.880  12.444  19.477  0.00  0.00    +0.000 A 
ATOM     27  C   UNL     1      -4.825  13.246  20.172  0.00  0.00    +0.000 A 
ATOM     28  C   UNL     1      -4.555  13.610  21.503  0.00  0.00    +0.000 A 
ATOM     29  C   UNL     1      -3.377  13.222  22.117  0.00  0.00    +0.000 A 
ATOM     30 BR   UNL     1      -3.091  13.624  23.943  0.00  0.00    +0.000 Br
ATOM     31  C   UNL     1      -2.408  12.472  21.427  0.00  0.00    +0.000 A 
ATOM     32  C   UNL     1      -2.687  12.111  20.113  0.00  0.00    +0.000 A 
ENDBRANCH  18  19
ENDBRANCH   1  18
TORSDOF 6
ENDMDL
MODEL 4
REMARK VINA RESULT:      -7.6      6.168      9.531
REMARK  Name = 
REMARK  6 active torsions:
REMARK  status: ('A' for Active; 'I' for Inactive)
REMARK    1  A    between atoms: O_1  and  C_2
REMARK    2  A    between atoms: C_2  and  C_3
REMARK    3  A    between atoms: C_2  and  C_9
REMARK    4  A    between atoms: C_2  and  C_24
REMARK    5  A    between atoms: C_3  and  N_4
REMARK    6  A    between atoms: C_9  and  N_10
REMARK                            x       y       z     vdW  Elec       q    Type
REMARK                         _______ _______ _______ _____ _____    ______ ____
ROOT
ATOM      1  C   UNL     1      -1.145  11.923  18.481  0.00  0.00    +0.000 C 
ENDROOT
BRANCH   1   2
ATOM      2  C   UNL     1      -1.873  12.836  19.489  0.00  0.00    +0.000 A 
ATOM      3  C   UNL     1      -3.128  12.469  20.023  0.00  0.00    +0.000 A 
ATOM      4  C   UNL     1      -3.880  13.360  20.796  0.00  0.00    +0.000 A 
ATOM      5  C   UNL     1      -3.385  14.631  21.052  0.00  0.00    +0.000 A 
ATOM      6  F   UNL     1      -4.135  15.509  21.731  0.00  0.00    +0.000 F 
ATOM      7  C   UNL     1      -2.131  15.005  20.599  0.00  0.00    +0.000 A 
ATOM      8  C   UNL     1      -1.386  14.107  19.839  0.00  0.00    +0.000 A 
ATOM      9  F   UNL     1      -0.183  14.513  19.411  0.00  0.00    +0.000 F 
ENDBRANCH   1   2
BRANCH   1  10
ATOM     10  O   UNL     1      -1.215  12.638  17.211  0.00  0.00    +0.000 OA
ATOM     11  H   UNL     1      -0.526  13.339  17.248  0.00  0.00    +0.000 HD
ENDBRANCH   1  10
BRANCH   1  12
ATOM     12  C   UNL     1      -1.879  10.572  18.243  0.00  0.00    +0.000 C 
BRANCH  12  13
ATOM     13  N   UNL     1      -2.637  10.485  17.002  0.00  0.00    +0.000 N 
ATOM     14  C   UNL     1      -2.359   9.712  15.918  0.00  0.00    +0.000 A 
ATOM     15  N   UNL     1      -3.142  10.056  14.923  0.00  0.00    +0.000 NA
ATOM     16  C   UNL     1      -3.925  11.034  15.463  0.00  0.00    +0.000 A 
ATOM     17  N   UNL     1      -3.689  11.296  16.752  0.00  0.00    +0.000 NA
ENDBRANCH  12  13
ENDBRANCH   1  12
BRANCH   1  18
ATOM     18  C   UNL     1       0.392  11.800  18.847  0.00  0.00    +0.000 C 
BRANCH  18  19
ATOM     19  N   UNL     1       0.780  10.854  19.882  0.00  0.00    +0.000 N 
ATOM     20  C   UNL     1       0.399  10.975  21.204  0.00  0.00    +0.000 A 
ATOM     21  C   UNL     1       0.028  12.080  21.964  0.00  0.00    +0.000 A 
ATOM     22  C   UNL     1      -1.017  11.877  22.861  0.00  0.00    +0.000 A 
ATOM     23  C   UNL     1      -1.322  10.595  23.287  0.00  0.00    +0.000 A 
ATOM     24  C   UNL     1      -0.598   9.502  22.803  0.00  0.00    +0.000 A 
ATOM     25  C   UNL     1       0.231   9.678  21.668  0.00  0.00    +0.000 A 
ATOM     26  C   UNL     1       1.037   8.865  20.820  0.00  0.00    +0.000 A 
ATOM     27  C   UNL     1       1.480   7.517  20.907  0.00  0.00    +0.000 A 
ATOM     28  C   UNL     1       2.188   6.966  19.824  0.00  0.00    +0.000 A 
ATOM     29  C   UNL     1       2.475   7.729  18.706  0.00  0.00    +0.000 A 
ATOM     30 BR   UNL     1       3.324   6.931  17.216  0.00  0.00    +0.000 Br
ATOM     31  C   UNL     1       2.089   9.079  18.625  0.00  0.00    +0.000 A 
ATOM     32  C   UNL     1       1.384   9.614  19.699  0.00  0.00    +0.000 A 
ENDBRANCH  18  19
ENDBRANCH   1  18
TORSDOF 6
ENDMDL
MODEL 5
REMARK VINA RESULT:      -7.6      5.559      8.839
REMARK  Name = 
REMARK  6 active torsions:
REMARK  status: ('A' for Active; 'I' for Inactive)
REMARK    1  A    between atoms: O_1  and  C_2
REMARK    2  A    between atoms: C_2  and  C_3
REMARK    3  A    between atoms: C_2  and  C_9
REMARK    4  A    between atoms: C_2  and  C_24
REMARK    5  A    between atoms: C_3  and  N_4
REMARK    6  A    between atoms: C_9  and  N_10
REMARK                            x       y       z     vdW  Elec       q    Type
REMARK                         _______ _______ _______ _____ _____    ______ ____
ROOT
ATOM      1  C   UNL     1       0.413  10.293  19.727  0.00  0.00    +0.000 C 
ENDROOT
BRANCH   1   2
ATOM      2  C   UNL     1       1.369   9.148  19.334  0.00  0.00    +0.000 A 
ATOM      3  C   UNL     1       1.938   9.090  18.043  0.00  0.00    +0.000 A 
ATOM      4  C   UNL     1       2.661   7.972  17.614  0.00  0.00    +0.000 A 
ATOM      5  C   UNL     1       2.830   6.895  18.473  0.00  0.00    +0.000 A 
ATOM      6  F   UNL     1       3.459   5.795  18.039  0.00  0.00    +0.000 F 
ATOM      7  C   UNL     1       2.342   6.941  19.768  0.00  0.00    +0.000 A 
ATOM      8  C   UNL     1       1.633   8.064  20.188  0.00  0.00    +0.000 A 
ATOM      9  F   UNL     1       1.168   8.063  21.445  0.00  0.00    +0.000 F 
ENDBRANCH   1   2
BRANCH   1  10
ATOM     10  O   UNL     1      -0.741   9.630  20.323  0.00  0.00    +0.000 OA
ATOM     11  H   UNL     1      -1.041  10.206  21.062  0.00  0.00    +0.000 HD
ENDBRANCH   1  10
BRANCH   1  12
ATOM     12  C   UNL     1      -0.139  11.074  18.499  0.00  0.00    +0.000 C 
BRANCH  12  13
ATOM     13  N   UNL     1      -1.514  10.764  18.132  0.00  0.00    +0.000 N 
ATOM     14  C   UNL     1      -1.936   9.942  17.135  0.00  0.00    +0.000 A 
ATOM     15  N   UNL     1      -3.232  10.075  16.977  0.00  0.00    +0.000 NA
ATOM     16  C   UNL     1      -3.575  10.976  17.943  0.00  0.00    +0.000 A 
ATOM     17  N   UNL     1      -2.563  11.388  18.713  0.00  0.00    +0.000 NA
ENDBRANCH  12  13
ENDBRANCH   1  12
BRANCH   1  18
ATOM     18  C   UNL     1       1.056  11.192  20.863  0.00  0.00    +0.000 C 
BRANCH  18  19
ATOM     19  N   UNL     1       0.764  12.618  20.862  0.00  0.00    +0.000 N 
ATOM     20  C   UNL     1      -0.282  13.181  21.565  0.00  0.00    +0.000 A 
ATOM     21  C   UNL     1      -1.490  12.653  22.010  0.00  0.00    +0.000 A 
ATOM     22  C   UNL     1      -1.908  13.070  23.270  0.00  0.00    +0.000 A 
ATOM     23  C   UNL     1      -1.415  14.248  23.807  0.00  0.00    +0.000 A 
ATOM     24  C   UNL     1      -0.483  15.009  23.096  0.00  0.00    +0.000 A 
ATOM     25  C   UNL     1       0.170  14.425  21.981  0.00  0.00    +0.000 A 
ATOM     26  C   UNL     1       1.203  14.779  21.066  0.00  0.00    +0.000 A 
ATOM     27  C   UNL     1       1.887  15.997  20.801  0.00  0.00    +0.000 A 
ATOM     28  C   UNL     1       2.959  15.987  19.892  0.00  0.00    +0.000 A 
ATOM     29  C   UNL     1       3.324  14.820  19.242  0.00  0.00    +0.000 A 
ATOM     30 BR   UNL     1       4.842  14.808  18.114  0.00  0.00    +0.000 Br
ATOM     31  C   UNL     1       2.625  13.618  19.453  0.00  0.00    +0.000 A 
ATOM     32  C   UNL     1       1.570  13.637  20.360  0.00  0.00    +0.000 A 
ENDBRANCH  18  19
ENDBRANCH   1  18
TORSDOF 6
ENDMDL
MODEL 6
REMARK VINA RESULT:      -7.6      5.651      9.055
REMARK  Name = 
REMARK  6 active torsions:
REMARK  status: ('A' for Active; 'I' for Inactive)
REMARK    1  A    between atoms: O_1  and  C_2
REMARK    2  A    between atoms: C_2  and  C_3
REMARK    3  A    between atoms: C_2  and  C_9
REMARK    4  A    between atoms: C_2  and  C_24
REMARK    5  A    between atoms: C_3  and  N_4
REMARK    6  A    between atoms: C_9  and  N_10
REMARK                            x       y       z     vdW  Elec       q    Type
REMARK                         _______ _______ _______ _____ _____    ______ ____
ROOT
ATOM      1  C   UNL     1       0.318  10.311  19.887  0.00  0.00    +0.000 C 
ENDROOT
BRANCH   1   2
ATOM      2  C   UNL     1       1.293   9.214  19.412  0.00  0.00    +0.000 A 
ATOM      3  C   UNL     1       1.830   9.240  18.105  0.00  0.00    +0.000 A 
ATOM      4  C   UNL     1       2.571   8.165  17.600  0.00  0.00    +0.000 A 
ATOM      5  C   UNL     1       2.789   7.050  18.397  0.00  0.00    +0.000 A 
ATOM      6  F   UNL     1       3.436   5.992  17.890  0.00  0.00    +0.000 F 
ATOM      7  C   UNL     1       2.334   7.015  19.704  0.00  0.00    +0.000 A 
ATOM      8  C   UNL     1       1.606   8.095  20.200  0.00  0.00    +0.000 A 
ATOM      9  F   UNL     1       1.174   8.015  21.466  0.00  0.00    +0.000 F 
ENDBRANCH   1   2
BRANCH   1  10
ATOM     10  O   UNL     1      -0.871   9.590  20.327  0.00  0.00    +0.000 OA
ATOM     11  H   UNL     1      -0.636   9.161  21.180  0.00  0.00    +0.000 HD
ENDBRANCH   1  10
BRANCH   1  12
ATOM     12  C   UNL     1      -0.158  11.243  18.735  0.00  0.00    +0.000 C 
BRANCH  12  13
ATOM     13  N   UNL     1      -1.512  11.000  18.258  0.00  0.00    +0.000 N 
ATOM     14  C   UNL     1      -2.630  11.720  18.547  0.00  0.00    +0.000 A 
ATOM     15  N   UNL     1      -3.688  11.080  18.106  0.00  0.00    +0.000 NA
ATOM     16  C   UNL     1      -3.159   9.974  17.508  0.00  0.00    +0.000 A 
ATOM     17  N   UNL     1      -1.825   9.906  17.528  0.00  0.00    +0.000 NA
ENDBRANCH  12  13
ENDBRANCH   1  12
BRANCH   1  18
ATOM     18  C   UNL     1       0.894  11.055  21.162  0.00  0.00    +0.000 C 
BRANCH  18  19
ATOM     19  N   UNL     1       0.595  12.470  21.328  0.00  0.00    +0.000 N 
ATOM     20  C   UNL     1       1.314  13.476  20.713  0.00  0.00    +0.000 A 
ATOM     21  C   UNL     1       2.622  13.524  20.239  0.00  0.00    +0.000 A 
ATOM     22  C   UNL     1       2.809  14.209  19.043  0.00  0.00    +0.000 A 
ATOM     23  C   UNL     1       1.876  15.146  18.629  0.00  0.00    +0.000 A 
ATOM     24  C   UNL     1       0.736  15.390  19.400  0.00  0.00    +0.000 A 
ATOM     25  C   UNL     1       0.396  14.476  20.428  0.00  0.00    +0.000 A 
ATOM     26  C   UNL     1      -0.670  14.287  21.354  0.00  0.00    +0.000 A 
ATOM     27  C   UNL     1      -1.775  15.096  21.737  0.00  0.00    +0.000 A 
ATOM     28  C   UNL     1      -2.733  14.560  22.617  0.00  0.00    +0.000 A 
ATOM     29  C   UNL     1      -2.589  13.281  23.125  0.00  0.00    +0.000 A 
ATOM     30 BR   UNL     1      -3.949  12.542  24.211  0.00  0.00    +0.000 Br
ATOM     31  C   UNL     1      -1.475  12.487  22.797  0.00  0.00    +0.000 A 
ATOM     32  C   UNL     1      -0.536  13.023  21.921  0.00  0.00    +0.000 A 
ENDBRANCH  18  19
ENDBRANCH   1  18
TORSDOF 6
ENDMDL
MODEL 7
REMARK VINA RESULT:      -7.5      6.179      9.069
REMARK  Name = 
REMARK  6 active torsions:
REMARK  status: ('A' for Active; 'I' for Inactive)
REMARK    1  A    between atoms: O_1  and  C_2
REMARK    2  A    between atoms: C_2  and  C_3
REMARK    3  A    between atoms: C_2  and  C_9
REMARK    4  A    between atoms: C_2  and  C_24
REMARK    5  A    between atoms: C_3  and  N_4
REMARK    6  A    between atoms: C_9  and  N_10
REMARK                            x       y       z     vdW  Elec       q    Type
REMARK                         _______ _______ _______ _____ _____    ______ ____
ROOT
ATOM      1  C   UNL     1       0.518  11.090  19.483  0.00  0.00    +0.000 C 
ENDROOT
BRANCH   1   2
ATOM      2  C   UNL     1       1.311   9.791  19.233  0.00  0.00    +0.000 A 
ATOM      3  C   UNL     1       1.857   9.509  17.961  0.00  0.00    +0.000 A 
ATOM      4  C   UNL     1       2.423   8.263  17.670  0.00  0.00    +0.000 A 
ATOM      5  C   UNL     1       2.455   7.281  18.650  0.00  0.00    +0.000 A 
ATOM      6  F   UNL     1       2.930   6.064  18.351  0.00  0.00    +0.000 F 
ATOM      7  C   UNL     1       1.988   7.541  19.927  0.00  0.00    +0.000 A 
ATOM      8  C   UNL     1       1.436   8.788  20.209  0.00  0.00    +0.000 A 
ATOM      9  F   UNL     1       0.985   8.994  21.453  0.00  0.00    +0.000 F 
ENDBRANCH   1   2
BRANCH   1  10
ATOM     10  O   UNL     1       0.398  11.714  18.170  0.00  0.00    +0.000 OA
ATOM     11  H   UNL     1       1.273  11.610  17.732  0.00  0.00    +0.000 HD
ENDBRANCH   1  10
BRANCH   1  12
ATOM     12  C   UNL     1       1.289  12.114  20.365  0.00  0.00    +0.000 C 
BRANCH  12  13
ATOM     13  N   UNL     1       1.793  13.286  19.662  0.00  0.00    +0.000 N 
ATOM     14  C   UNL     1       1.346  14.566  19.766  0.00  0.00    +0.000 A 
ATOM     15  N   UNL     1       1.902  15.301  18.832  0.00  0.00    +0.000 NA
ATOM     16  C   UNL     1       2.729  14.424  18.194  0.00  0.00    +0.000 A 
ATOM     17  N   UNL     1       2.738  13.187  18.700  0.00  0.00    +0.000 NA
ENDBRANCH  12  13
ENDBRANCH   1  12
BRANCH   1  18
ATOM     18  C   UNL     1      -0.955  10.761  19.964  0.00  0.00    +0.000 C 
BRANCH  18  19
ATOM     19  N   UNL     1      -1.974  11.791  19.819  0.00  0.00    +0.000 N 
ATOM     20  C   UNL     1      -2.901  11.805  18.796  0.00  0.00    +0.000 A 
ATOM     21  C   UNL     1      -2.877  11.260  17.516  0.00  0.00    +0.000 A 
ATOM     22  C   UNL     1      -4.073  10.707  17.069  0.00  0.00    +0.000 A 
ATOM     23  C   UNL     1      -5.271  11.094  17.646  0.00  0.00    +0.000 A 
ATOM     24  C   UNL     1      -5.281  12.022  18.692  0.00  0.00    +0.000 A 
ATOM     25  C   UNL     1      -4.062  12.328  19.347  0.00  0.00    +0.000 A 
ATOM     26  C   UNL     1      -3.637  13.105  20.463  0.00  0.00    +0.000 A 
ATOM     27  C   UNL     1      -4.292  14.064  21.281  0.00  0.00    +0.000 A 
ATOM     28  C   UNL     1      -3.611  14.578  22.399  0.00  0.00    +0.000 A 
ATOM     29  C   UNL     1      -2.315  14.182  22.682  0.00  0.00    +0.000 A 
ATOM     30 BR   UNL     1      -1.465  14.798  24.255  0.00  0.00    +0.000 Br
ATOM     31  C   UNL     1      -1.634  13.273  21.852  0.00  0.00    +0.000 A 
ATOM     32  C   UNL     1      -2.318  12.765  20.753  0.00  0.00    +0.000 A 
ENDBRANCH  18  19
ENDBRANCH   1  18
TORSDOF 6
ENDMDL
MODEL 8
REMARK VINA RESULT:      -7.5      2.212      3.710
REMARK  Name = 
REMARK  6 active torsions:
REMARK  status: ('A' for Active; 'I' for Inactive)
REMARK    1  A    between atoms: O_1  and  C_2
REMARK    2  A    between atoms: C_2  and  C_3
REMARK    3  A    between atoms: C_2  and  C_9
REMARK    4  A    between atoms: C_2  and  C_24
REMARK    5  A    between atoms: C_3  and  N_4
REMARK    6  A    between atoms: C_9  and  N_10
REMARK                            x       y       z     vdW  Elec       q    Type
REMARK                         _______ _______ _______ _____ _____    ______ ____
ROOT
ATOM      1  C   UNL     1       5.052   4.790  16.401  0.00  0.00    +0.000 C 
ENDROOT
BRANCH   1   2
ATOM      2  C   UNL     1       5.641   4.629  14.985  0.00  0.00    +0.000 A 
ATOM      3  C   UNL     1       4.954   3.893  13.994  0.00  0.00    +0.000 A 
ATOM      4  C   UNL     1       5.552   3.588  12.766  0.00  0.00    +0.000 A 
ATOM      5  C   UNL     1       6.845   4.020  12.509  0.00  0.00    +0.000 A 
ATOM      6  F   UNL     1       7.445   3.668  11.364  0.00  0.00    +0.000 F 
ATOM      7  C   UNL     1       7.526   4.799  13.429  0.00  0.00    +0.000 A 
ATOM      8  C   UNL     1       6.918   5.105  14.644  0.00  0.00    +0.000 A 
ATOM      9  F   UNL     1       7.617   5.850  15.511  0.00  0.00    +0.000 F 
ENDBRANCH   1   2
BRANCH   1  10
ATOM     10  O   UNL     1       5.430   6.137  16.813  0.00  0.00    +0.000 OA
ATOM     11  H   UNL     1       6.059   6.032  17.562  0.00  0.00    +0.000 HD
ENDBRANCH   1  10
BRANCH   1  12
ATOM     12  C   UNL     1       5.702   3.834  17.443  0.00  0.00    +0.000 C 
BRANCH  12  13
ATOM     13  N   UNL     1       6.581   4.475  18.412  0.00  0.00    +0.000 N 
ATOM     14  C   UNL     1       6.220   5.115  19.556  0.00  0.00    +0.000 A 
ATOM     15  N   UNL     1       7.261   5.739  20.055  0.00  0.00    +0.000 NA
ATOM     16  C   UNL     1       8.266   5.414  19.191  0.00  0.00    +0.000 A 
ATOM     17  N   UNL     1       7.910   4.596  18.196  0.00  0.00    +0.000 NA
ENDBRANCH  12  13
ENDBRANCH   1  12
BRANCH   1  18
ATOM     18  C   UNL     1       3.468   4.759  16.354  0.00  0.00    +0.000 C 
BRANCH  18  19
ATOM     19  N   UNL     1       2.738   4.902  17.605  0.00  0.00    +0.000 N 
ATOM     20  C   UNL     1       2.487   3.850  18.464  0.00  0.00    +0.000 A 
ATOM     21  C   UNL     1       2.397   2.479  18.248  0.00  0.00    +0.000 A 
ATOM     22  C   UNL     1       2.952   1.670  19.235  0.00  0.00    +0.000 A 
ATOM     23  C   UNL     1       3.137   2.170  20.513  0.00  0.00    +0.000 A 
ATOM     24  C   UNL     1       2.789   3.490  20.810  0.00  0.00    +0.000 A 
ATOM     25  C   UNL     1       2.534   4.387  19.742  0.00  0.00    +0.000 A 
ATOM     26  C   UNL     1       2.251   5.774  19.582  0.00  0.00    +0.000 A 
ATOM     27  C   UNL     1       1.922   6.808  20.500  0.00  0.00    +0.000 A 
ATOM     28  C   UNL     1       1.809   8.126  20.023  0.00  0.00    +0.000 A 
ATOM     29  C   UNL     1       1.986   8.410  18.680  0.00  0.00    +0.000 A 
ATOM     30 BR   UNL     1       1.946  10.204  18.084  0.00  0.00    +0.000 Br
ATOM     31  C   UNL     1       2.261   7.391  17.750  0.00  0.00    +0.000 A 
ATOM     32  C   UNL     1       2.376   6.091  18.232  0.00  0.00    +0.000 A 
ENDBRANCH  18  19
ENDBRANCH   1  18
TORSDOF 6
ENDMDL
MODEL 9
REMARK VINA RESULT:      -7.4      2.446      4.063
REMARK  Name = 
REMARK  6 active torsions:
REMARK  status: ('A' for Active; 'I' for Inactive)
REMARK    1  A    between atoms: O_1  and  C_2
REMARK    2  A    between atoms: C_2  and  C_3
REMARK    3  A    between atoms: C_2  and  C_9
REMARK    4  A    between atoms: C_2  and  C_24
REMARK    5  A    between atoms: C_3  and  N_4
REMARK    6  A    between atoms: C_9  and  N_10
REMARK                            x       y       z     vdW  Elec       q    Type
REMARK                         _______ _______ _______ _____ _____    ______ ____
ROOT
ATOM      1  C   UNL     1       5.359   4.702  15.891  0.00  0.00    +0.000 C 
ENDROOT
BRANCH   1   2
ATOM      2  C   UNL     1       5.857   4.449  14.453  0.00  0.00    +0.000 A 
ATOM      3  C   UNL     1       5.112   3.649  13.559  0.00  0.00    +0.000 A 
ATOM      4  C   UNL     1       5.631   3.266  12.317  0.00  0.00    +0.000 A 
ATOM      5  C   UNL     1       6.903   3.681  11.949  0.00  0.00    +0.000 A 
ATOM      6  F   UNL     1       7.429   3.255  10.793  0.00  0.00    +0.000 F 
ATOM      7  C   UNL     1       7.638   4.518  12.772  0.00  0.00    +0.000 A 
ATOM      8  C   UNL     1       7.108   4.903  14.001  0.00  0.00    +0.000 A 
ATOM      9  F   UNL     1       7.857   5.703  14.771  0.00  0.00    +0.000 F 
ENDBRANCH   1   2
BRANCH   1  10
ATOM     10  O   UNL     1       5.440   6.148  16.066  0.00  0.00    +0.000 OA
ATOM     11  H   UNL     1       6.304   6.426  15.686  0.00  0.00    +0.000 HD
ENDBRANCH   1  10
BRANCH   1  12
ATOM     12  C   UNL     1       6.297   4.094  16.975  0.00  0.00    +0.000 C 
BRANCH  12  13
ATOM     13  N   UNL     1       6.823   5.045  17.945  0.00  0.00    +0.000 N 
ATOM     14  C   UNL     1       7.559   6.160  17.690  0.00  0.00    +0.000 A 
ATOM     15  N   UNL     1       8.023   6.645  18.818  0.00  0.00    +0.000 NA
ATOM     16  C   UNL     1       7.505   5.803  19.758  0.00  0.00    +0.000 A 
ATOM     17  N   UNL     1       6.718   4.836  19.276  0.00  0.00    +0.000 NA
ENDBRANCH  12  13
ENDBRANCH   1  12
BRANCH   1  18
ATOM     18  C   UNL     1       3.829   4.313  16.029  0.00  0.00    +0.000 C 
BRANCH  18  19
ATOM     19  N   UNL     1       3.227   4.341  17.353  0.00  0.00    +0.000 N 
ATOM     20  C   UNL     1       3.214   3.255  18.205  0.00  0.00    +0.000 A 
ATOM     21  C   UNL     1       3.284   1.886  17.963  0.00  0.00    +0.000 A 
ATOM     22  C   UNL     1       4.045   1.148  18.864  0.00  0.00    +0.000 A 
ATOM     23  C   UNL     1       4.301   1.653  20.129  0.00  0.00    +0.000 A 
ATOM     24  C   UNL     1       3.814   2.911  20.495  0.00  0.00    +0.000 A 
ATOM     25  C   UNL     1       3.327   3.778  19.485  0.00  0.00    +0.000 A 
ATOM     26  C   UNL     1       2.846   5.116  19.393  0.00  0.00    +0.000 A 
ATOM     27  C   UNL     1       2.484   6.084  20.368  0.00  0.00    +0.000 A 
ATOM     28  C   UNL     1       2.146   7.381  19.941  0.00  0.00    +0.000 A 
ATOM     29  C   UNL     1       2.136   7.702  18.595  0.00  0.00    +0.000 A 
ATOM     30 BR   UNL     1       1.793   9.482  18.055  0.00  0.00    +0.000 Br
ATOM     31  C   UNL     1       2.441   6.741  17.614  0.00  0.00    +0.000 A 
ATOM     32  C   UNL     1       2.780   5.463  18.046  0.00  0.00    +0.000 A 
ENDBRANCH  18  19
ENDBRANCH   1  18
TORSDOF 6
ENDMDL
