MODEL 1
REMARK VINA RESULT:      -8.8      0.000      0.000
REMARK  Name = 
REMARK  3 active torsions:
REMARK  status: ('A' for Active; 'I' for Inactive)
REMARK    1  A    between atoms: C_7  and  C_8
REMARK    2  A    between atoms: N_11  and  C_12
REMARK    3  A    between atoms: N_22  and  C_23
REMARK                            x       y       z     vdW  Elec       q    Type
REMARK                         _______ _______ _______ _____ _____    ______ ____
ROOT
ATOM      1  C   UNL     1      -1.323  10.838  19.462  0.00  0.00    +0.000 A 
ATOM      2  N   UNL     1      -0.304   9.986  19.555  0.00  0.00    +0.000 NA
ATOM      3  C   UNL     1       0.445  10.082  20.646  0.00  0.00    +0.000 A 
ATOM      4  N   UNL     1       1.567   9.264  20.773  0.00  0.00    +0.000 N 
ATOM      5  N   UNL     1       0.214  10.954  21.621  0.00  0.00    +0.000 NA
ATOM      6  C   UNL     1      -0.845  11.742  21.465  0.00  0.00    +0.000 A 
ATOM      7  N   UNL     1      -1.078  12.643  22.495  0.00  0.00    +0.000 N 
ATOM      8  N   UNL     1      -1.646  11.717  20.411  0.00  0.00    +0.000 NA
ATOM      9  H   UNL     1       2.054   9.459  21.637  0.00  0.00    +0.000 HD
ATOM     10  H   UNL     1      -0.536  12.329  23.293  0.00  0.00    +0.000 HD
ENDROOT
BRANCH   1  17
ATOM     11  N   UNL     1      -5.212  12.276  17.129  0.00  0.00    +0.000 N 
ATOM     12  C   UNL     1      -4.033  11.540  17.094  0.00  0.00    +0.000 A 
ATOM     13  C   UNL     1      -3.729  10.760  15.987  0.00  0.00    +0.000 A 
ATOM     14  C   UNL     1      -2.565  10.002  16.000  0.00  0.00    +0.000 A 
ATOM     15  C   UNL     1      -1.752  10.029  17.124  0.00  0.00    +0.000 A 
ATOM     16  F   UNL     1      -0.653   9.262  17.135  0.00  0.00    +0.000 F 
ATOM     17  C   UNL     1      -2.115  10.816  18.216  0.00  0.00    +0.000 A 
ATOM     18  N   UNL     1      -3.257  11.578  18.191  0.00  0.00    +0.000 NA
ATOM     19  H   UNL     1      -5.325  12.870  16.316  0.00  0.00    +0.000 HD
ATOM     20  H   UNL     1      -5.221  12.807  17.998  0.00  0.00    +0.000 HD
ENDBRANCH   1  17
BRANCH   4  21
ATOM     21  C   UNL     1       1.777   7.985  20.231  0.00  0.00    +0.000 A 
ATOM     22  C   UNL     1       1.381   6.854  20.956  0.00  0.00    +0.000 A 
ATOM     23  C   UNL     1       1.604   5.575  20.442  0.00  0.00    +0.000 A 
ATOM     24  F   UNL     1       1.240   4.506  21.162  0.00  0.00    +0.000 F 
ATOM     25  C   UNL     1       2.197   5.389  19.204  0.00  0.00    +0.000 A 
ATOM     26  C   UNL     1       2.583   6.507  18.482  0.00  0.00    +0.000 A 
ATOM     27  F   UNL     1       3.145   6.353  17.276  0.00  0.00    +0.000 F 
ATOM     28  C   UNL     1       2.389   7.791  18.985  0.00  0.00    +0.000 A 
ENDBRANCH   4  21
BRANCH   7  29
ATOM     29  C   UNL     1      -2.458  13.030  22.747  0.00  0.00    +0.000 C 
ATOM     30  C   UNL     1      -3.090  12.081  23.772  0.00  0.00    +0.000 C 
ATOM     31  C   UNL     1      -4.197  12.910  24.391  0.00  0.00    +0.000 C 
ATOM     32  C   UNL     1      -3.566  14.281  24.510  0.00  0.00    +0.000 C 
ATOM     33  F   UNL     1      -2.935  14.386  25.704  0.00  0.00    +0.000 F 
ATOM     34  F   UNL     1      -4.505  15.248  24.468  0.00  0.00    +0.000 F 
ATOM     35  C   UNL     1      -2.560  14.423  23.380  0.00  0.00    +0.000 C 
ENDBRANCH   7  29
TORSDOF 3
ENDMDL
MODEL 2
REMARK VINA RESULT:      -8.8      0.072      1.473
REMARK  Name = 
REMARK  3 active torsions:
REMARK  status: ('A' for Active; 'I' for Inactive)
REMARK    1  A    between atoms: C_7  and  C_8
REMARK    2  A    between atoms: N_11  and  C_12
REMARK    3  A    between atoms: N_22  and  C_23
REMARK                            x       y       z     vdW  Elec       q    Type
REMARK                         _______ _______ _______ _____ _____    ______ ____
ROOT
ATOM      1  C   UNL     1      -1.293  10.808  19.510  0.00  0.00    +0.000 A 
ATOM      2  N   UNL     1      -0.287   9.943  19.619  0.00  0.00    +0.000 NA
ATOM      3  C   UNL     1       0.451  10.035  20.718  0.00  0.00    +0.000 A 
ATOM      4  N   UNL     1       1.561   9.202  20.862  0.00  0.00    +0.000 N 
ATOM      5  N   UNL     1       0.220  10.915  21.686  0.00  0.00    +0.000 NA
ATOM      6  C   UNL     1      -0.826  11.716  21.514  0.00  0.00    +0.000 A 
ATOM      7  N   UNL     1      -1.060  12.625  22.537  0.00  0.00    +0.000 N 
ATOM      8  N   UNL     1      -1.615  11.696  20.451  0.00  0.00    +0.000 NA
ATOM      9  H   UNL     1       2.040   9.396  21.731  0.00  0.00    +0.000 HD
ATOM     10  H   UNL     1      -0.531  12.309  23.342  0.00  0.00    +0.000 HD
ENDROOT
BRANCH   1  17
ATOM     11  N   UNL     1      -5.158  12.248  17.139  0.00  0.00    +0.000 N 
ATOM     12  C   UNL     1      -3.977  11.514  17.114  0.00  0.00    +0.000 A 
ATOM     13  C   UNL     1      -3.659  10.741  16.007  0.00  0.00    +0.000 A 
ATOM     14  C   UNL     1      -2.494   9.985  16.031  0.00  0.00    +0.000 A 
ATOM     15  C   UNL     1      -1.694  10.009  17.164  0.00  0.00    +0.000 A 
ATOM     16  F   UNL     1      -0.593   9.244  17.183  0.00  0.00    +0.000 F 
ATOM     17  C   UNL     1      -2.071  10.790  18.254  0.00  0.00    +0.000 A 
ATOM     18  N   UNL     1      -3.214  11.549  18.220  0.00  0.00    +0.000 NA
ATOM     19  H   UNL     1      -5.263  12.846  16.328  0.00  0.00    +0.000 HD
ATOM     20  H   UNL     1      -5.179  12.775  18.011  0.00  0.00    +0.000 HD
ENDBRANCH   1  17
BRANCH   4  21
ATOM     21  C   UNL     1       1.760   7.919  20.329  0.00  0.00    +0.000 A 
ATOM     22  C   UNL     1       2.382   7.778  19.082  0.00  0.00    +0.000 A 
ATOM     23  C   UNL     1       2.566   6.511  18.526  0.00  0.00    +0.000 A 
ATOM     24  F   UNL     1       3.142   6.398  17.322  0.00  0.00    +0.000 F 
ATOM     25  C   UNL     1       2.162   5.365  19.194  0.00  0.00    +0.000 A 
ATOM     26  C   UNL     1       1.553   5.502  20.430  0.00  0.00    +0.000 A 
ATOM     27  F   UNL     1       1.167   4.409  21.101  0.00  0.00    +0.000 F 
ATOM     28  C   UNL     1       1.340   6.758  20.993  0.00  0.00    +0.000 A 
ENDBRANCH   4  21
BRANCH   7  29
ATOM     29  C   UNL     1      -2.437  13.031  22.770  0.00  0.00    +0.000 C 
ATOM     30  C   UNL     1      -3.100  12.083  23.776  0.00  0.00    +0.000 C 
ATOM     31  C   UNL     1      -4.203  12.923  24.386  0.00  0.00    +0.000 C 
ATOM     32  C   UNL     1      -3.553  14.284  24.527  0.00  0.00    +0.000 C 
ATOM     33  F   UNL     1      -2.939  14.368  25.732  0.00  0.00    +0.000 F 
ATOM     34  F   UNL     1      -4.476  15.266  24.480  0.00  0.00    +0.000 F 
ATOM     35  C   UNL     1      -2.527  14.420  23.415  0.00  0.00    +0.000 C 
ENDBRANCH   7  29
TORSDOF 3
ENDMDL
MODEL 3
REMARK VINA RESULT:      -8.7      4.983     11.340
REMARK  Name = 
REMARK  3 active torsions:
REMARK  status: ('A' for Active; 'I' for Inactive)
REMARK    1  A    between atoms: C_7  and  C_8
REMARK    2  A    between atoms: N_11  and  C_12
REMARK    3  A    between atoms: N_22  and  C_23
REMARK                            x       y       z     vdW  Elec       q    Type
REMARK                         _______ _______ _______ _____ _____    ______ ____
ROOT
ATOM      1  C   UNL     1       3.849   4.928  17.887  0.00  0.00    +0.000 A 
ATOM      2  N   UNL     1       3.351   6.125  18.193  0.00  0.00    +0.000 NA
ATOM      3  C   UNL     1       3.758   7.140  17.443  0.00  0.00    +0.000 A 
ATOM      4  N   UNL     1       3.327   8.430  17.754  0.00  0.00    +0.000 N 
ATOM      5  N   UNL     1       4.599   7.010  16.423  0.00  0.00    +0.000 NA
ATOM      6  C   UNL     1       5.018   5.776  16.163  0.00  0.00    +0.000 A 
ATOM      7  N   UNL     1       5.891   5.653  15.090  0.00  0.00    +0.000 N 
ATOM      8  N   UNL     1       4.666   4.705  16.858  0.00  0.00    +0.000 NA
ATOM      9  H   UNL     1       3.731   9.103  17.117  0.00  0.00    +0.000 HD
ATOM     10  H   UNL     1       5.822   6.509  14.551  0.00  0.00    +0.000 HD
ENDROOT
BRANCH   1  17
ATOM     11  N   UNL     1       5.304   1.375  20.696  0.00  0.00    +0.000 N 
ATOM     12  C   UNL     1       4.229   2.061  20.140  0.00  0.00    +0.000 A 
ATOM     13  C   UNL     1       2.934   1.602  20.329  0.00  0.00    +0.000 A 
ATOM     14  C   UNL     1       1.886   2.284  19.725  0.00  0.00    +0.000 A 
ATOM     15  C   UNL     1       2.164   3.390  18.935  0.00  0.00    +0.000 A 
ATOM     16  F   UNL     1       1.144   4.014  18.329  0.00  0.00    +0.000 F 
ATOM     17  C   UNL     1       3.486   3.797  18.764  0.00  0.00    +0.000 A 
ATOM     18  N   UNL     1       4.517   3.130  19.377  0.00  0.00    +0.000 NA
ATOM     19  H   UNL     1       5.194   1.219  21.690  0.00  0.00    +0.000 HD
ATOM     20  H   UNL     1       6.151   1.897  20.479  0.00  0.00    +0.000 HD
ENDBRANCH   1  17
BRANCH   4  21
ATOM     21  C   UNL     1       2.129   8.820  18.375  0.00  0.00    +0.000 A 
ATOM     22  C   UNL     1       1.168   9.526  17.640  0.00  0.00    +0.000 A 
ATOM     23  C   UNL     1      -0.018   9.942  18.249  0.00  0.00    +0.000 A 
ATOM     24  F   UNL     1      -0.914  10.636  17.535  0.00  0.00    +0.000 F 
ATOM     25  C   UNL     1      -0.286   9.654  19.578  0.00  0.00    +0.000 A 
ATOM     26  C   UNL     1       0.661   8.949  20.304  0.00  0.00    +0.000 A 
ATOM     27  F   UNL     1       0.418   8.647  21.586  0.00  0.00    +0.000 F 
ATOM     28  C   UNL     1       1.859   8.544  19.722  0.00  0.00    +0.000 A 
ENDBRANCH   4  21
BRANCH   7  29
ATOM     29  C   UNL     1       5.867   4.403  14.347  0.00  0.00    +0.000 C 
ATOM     30  C   UNL     1       4.785   4.459  13.262  0.00  0.00    +0.000 C 
ATOM     31  C   UNL     1       5.265   3.463  12.226  0.00  0.00    +0.000 C 
ATOM     32  C   UNL     1       6.761   3.697  12.201  0.00  0.00    +0.000 C 
ATOM     33  F   UNL     1       7.053   4.657  11.291  0.00  0.00    +0.000 F 
ATOM     34  F   UNL     1       7.417   2.579  11.827  0.00  0.00    +0.000 F 
ATOM     35  C   UNL     1       7.177   4.158  13.588  0.00  0.00    +0.000 C 
ENDBRANCH   7  29
TORSDOF 3
ENDMDL
MODEL 4
REMARK VINA RESULT:      -8.7      4.981     11.259
REMARK  Name = 
REMARK  3 active torsions:
REMARK  status: ('A' for Active; 'I' for Inactive)
REMARK    1  A    between atoms: C_7  and  C_8
REMARK    2  A    between atoms: N_11  and  C_12
REMARK    3  A    between atoms: N_22  and  C_23
REMARK                            x       y       z     vdW  Elec       q    Type
REMARK                         _______ _______ _______ _____ _____    ______ ____
ROOT
ATOM      1  C   UNL     1       3.851   4.960  17.875  0.00  0.00    +0.000 A 
ATOM      2  N   UNL     1       3.355   6.160  18.172  0.00  0.00    +0.000 NA
ATOM      3  C   UNL     1       3.767   7.169  17.416  0.00  0.00    +0.000 A 
ATOM      4  N   UNL     1       3.338   8.462  17.717  0.00  0.00    +0.000 N 
ATOM      5  N   UNL     1       4.611   7.029  16.400  0.00  0.00    +0.000 NA
ATOM      6  C   UNL     1       5.028   5.792  16.149  0.00  0.00    +0.000 A 
ATOM      7  N   UNL     1       5.904   5.660  15.081  0.00  0.00    +0.000 N 
ATOM      8  N   UNL     1       4.671   4.728  16.851  0.00  0.00    +0.000 NA
ATOM      9  H   UNL     1       3.745   9.130  17.077  0.00  0.00    +0.000 HD
ATOM     10  H   UNL     1       5.839   6.513  14.535  0.00  0.00    +0.000 HD
ENDROOT
BRANCH   1  17
ATOM     11  N   UNL     1       5.289   1.407  20.694  0.00  0.00    +0.000 N 
ATOM     12  C   UNL     1       4.217   2.099  20.139  0.00  0.00    +0.000 A 
ATOM     13  C   UNL     1       2.919   1.651  20.336  0.00  0.00    +0.000 A 
ATOM     14  C   UNL     1       1.875   2.339  19.734  0.00  0.00    +0.000 A 
ATOM     15  C   UNL     1       2.158   3.440  18.937  0.00  0.00    +0.000 A 
ATOM     16  F   UNL     1       1.140   4.069  18.333  0.00  0.00    +0.000 F 
ATOM     17  C   UNL     1       3.483   3.835  18.759  0.00  0.00    +0.000 A 
ATOM     18  N   UNL     1       4.511   3.162  19.371  0.00  0.00    +0.000 NA
ATOM     19  H   UNL     1       5.182   1.256  21.690  0.00  0.00    +0.000 HD
ATOM     20  H   UNL     1       6.140   1.921  20.471  0.00  0.00    +0.000 HD
ENDBRANCH   1  17
BRANCH   4  21
ATOM     21  C   UNL     1       2.139   8.859  18.332  0.00  0.00    +0.000 A 
ATOM     22  C   UNL     1       1.911   8.535  19.675  0.00  0.00    +0.000 A 
ATOM     23  C   UNL     1       0.715   8.900  20.295  0.00  0.00    +0.000 A 
ATOM     24  F   UNL     1       0.506   8.561  21.574  0.00  0.00    +0.000 F 
ATOM     25  C   UNL     1      -0.264   9.606  19.612  0.00  0.00    +0.000 A 
ATOM     26  C   UNL     1      -0.038   9.933  18.285  0.00  0.00    +0.000 A 
ATOM     27  F   UNL     1      -0.963  10.626  17.609  0.00  0.00    +0.000 F 
ATOM     28  C   UNL     1       1.140   9.559  17.642  0.00  0.00    +0.000 A 
ENDBRANCH   4  21
BRANCH   7  29
ATOM     29  C   UNL     1       5.879   4.406  14.346  0.00  0.00    +0.000 C 
ATOM     30  C   UNL     1       4.788   4.449  13.270  0.00  0.00    +0.000 C 
ATOM     31  C   UNL     1       5.264   3.448  12.236  0.00  0.00    +0.000 C 
ATOM     32  C   UNL     1       6.759   3.689  12.198  0.00  0.00    +0.000 C 
ATOM     33  F   UNL     1       7.039   4.644  11.278  0.00  0.00    +0.000 F 
ATOM     34  F   UNL     1       7.416   2.571  11.826  0.00  0.00    +0.000 F 
ATOM     35  C   UNL     1       7.184   4.161  13.578  0.00  0.00    +0.000 C 
ENDBRANCH   7  29
TORSDOF 3
ENDMDL
MODEL 5
REMARK VINA RESULT:      -8.6      3.921      5.853
REMARK  Name = 
REMARK  3 active torsions:
REMARK  status: ('A' for Active; 'I' for Inactive)
REMARK    1  A    between atoms: C_7  and  C_8
REMARK    2  A    between atoms: N_11  and  C_12
REMARK    3  A    between atoms: N_22  and  C_23
REMARK                            x       y       z     vdW  Elec       q    Type
REMARK                         _______ _______ _______ _____ _____    ______ ____
ROOT
ATOM      1  C   UNL     1       1.161  10.459  19.807  0.00  0.00    +0.000 A 
ATOM      2  N   UNL     1       1.488   9.291  19.258  0.00  0.00    +0.000 NA
ATOM      3  C   UNL     1       2.160   9.346  18.116  0.00  0.00    +0.000 A 
ATOM      4  N   UNL     1       2.474   8.158  17.454  0.00  0.00    +0.000 N 
ATOM      5  N   UNL     1       2.521  10.482  17.529  0.00  0.00    +0.000 NA
ATOM      6  C   UNL     1       2.186  11.601  18.163  0.00  0.00    +0.000 A 
ATOM      7  N   UNL     1       2.576  12.780  17.543  0.00  0.00    +0.000 N 
ATOM      8  N   UNL     1       1.517  11.641  19.304  0.00  0.00    +0.000 NA
ATOM      9  H   UNL     1       2.964   8.350  16.591  0.00  0.00    +0.000 HD
ATOM     10  H   UNL     1       3.279  12.536  16.854  0.00  0.00    +0.000 HD
ENDROOT
BRANCH   1  17
ATOM     11  N   UNL     1      -2.347  12.419  22.354  0.00  0.00    +0.000 N 
ATOM     12  C   UNL     1      -1.396  11.409  22.257  0.00  0.00    +0.000 A 
ATOM     13  C   UNL     1      -1.198  10.532  23.314  0.00  0.00    +0.000 A 
ATOM     14  C   UNL     1      -0.211   9.562  23.204  0.00  0.00    +0.000 A 
ATOM     15  C   UNL     1       0.562   9.509  22.053  0.00  0.00    +0.000 A 
ATOM     16  F   UNL     1       1.535   8.590  21.979  0.00  0.00    +0.000 F 
ATOM     17  C   UNL     1       0.332  10.427  21.029  0.00  0.00    +0.000 A 
ATOM     18  N   UNL     1      -0.657  11.373  21.135  0.00  0.00    +0.000 NA
ATOM     19  H   UNL     1      -3.261  12.070  22.616  0.00  0.00    +0.000 HD
ATOM     20  H   UNL     1      -2.365  12.916  21.464  0.00  0.00    +0.000 HD
ENDBRANCH   1  17
BRANCH   4  21
ATOM     21  C   UNL     1       2.691   6.886  18.009  0.00  0.00    +0.000 A 
ATOM     22  C   UNL     1       3.933   6.586  18.584  0.00  0.00    +0.000 A 
ATOM     23  C   UNL     1       4.173   5.319  19.117  0.00  0.00    +0.000 A 
ATOM     24  F   UNL     1       5.375   5.044  19.642  0.00  0.00    +0.000 F 
ATOM     25  C   UNL     1       3.195   4.337  19.114  0.00  0.00    +0.000 A 
ATOM     26  C   UNL     1       1.964   4.635  18.552  0.00  0.00    +0.000 A 
ATOM     27  F   UNL     1       0.998   3.707  18.550  0.00  0.00    +0.000 F 
ATOM     28  C   UNL     1       1.710   5.885  17.995  0.00  0.00    +0.000 A 
ENDBRANCH   4  21
BRANCH   7  29
ATOM     29  C   UNL     1       2.860  13.924  18.396  0.00  0.00    +0.000 C 
ATOM     30  C   UNL     1       4.269  14.455  18.110  0.00  0.00    +0.000 C 
ATOM     31  C   UNL     1       4.196  15.908  18.536  0.00  0.00    +0.000 C 
ATOM     32  C   UNL     1       2.821  16.330  18.064  0.00  0.00    +0.000 C 
ATOM     33  F   UNL     1       2.903  16.794  16.794  0.00  0.00    +0.000 F 
ATOM     34  F   UNL     1       2.338  17.332  18.825  0.00  0.00    +0.000 F 
ATOM     35  C   UNL     1       1.924  15.104  18.109  0.00  0.00    +0.000 C 
ENDBRANCH   7  29
TORSDOF 3
ENDMDL
MODEL 6
REMARK VINA RESULT:      -8.6      4.730     10.840
REMARK  Name = 
REMARK  3 active torsions:
REMARK  status: ('A' for Active; 'I' for Inactive)
REMARK    1  A    between atoms: C_7  and  C_8
REMARK    2  A    between atoms: N_11  and  C_12
REMARK    3  A    between atoms: N_22  and  C_23
REMARK                            x       y       z     vdW  Elec       q    Type
REMARK                         _______ _______ _______ _____ _____    ______ ____
ROOT
ATOM      1  C   UNL     1       3.303   5.109  18.004  0.00  0.00    +0.000 A 
ATOM      2  N   UNL     1       2.839   6.328  18.274  0.00  0.00    +0.000 NA
ATOM      3  C   UNL     1       3.440   7.335  17.654  0.00  0.00    +0.000 A 
ATOM      4  N   UNL     1       3.046   8.642  17.943  0.00  0.00    +0.000 N 
ATOM      5  N   UNL     1       4.439   7.177  16.793  0.00  0.00    +0.000 NA
ATOM      6  C   UNL     1       4.816   5.925  16.554  0.00  0.00    +0.000 A 
ATOM      7  N   UNL     1       5.856   5.775  15.647  0.00  0.00    +0.000 N 
ATOM      8  N   UNL     1       4.275   4.861  17.126  0.00  0.00    +0.000 NA
ATOM      9  H   UNL     1       3.601   9.305  17.419  0.00  0.00    +0.000 HD
ATOM     10  H   UNL     1       5.941   6.652  15.145  0.00  0.00    +0.000 HD
ENDROOT
BRANCH   1  17
ATOM     11  N   UNL     1       2.200   3.196  22.219  0.00  0.00    +0.000 N 
ATOM     12  C   UNL     1       2.183   3.064  20.834  0.00  0.00    +0.000 A 
ATOM     13  C   UNL     1       1.745   1.885  20.251  0.00  0.00    +0.000 A 
ATOM     14  C   UNL     1       1.781   1.768  18.868  0.00  0.00    +0.000 A 
ATOM     15  C   UNL     1       2.271   2.822  18.111  0.00  0.00    +0.000 A 
ATOM     16  F   UNL     1       2.333   2.678  16.780  0.00  0.00    +0.000 F 
ATOM     17  C   UNL     1       2.715   3.978  18.751  0.00  0.00    +0.000 A 
ATOM     18  N   UNL     1       2.661   4.096  20.118  0.00  0.00    +0.000 NA
ATOM     19  H   UNL     1       1.307   2.978  22.643  0.00  0.00    +0.000 HD
ATOM     20  H   UNL     1       2.509   4.143  22.437  0.00  0.00    +0.000 HD
ENDBRANCH   1  17
BRANCH   4  21
ATOM     21  C   UNL     1       1.785   9.098  18.361  0.00  0.00    +0.000 A 
ATOM     22  C   UNL     1       1.525   9.251  19.729  0.00  0.00    +0.000 A 
ATOM     23  C   UNL     1       0.269   9.679  20.162  0.00  0.00    +0.000 A 
ATOM     24  F   UNL     1       0.032   9.797  21.476  0.00  0.00    +0.000 F 
ATOM     25  C   UNL     1      -0.740   9.984  19.262  0.00  0.00    +0.000 A 
ATOM     26  C   UNL     1      -0.481   9.840  17.908  0.00  0.00    +0.000 A 
ATOM     27  F   UNL     1      -1.436  10.141  17.018  0.00  0.00    +0.000 F 
ATOM     28  C   UNL     1       0.757   9.393  17.455  0.00  0.00    +0.000 A 
ENDBRANCH   4  21
BRANCH   7  29
ATOM     29  C   UNL     1       5.882   4.556  14.854  0.00  0.00    +0.000 C 
ATOM     30  C   UNL     1       4.787   4.604  13.783  0.00  0.00    +0.000 C 
ATOM     31  C   UNL     1       5.302   3.673  12.703  0.00  0.00    +0.000 C 
ATOM     32  C   UNL     1       6.785   3.979  12.674  0.00  0.00    +0.000 C 
ATOM     33  F   UNL     1       7.021   4.987  11.800  0.00  0.00    +0.000 F 
ATOM     34  F   UNL     1       7.488   2.909  12.250  0.00  0.00    +0.000 F 
ATOM     35  C   UNL     1       7.194   4.403  14.074  0.00  0.00    +0.000 C 
ENDBRANCH   7  29
TORSDOF 3
ENDMDL
MODEL 7
REMARK VINA RESULT:      -8.6      4.671     10.876
REMARK  Name = 
REMARK  3 active torsions:
REMARK  status: ('A' for Active; 'I' for Inactive)
REMARK    1  A    between atoms: C_7  and  C_8
REMARK    2  A    between atoms: N_11  and  C_12
REMARK    3  A    between atoms: N_22  and  C_23
REMARK                            x       y       z     vdW  Elec       q    Type
REMARK                         _______ _______ _______ _____ _____    ______ ____
ROOT
ATOM      1  C   UNL     1       3.279   5.143  18.048  0.00  0.00    +0.000 A 
ATOM      2  N   UNL     1       2.803   6.357  18.316  0.00  0.00    +0.000 NA
ATOM      3  C   UNL     1       3.399   7.371  17.703  0.00  0.00    +0.000 A 
ATOM      4  N   UNL     1       2.992   8.674  17.992  0.00  0.00    +0.000 N 
ATOM      5  N   UNL     1       4.406   7.224  16.850  0.00  0.00    +0.000 NA
ATOM      6  C   UNL     1       4.796   5.976  16.611  0.00  0.00    +0.000 A 
ATOM      7  N   UNL     1       5.844   5.836  15.712  0.00  0.00    +0.000 N 
ATOM      8  N   UNL     1       4.260   4.905  17.177  0.00  0.00    +0.000 NA
ATOM      9  H   UNL     1       3.545   9.342  17.474  0.00  0.00    +0.000 HD
ATOM     10  H   UNL     1       5.926   6.715  15.212  0.00  0.00    +0.000 HD
ENDROOT
BRANCH   1  17
ATOM     11  N   UNL     1       2.191   3.197  22.251  0.00  0.00    +0.000 N 
ATOM     12  C   UNL     1       2.171   3.075  20.866  0.00  0.00    +0.000 A 
ATOM     13  C   UNL     1       1.734   1.899  20.275  0.00  0.00    +0.000 A 
ATOM     14  C   UNL     1       1.767   1.792  18.891  0.00  0.00    +0.000 A 
ATOM     15  C   UNL     1       2.253   2.853  18.140  0.00  0.00    +0.000 A 
ATOM     16  F   UNL     1       2.312   2.718  16.808  0.00  0.00    +0.000 F 
ATOM     17  C   UNL     1       2.695   4.005  18.788  0.00  0.00    +0.000 A 
ATOM     18  N   UNL     1       2.645   4.113  20.155  0.00  0.00    +0.000 NA
ATOM     19  H   UNL     1       1.299   2.974  22.675  0.00  0.00    +0.000 HD
ATOM     20  H   UNL     1       2.497   4.143  22.475  0.00  0.00    +0.000 HD
ENDBRANCH   1  17
BRANCH   4  21
ATOM     21  C   UNL     1       1.723   9.117  18.401  0.00  0.00    +0.000 A 
ATOM     22  C   UNL     1       0.730   9.349  17.441  0.00  0.00    +0.000 A 
ATOM     23  C   UNL     1      -0.528   9.813  17.828  0.00  0.00    +0.000 A 
ATOM     24  F   UNL     1      -1.457  10.052  16.892  0.00  0.00    +0.000 F 
ATOM     25  C   UNL     1      -0.836  10.035  19.161  0.00  0.00    +0.000 A 
ATOM     26  C   UNL     1       0.143   9.799  20.112  0.00  0.00    +0.000 A 
ATOM     27  F   UNL     1      -0.136   9.993  21.408  0.00  0.00    +0.000 F 
ATOM     28  C   UNL     1       1.411   9.357  19.746  0.00  0.00    +0.000 A 
ENDBRANCH   4  21
BRANCH   7  29
ATOM     29  C   UNL     1       5.887   4.619  14.917  0.00  0.00    +0.000 C 
ATOM     30  C   UNL     1       4.801   4.660  13.836  0.00  0.00    +0.000 C 
ATOM     31  C   UNL     1       5.333   3.736  12.759  0.00  0.00    +0.000 C 
ATOM     32  C   UNL     1       6.814   4.054  12.743  0.00  0.00    +0.000 C 
ATOM     33  F   UNL     1       7.050   5.066  11.874  0.00  0.00    +0.000 F 
ATOM     34  F   UNL     1       7.530   2.991  12.323  0.00  0.00    +0.000 F 
ATOM     35  C   UNL     1       7.207   4.479  14.148  0.00  0.00    +0.000 C 
ENDBRANCH   7  29
TORSDOF 3
ENDMDL
MODEL 8
REMARK VINA RESULT:      -8.5      3.930      5.810
REMARK  Name = 
REMARK  3 active torsions:
REMARK  status: ('A' for Active; 'I' for Inactive)
REMARK    1  A    between atoms: C_7  and  C_8
REMARK    2  A    between atoms: N_11  and  C_12
REMARK    3  A    between atoms: N_22  and  C_23
REMARK                            x       y       z     vdW  Elec       q    Type
REMARK                         _______ _______ _______ _____ _____    ______ ____
ROOT
ATOM      1  C   UNL     1       1.188  10.433  19.805  0.00  0.00    +0.000 A 
ATOM      2  N   UNL     1       1.524   9.270  19.250  0.00  0.00    +0.000 NA
ATOM      3  C   UNL     1       2.188   9.336  18.103  0.00  0.00    +0.000 A 
ATOM      4  N   UNL     1       2.511   8.154  17.436  0.00  0.00    +0.000 N 
ATOM      5  N   UNL     1       2.531  10.478  17.517  0.00  0.00    +0.000 NA
ATOM      6  C   UNL     1       2.189  11.591  18.157  0.00  0.00    +0.000 A 
ATOM      7  N   UNL     1       2.560  12.777  17.537  0.00  0.00    +0.000 N 
ATOM      8  N   UNL     1       1.526  11.621  19.303  0.00  0.00    +0.000 NA
ATOM      9  H   UNL     1       2.992   8.354  16.570  0.00  0.00    +0.000 HD
ATOM     10  H   UNL     1       3.261  12.542  16.843  0.00  0.00    +0.000 HD
ENDROOT
BRANCH   1  17
ATOM     11  N   UNL     1      -2.321  12.349  22.384  0.00  0.00    +0.000 N 
ATOM     12  C   UNL     1      -1.360  11.348  22.276  0.00  0.00    +0.000 A 
ATOM     13  C   UNL     1      -1.147  10.470  23.328  0.00  0.00    +0.000 A 
ATOM     14  C   UNL     1      -0.151   9.510  23.207  0.00  0.00    +0.000 A 
ATOM     15  C   UNL     1       0.614   9.468  22.051  0.00  0.00    +0.000 A 
ATOM     16  F   UNL     1       1.596   8.560  21.967  0.00  0.00    +0.000 F 
ATOM     17  C   UNL     1       0.368  10.388  21.032  0.00  0.00    +0.000 A 
ATOM     18  N   UNL     1      -0.629  11.324  21.149  0.00  0.00    +0.000 NA
ATOM     19  H   UNL     1      -3.230  11.990  22.650  0.00  0.00    +0.000 HD
ATOM     20  H   UNL     1      -2.350  12.848  21.496  0.00  0.00    +0.000 HD
ENDBRANCH   1  17
BRANCH   4  21
ATOM     21  C   UNL     1       2.747   6.883  17.986  0.00  0.00    +0.000 A 
ATOM     22  C   UNL     1       1.737   5.912  17.939  0.00  0.00    +0.000 A 
ATOM     23  C   UNL     1       1.947   4.652  18.502  0.00  0.00    +0.000 A 
ATOM     24  F   UNL     1       0.961   3.746  18.468  0.00  0.00    +0.000 F 
ATOM     25  C   UNL     1       3.153   4.320  19.098  0.00  0.00    +0.000 A 
ATOM     26  C   UNL     1       4.155   5.276  19.138  0.00  0.00    +0.000 A 
ATOM     27  F   UNL     1       5.334   4.973  19.696  0.00  0.00    +0.000 F 
ATOM     28  C   UNL     1       3.960   6.546  18.602  0.00  0.00    +0.000 A 
ENDBRANCH   4  21
BRANCH   7  29
ATOM     29  C   UNL     1       2.837  13.921  18.392  0.00  0.00    +0.000 C 
ATOM     30  C   UNL     1       4.252  14.446  18.124  0.00  0.00    +0.000 C 
ATOM     31  C   UNL     1       4.180  15.899  18.546  0.00  0.00    +0.000 C 
ATOM     32  C   UNL     1       2.813  16.326  18.053  0.00  0.00    +0.000 C 
ATOM     33  F   UNL     1       2.915  16.787  16.783  0.00  0.00    +0.000 F 
ATOM     34  F   UNL     1       2.323  17.333  18.805  0.00  0.00    +0.000 F 
ATOM     35  C   UNL     1       1.910  15.105  18.088  0.00  0.00    +0.000 C 
ENDBRANCH   7  29
TORSDOF 3
ENDMDL
MODEL 9
REMARK VINA RESULT:      -8.4      9.165     10.468
REMARK  Name = 
REMARK  3 active torsions:
REMARK  status: ('A' for Active; 'I' for Inactive)
REMARK    1  A    between atoms: C_7  and  C_8
REMARK    2  A    between atoms: N_11  and  C_12
REMARK    3  A    between atoms: N_22  and  C_23
REMARK                            x       y       z     vdW  Elec       q    Type
REMARK                         _______ _______ _______ _____ _____    ______ ____
ROOT
ATOM      1  C   UNL     1       6.833   5.321  16.763  0.00  0.00    +0.000 A 
ATOM      2  N   UNL     1       6.011   4.640  17.560  0.00  0.00    +0.000 NA
ATOM      3  C   UNL     1       6.061   4.940  18.851  0.00  0.00    +0.000 A 
ATOM      4  N   UNL     1       5.274   4.217  19.747  0.00  0.00    +0.000 N 
ATOM      5  N   UNL     1       6.860   5.872  19.358  0.00  0.00    +0.000 NA
ATOM      6  C   UNL     1       7.621   6.529  18.489  0.00  0.00    +0.000 A 
ATOM      7  N   UNL     1       8.445   7.505  19.032  0.00  0.00    +0.000 N 
ATOM      8  N   UNL     1       7.637   6.297  17.186  0.00  0.00    +0.000 NA
ATOM      9  H   UNL     1       5.429   4.535  20.694  0.00  0.00    +0.000 HD
ATOM     10  H   UNL     1       8.099   7.702  19.965  0.00  0.00    +0.000 HD
ENDROOT
BRANCH   1  17
ATOM     11  N   UNL     1       8.706   6.018  12.446  0.00  0.00    +0.000 N 
ATOM     12  C   UNL     1       7.804   5.305  13.228  0.00  0.00    +0.000 A 
ATOM     13  C   UNL     1       6.934   4.398  12.639  0.00  0.00    +0.000 A 
ATOM     14  C   UNL     1       6.015   3.734  13.441  0.00  0.00    +0.000 A 
ATOM     15  C   UNL     1       5.979   4.008  14.801  0.00  0.00    +0.000 A 
ATOM     16  F   UNL     1       5.061   3.386  15.553  0.00  0.00    +0.000 F 
ATOM     17  C   UNL     1       6.864   4.942  15.336  0.00  0.00    +0.000 A 
ATOM     18  N   UNL     1       7.783   5.584  14.543  0.00  0.00    +0.000 NA
ATOM     19  H   UNL     1       9.269   5.418  11.855  0.00  0.00    +0.000 HD
ATOM     20  H   UNL     1       9.275   6.587  13.070  0.00  0.00    +0.000 HD
ENDBRANCH   1  17
BRANCH   4  21
ATOM     21  C   UNL     1       4.040   3.588  19.509  0.00  0.00    +0.000 A 
ATOM     22  C   UNL     1       3.036   3.647  20.484  0.00  0.00    +0.000 A 
ATOM     23  C   UNL     1       1.813   3.007  20.274  0.00  0.00    +0.000 A 
ATOM     24  F   UNL     1       0.874   3.055  21.228  0.00  0.00    +0.000 F 
ATOM     25  C   UNL     1       1.551   2.320  19.099  0.00  0.00    +0.000 A 
ATOM     26  C   UNL     1       2.541   2.267  18.131  0.00  0.00    +0.000 A 
ATOM     27  F   UNL     1       2.306   1.621  16.982  0.00  0.00    +0.000 F 
ATOM     28  C   UNL     1       3.776   2.880  18.329  0.00  0.00    +0.000 A 
ENDBRANCH   4  21
BRANCH   7  29
ATOM     29  C   UNL     1       8.769   8.650  18.195  0.00  0.00    +0.000 C 
ATOM     30  C   UNL     1       7.498   9.449  17.885  0.00  0.00    +0.000 C 
ATOM     31  C   UNL     1       8.013  10.845  17.600  0.00  0.00    +0.000 C 
ATOM     32  C   UNL     1       9.111  11.016  18.629  0.00  0.00    +0.000 C 
ATOM     33  F   UNL     1       8.588  11.533  19.766  0.00  0.00    +0.000 F 
ATOM     34  F   UNL     1      10.049  11.881  18.192  0.00  0.00    +0.000 F 
ATOM     35  C   UNL     1       9.696   9.642  18.908  0.00  0.00    +0.000 C 
ENDBRANCH   7  29
TORSDOF 3
ENDMDL
