MODEL 1
REMARK VINA RESULT:      -6.2      0.000      0.000
REMARK  Name = 
REMARK  2 active torsions:
REMARK  status: ('A' for Active; 'I' for Inactive)
REMARK    1  A    between atoms: C_8  and  O_9
REMARK    2  A    between atoms: O_9  and  C_10
REMARK                            x       y       z     vdW  Elec       q    Type
REMARK                         _______ _______ _______ _____ _____    ______ ____
ROOT
ATOM      1  C   UNL     1       6.521   4.235  14.535  0.00  0.00    +0.000 C 
ATOM      2  C   UNL     1       6.536   4.360  15.864  0.00  0.00    +0.000 C 
ATOM      3  O   UNL     1       7.719   4.619  16.568  0.00  0.00    +0.000 OA
ATOM      4  C   UNL     1       7.388   4.710  17.900  0.00  0.00    +0.000 C 
ATOM      5  O   UNL     1       8.151   4.930  18.823  0.00  0.00    +0.000 OA
ATOM      6  C   UNL     1       5.952   4.492  18.025  0.00  0.00    +0.000 A 
ATOM      7  C   UNL     1       5.189   4.493  19.183  0.00  0.00    +0.000 A 
ATOM      8  C   UNL     1       3.822   4.255  19.053  0.00  0.00    +0.000 A 
ATOM      9  C   UNL     1       3.272   4.024  17.776  0.00  0.00    +0.000 A 
ATOM     10  C   UNL     1       4.071   4.030  16.623  0.00  0.00    +0.000 A 
ATOM     11  C   UNL     1       5.424   4.271  16.773  0.00  0.00    +0.000 A 
ENDROOT
BRANCH   8  12
ATOM     12  O   UNL     1       2.917   4.219  20.078  0.00  0.00    +0.000 OA
ATOM     13  C   UNL     1       2.158   5.403  20.303  0.00  0.00    +0.000 C 
ENDBRANCH   8  12
TORSDOF 1
ENDMDL
MODEL 2
REMARK VINA RESULT:      -6.1      1.325      2.719
REMARK  Name = 
REMARK  2 active torsions:
REMARK  status: ('A' for Active; 'I' for Inactive)
REMARK    1  A    between atoms: C_8  and  O_9
REMARK    2  A    between atoms: O_9  and  C_10
REMARK                            x       y       z     vdW  Elec       q    Type
REMARK                         _______ _______ _______ _____ _____    ______ ____
ROOT
ATOM      1  C   UNL     1       7.880   5.665  19.095  0.00  0.00    +0.000 C 
ATOM      2  C   UNL     1       7.100   5.151  18.141  0.00  0.00    +0.000 C 
ATOM      3  O   UNL     1       7.602   4.820  16.876  0.00  0.00    +0.000 OA
ATOM      4  C   UNL     1       6.557   4.302  16.147  0.00  0.00    +0.000 C 
ATOM      5  O   UNL     1       6.605   3.898  14.999  0.00  0.00    +0.000 OA
ATOM      6  C   UNL     1       5.367   4.319  16.987  0.00  0.00    +0.000 A 
ATOM      7  C   UNL     1       4.088   3.891  16.661  0.00  0.00    +0.000 A 
ATOM      8  C   UNL     1       3.101   4.012  17.637  0.00  0.00    +0.000 A 
ATOM      9  C   UNL     1       3.427   4.554  18.897  0.00  0.00    +0.000 A 
ATOM     10  C   UNL     1       4.730   4.976  19.196  0.00  0.00    +0.000 A 
ATOM     11  C   UNL     1       5.696   4.846  18.216  0.00  0.00    +0.000 A 
ENDROOT
BRANCH   8  12
ATOM     12  O   UNL     1       1.791   3.644  17.496  0.00  0.00    +0.000 OA
ATOM     13  C   UNL     1       1.256   2.784  18.499  0.00  0.00    +0.000 C 
ENDBRANCH   8  12
TORSDOF 1
ENDMDL
MODEL 3
REMARK VINA RESULT:      -6.1      1.495      1.793
REMARK  Name = 
REMARK  2 active torsions:
REMARK  status: ('A' for Active; 'I' for Inactive)
REMARK    1  A    between atoms: C_8  and  O_9
REMARK    2  A    between atoms: O_9  and  C_10
REMARK                            x       y       z     vdW  Elec       q    Type
REMARK                         _______ _______ _______ _____ _____    ______ ____
ROOT
ATOM      1  C   UNL     1       5.478   4.106  15.314  0.00  0.00    +0.000 C 
ATOM      2  C   UNL     1       5.290   4.252  16.628  0.00  0.00    +0.000 C 
ATOM      3  O   UNL     1       6.312   4.701  17.475  0.00  0.00    +0.000 OA
ATOM      4  C   UNL     1       5.791   4.760  18.746  0.00  0.00    +0.000 C 
ATOM      5  O   UNL     1       6.378   5.109  19.754  0.00  0.00    +0.000 OA
ATOM      6  C   UNL     1       4.402   4.324  18.686  0.00  0.00    +0.000 A 
ATOM      7  C   UNL     1       3.494   4.225  19.731  0.00  0.00    +0.000 A 
ATOM      8  C   UNL     1       2.211   3.776  19.427  0.00  0.00    +0.000 A 
ATOM      9  C   UNL     1       1.883   3.444  18.097  0.00  0.00    +0.000 A 
ATOM     10  C   UNL     1       2.823   3.556  17.063  0.00  0.00    +0.000 A 
ATOM     11  C   UNL     1       4.090   4.006  17.383  0.00  0.00    +0.000 A 
ENDROOT
BRANCH   8  12
ATOM     12  O   UNL     1       1.189   3.616  20.323  0.00  0.00    +0.000 OA
ATOM     13  C   UNL     1       1.443   2.765  21.437  0.00  0.00    +0.000 C 
ENDBRANCH   8  12
TORSDOF 1
ENDMDL
MODEL 4
REMARK VINA RESULT:      -6.0      3.890      5.398
REMARK  Name = 
REMARK  2 active torsions:
REMARK  status: ('A' for Active; 'I' for Inactive)
REMARK    1  A    between atoms: C_8  and  O_9
REMARK    2  A    between atoms: O_9  and  C_10
REMARK                            x       y       z     vdW  Elec       q    Type
REMARK                         _______ _______ _______ _____ _____    ______ ____
ROOT
ATOM      1  C   UNL     1       1.323   2.686  21.698  0.00  0.00    +0.000 C 
ATOM      2  C   UNL     1       1.649   3.082  20.465  0.00  0.00    +0.000 C 
ATOM      3  O   UNL     1       1.751   2.176  19.401  0.00  0.00    +0.000 OA
ATOM      4  C   UNL     1       2.077   2.901  18.279  0.00  0.00    +0.000 C 
ATOM      5  O   UNL     1       2.249   2.461  17.157  0.00  0.00    +0.000 OA
ATOM      6  C   UNL     1       2.187   4.303  18.662  0.00  0.00    +0.000 A 
ATOM      7  C   UNL     1       2.498   5.385  17.853  0.00  0.00    +0.000 A 
ATOM      8  C   UNL     1       2.548   6.643  18.451  0.00  0.00    +0.000 A 
ATOM      9  C   UNL     1       2.289   6.771  19.830  0.00  0.00    +0.000 A 
ATOM     10  C   UNL     1       1.976   5.656  20.622  0.00  0.00    +0.000 A 
ATOM     11  C   UNL     1       1.928   4.418  20.010  0.00  0.00    +0.000 A 
ENDROOT
BRANCH   8  12
ATOM     12  O   UNL     1       2.837   7.818  17.813  0.00  0.00    +0.000 OA
ATOM     13  C   UNL     1       1.859   8.851  17.902  0.00  0.00    +0.000 C 
ENDBRANCH   8  12
TORSDOF 1
ENDMDL
MODEL 5
REMARK VINA RESULT:      -6.0      1.753      2.879
REMARK  Name = 
REMARK  2 active torsions:
REMARK  status: ('A' for Active; 'I' for Inactive)
REMARK    1  A    between atoms: C_8  and  O_9
REMARK    2  A    between atoms: O_9  and  C_10
REMARK                            x       y       z     vdW  Elec       q    Type
REMARK                         _______ _______ _______ _____ _____    ______ ____
ROOT
ATOM      1  C   UNL     1       7.594   7.549  17.615  0.00  0.00    +0.000 C 
ATOM      2  C   UNL     1       6.982   6.532  17.003  0.00  0.00    +0.000 C 
ATOM      3  O   UNL     1       7.538   5.905  15.880  0.00  0.00    +0.000 OA
ATOM      4  C   UNL     1       6.679   4.896  15.511  0.00  0.00    +0.000 C 
ATOM      5  O   UNL     1       6.823   4.127  14.578  0.00  0.00    +0.000 OA
ATOM      6  C   UNL     1       5.550   4.904  16.433  0.00  0.00    +0.000 A 
ATOM      7  C   UNL     1       4.447   4.062  16.436  0.00  0.00    +0.000 A 
ATOM      8  C   UNL     1       3.485   4.266  17.423  0.00  0.00    +0.000 A 
ATOM      9  C   UNL     1       3.659   5.300  18.365  0.00  0.00    +0.000 A 
ATOM     10  C   UNL     1       4.786   6.134  18.336  0.00  0.00    +0.000 A 
ATOM     11  C   UNL     1       5.731   5.914  17.351  0.00  0.00    +0.000 A 
ENDROOT
BRANCH   8  12
ATOM     12  O   UNL     1       2.338   3.537  17.581  0.00  0.00    +0.000 OA
ATOM     13  C   UNL     1       2.494   2.139  17.809  0.00  0.00    +0.000 C 
ENDBRANCH   8  12
TORSDOF 1
ENDMDL
MODEL 6
REMARK VINA RESULT:      -5.9      1.152      1.152
REMARK  Name = 
REMARK  2 active torsions:
REMARK  status: ('A' for Active; 'I' for Inactive)
REMARK    1  A    between atoms: C_8  and  O_9
REMARK    2  A    between atoms: O_9  and  C_10
REMARK                            x       y       z     vdW  Elec       q    Type
REMARK                         _______ _______ _______ _____ _____    ______ ____
ROOT
ATOM      1  C   UNL     1       6.505   4.320  14.303  0.00  0.00    +0.000 C 
ATOM      2  C   UNL     1       6.482   4.860  15.523  0.00  0.00    +0.000 C 
ATOM      3  O   UNL     1       7.452   5.781  15.942  0.00  0.00    +0.000 OA
ATOM      4  C   UNL     1       7.131   6.155  17.226  0.00  0.00    +0.000 C 
ATOM      5  O   UNL     1       7.740   6.945  17.924  0.00  0.00    +0.000 OA
ATOM      6  C   UNL     1       5.925   5.436  17.618  0.00  0.00    +0.000 A 
ATOM      7  C   UNL     1       5.248   5.506  18.827  0.00  0.00    +0.000 A 
ATOM      8  C   UNL     1       4.110   4.714  18.973  0.00  0.00    +0.000 A 
ATOM      9  C   UNL     1       3.694   3.886  17.911  0.00  0.00    +0.000 A 
ATOM     10  C   UNL     1       4.400   3.840  16.700  0.00  0.00    +0.000 A 
ATOM     11  C   UNL     1       5.525   4.634  16.573  0.00  0.00    +0.000 A 
ENDROOT
BRANCH   8  12
ATOM     12  O   UNL     1       3.320   4.653  20.087  0.00  0.00    +0.000 OA
ATOM     13  C   UNL     1       2.559   3.461  20.268  0.00  0.00    +0.000 C 
ENDBRANCH   8  12
TORSDOF 1
ENDMDL
MODEL 7
REMARK VINA RESULT:      -5.9      2.032      4.195
REMARK  Name = 
REMARK  2 active torsions:
REMARK  status: ('A' for Active; 'I' for Inactive)
REMARK    1  A    between atoms: C_8  and  O_9
REMARK    2  A    between atoms: O_9  and  C_10
REMARK                            x       y       z     vdW  Elec       q    Type
REMARK                         _______ _______ _______ _____ _____    ______ ____
ROOT
ATOM      1  C   UNL     1       1.484   4.189  17.662  0.00  0.00    +0.000 C 
ATOM      2  C   UNL     1       2.699   4.030  18.191  0.00  0.00    +0.000 C 
ATOM      3  O   UNL     1       3.003   2.948  19.028  0.00  0.00    +0.000 OA
ATOM      4  C   UNL     1       4.328   3.066  19.380  0.00  0.00    +0.000 C 
ATOM      5  O   UNL     1       4.957   2.310  20.098  0.00  0.00    +0.000 OA
ATOM      6  C   UNL     1       4.859   4.266  18.745  0.00  0.00    +0.000 A 
ATOM      7  C   UNL     1       6.148   4.772  18.825  0.00  0.00    +0.000 A 
ATOM      8  C   UNL     1       6.422   5.947  18.129  0.00  0.00    +0.000 A 
ATOM      9  C   UNL     1       5.403   6.570  17.381  0.00  0.00    +0.000 A 
ATOM     10  C   UNL     1       4.109   6.033  17.320  0.00  0.00    +0.000 A 
ATOM     11  C   UNL     1       3.857   4.865  18.015  0.00  0.00    +0.000 A 
ENDROOT
BRANCH   8  12
ATOM     12  O   UNL     1       7.630   6.588  18.091  0.00  0.00    +0.000 OA
ATOM     13  C   UNL     1       7.647   7.887  17.506  0.00  0.00    +0.000 C 
ENDBRANCH   8  12
TORSDOF 1
ENDMDL
MODEL 8
REMARK VINA RESULT:      -5.9      1.989      4.867
REMARK  Name = 
REMARK  2 active torsions:
REMARK  status: ('A' for Active; 'I' for Inactive)
REMARK    1  A    between atoms: C_8  and  O_9
REMARK    2  A    between atoms: O_9  and  C_10
REMARK                            x       y       z     vdW  Elec       q    Type
REMARK                         _______ _______ _______ _____ _____    ______ ____
ROOT
ATOM      1  C   UNL     1       2.162   5.698  19.879  0.00  0.00    +0.000 C 
ATOM      2  C   UNL     1       2.826   4.904  19.035  0.00  0.00    +0.000 C 
ATOM      3  O   UNL     1       2.729   3.508  19.105  0.00  0.00    +0.000 OA
ATOM      4  C   UNL     1       3.508   2.996  18.094  0.00  0.00    +0.000 C 
ATOM      5  O   UNL     1       3.675   1.818  17.833  0.00  0.00    +0.000 OA
ATOM      6  C   UNL     1       4.113   4.112  17.379  0.00  0.00    +0.000 A 
ATOM      7  C   UNL     1       4.972   4.062  16.290  0.00  0.00    +0.000 A 
ATOM      8  C   UNL     1       5.428   5.273  15.774  0.00  0.00    +0.000 A 
ATOM      9  C   UNL     1       5.013   6.484  16.363  0.00  0.00    +0.000 A 
ATOM     10  C   UNL     1       4.143   6.502  17.463  0.00  0.00    +0.000 A 
ATOM     11  C   UNL     1       3.699   5.290  17.958  0.00  0.00    +0.000 A 
ENDROOT
BRANCH   8  12
ATOM     12  O   UNL     1       6.275   5.417  14.709  0.00  0.00    +0.000 OA
ATOM     13  C   UNL     1       6.498   4.261  13.907  0.00  0.00    +0.000 C 
ENDBRANCH   8  12
TORSDOF 1
ENDMDL
MODEL 9
REMARK VINA RESULT:      -5.9      2.205      4.393
REMARK  Name = 
REMARK  2 active torsions:
REMARK  status: ('A' for Active; 'I' for Inactive)
REMARK    1  A    between atoms: C_8  and  O_9
REMARK    2  A    between atoms: O_9  and  C_10
REMARK                            x       y       z     vdW  Elec       q    Type
REMARK                         _______ _______ _______ _____ _____    ______ ____
ROOT
ATOM      1  C   UNL     1       0.774   2.875  18.890  0.00  0.00    +0.000 C 
ATOM      2  C   UNL     1       2.085   3.006  19.107  0.00  0.00    +0.000 C 
ATOM      3  O   UNL     1       2.806   2.067  19.857  0.00  0.00    +0.000 OA
ATOM      4  C   UNL     1       4.118   2.480  19.872  0.00  0.00    +0.000 C 
ATOM      5  O   UNL     1       5.048   1.919  20.423  0.00  0.00    +0.000 OA
ATOM      6  C   UNL     1       4.211   3.719  19.111  0.00  0.00    +0.000 A 
ATOM      7  C   UNL     1       5.341   4.485  18.866  0.00  0.00    +0.000 A 
ATOM      8  C   UNL     1       5.181   5.643  18.108  0.00  0.00    +0.000 A 
ATOM      9  C   UNL     1       3.904   5.992  17.625  0.00  0.00    +0.000 A 
ATOM     10  C   UNL     1       2.780   5.196  17.890  0.00  0.00    +0.000 A 
ATOM     11  C   UNL     1       2.960   4.049  18.641  0.00  0.00    +0.000 A 
ENDROOT
BRANCH   8  12
ATOM     12  O   UNL     1       6.178   6.517  17.767  0.00  0.00    +0.000 OA
ATOM     13  C   UNL     1       7.484   6.218  18.250  0.00  0.00    +0.000 C 
ENDBRANCH   8  12
TORSDOF 1
ENDMDL
