MODEL 1
REMARK VINA RESULT:      -7.3      0.000      0.000
REMARK  Name = 
REMARK  7 active torsions:
REMARK  status: ('A' for Active; 'I' for Inactive)
REMARK    1  A    between atoms: C_2  and  C_3
REMARK    2  A    between atoms: C_3  and  N_4
REMARK    3  A    between atoms: C_5  and  C_6
REMARK    4  A    between atoms: C_8  and  C_9
REMARK    5  A    between atoms: N_13  and  C_14
REMARK    6  A    between atoms: C_17  and  C_18
REMARK    7  A    between atoms: C_23  and  C_24
REMARK                            x       y       z     vdW  Elec       q    Type
REMARK                         _______ _______ _______ _____ _____    ______ ____
ROOT
ATOM      1  C   UNL     1       2.658   6.541  19.360  0.00  0.00    +0.000 C 
ATOM      2  N   UNL     1       3.807   6.831  18.836  0.00  0.00    +0.000 NA
ATOM      3  N   UNL     1       4.502   5.887  18.093  0.00  0.00    +0.000 NA
ATOM      4  C   UNL     1       4.389   4.606  18.255  0.00  0.00    +0.000 C 
ATOM      5  N   UNL     1       5.083   3.679  17.517  0.00  0.00    +0.000 N 
ATOM      6  S   UNL     1       3.323   3.898  19.446  0.00  0.00    +0.000 S 
ATOM      7  C   UNL     1       2.043   5.169  19.324  0.00  0.00    +0.000 C 
ATOM      8  H   UNL     1       5.113   2.732  17.863  0.00  0.00    +0.000 HD
ENDROOT
BRANCH   1  13
ATOM      9  N   UNL     1       0.680   9.566  20.061  0.00  0.00    +0.000 N 
ATOM     10  C   UNL     1       0.526   8.884  21.253  0.00  0.00    +0.000 A 
ATOM     11  C   UNL     1      -0.354   9.303  22.377  0.00  0.00    +0.000 C 
ATOM     12  C   UNL     1       1.312   7.754  21.182  0.00  0.00    +0.000 A 
ATOM     13  C   UNL     1       1.887   7.674  19.885  0.00  0.00    +0.000 A 
ATOM     14  C   UNL     1       1.489   8.827  19.208  0.00  0.00    +0.000 A 
ATOM     15  C   UNL     1       1.784   9.285  17.813  0.00  0.00    +0.000 C 
BRANCH   9  16
ATOM     16  C   UNL     1       0.039  10.838  19.717  0.00  0.00    +0.000 C 
BRANCH  16  18
ATOM     17  C   UNL     1      -1.721  11.427  18.015  0.00  0.00    +0.000 C 
ATOM     18  C   UNL     1      -1.267  10.640  19.000  0.00  0.00    +0.000 C 
ENDBRANCH  16  18
ENDBRANCH   9  16
ENDBRANCH   1  13
BRANCH   5  19
ATOM     19  C   UNL     1       5.766   3.952  16.321  0.00  0.00    +0.000 A 
ATOM     20  C   UNL     1       7.018   4.576  16.351  0.00  0.00    +0.000 A 
ATOM     21  C   UNL     1       7.650   4.978  15.167  0.00  0.00    +0.000 A 
ATOM     22  C   UNL     1       7.044   4.757  13.925  0.00  0.00    +0.000 A 
ATOM     23  C   UNL     1       7.670   5.219  12.645  0.00  0.00    +0.000 C 
ATOM     24  C   UNL     1       5.807   4.114  13.885  0.00  0.00    +0.000 A 
ATOM     25  C   UNL     1       5.178   3.722  15.067  0.00  0.00    +0.000 A 
ENDBRANCH   5  19
TORSDOF 4
ENDMDL
MODEL 2
REMARK VINA RESULT:      -7.3      0.512      1.101
REMARK  Name = 
REMARK  7 active torsions:
REMARK  status: ('A' for Active; 'I' for Inactive)
REMARK    1  A    between atoms: C_2  and  C_3
REMARK    2  A    between atoms: C_3  and  N_4
REMARK    3  A    between atoms: C_5  and  C_6
REMARK    4  A    between atoms: C_8  and  C_9
REMARK    5  A    between atoms: N_13  and  C_14
REMARK    6  A    between atoms: C_17  and  C_18
REMARK    7  A    between atoms: C_23  and  C_24
REMARK                            x       y       z     vdW  Elec       q    Type
REMARK                         _______ _______ _______ _____ _____    ______ ____
ROOT
ATOM      1  C   UNL     1       2.788   6.642  19.205  0.00  0.00    +0.000 C 
ATOM      2  N   UNL     1       3.802   7.013  18.489  0.00  0.00    +0.000 NA
ATOM      3  N   UNL     1       4.499   6.091  17.721  0.00  0.00    +0.000 NA
ATOM      4  C   UNL     1       4.578   4.826  17.995  0.00  0.00    +0.000 C 
ATOM      5  N   UNL     1       5.272   3.921  17.231  0.00  0.00    +0.000 N 
ATOM      6  S   UNL     1       3.795   4.115  19.388  0.00  0.00    +0.000 S 
ATOM      7  C   UNL     1       2.358   5.210  19.369  0.00  0.00    +0.000 C 
ATOM      8  H   UNL     1       5.474   3.022  17.639  0.00  0.00    +0.000 HD
ENDROOT
BRANCH   1  13
ATOM      9  N   UNL     1       0.692   9.568  19.980  0.00  0.00    +0.000 N 
ATOM     10  C   UNL     1       0.501   8.813  21.121  0.00  0.00    +0.000 A 
ATOM     11  C   UNL     1      -0.444   9.142  22.223  0.00  0.00    +0.000 C 
ATOM     12  C   UNL     1       1.321   7.710  21.025  0.00  0.00    +0.000 A 
ATOM     13  C   UNL     1       1.960   7.722  19.755  0.00  0.00    +0.000 A 
ATOM     14  C   UNL     1       1.562   8.902  19.127  0.00  0.00    +0.000 A 
ATOM     15  C   UNL     1       1.911   9.450  17.778  0.00  0.00    +0.000 C 
BRANCH   9  16
ATOM     16  C   UNL     1       0.032  10.841  19.679  0.00  0.00    +0.000 C 
BRANCH  16  18
ATOM     17  C   UNL     1      -1.620  10.147  17.911  0.00  0.00    +0.000 C 
ATOM     18  C   UNL     1      -1.351  10.646  19.125  0.00  0.00    +0.000 C 
ENDBRANCH  16  18
ENDBRANCH   9  16
ENDBRANCH   1  13
BRANCH   5  19
ATOM     19  C   UNL     1       5.734   4.158  15.927  0.00  0.00    +0.000 A 
ATOM     20  C   UNL     1       5.004   3.697  14.825  0.00  0.00    +0.000 A 
ATOM     21  C   UNL     1       5.517   3.804  13.526  0.00  0.00    +0.000 A 
ATOM     22  C   UNL     1       6.772   4.382  13.300  0.00  0.00    +0.000 A 
ATOM     23  C   UNL     1       7.368   4.467  11.929  0.00  0.00    +0.000 C 
ATOM     24  C   UNL     1       7.495   4.865  14.389  0.00  0.00    +0.000 A 
ATOM     25  C   UNL     1       6.984   4.750  15.683  0.00  0.00    +0.000 A 
ENDBRANCH   5  19
TORSDOF 4
ENDMDL
MODEL 3
REMARK VINA RESULT:      -7.1      2.780      9.250
REMARK  Name = 
REMARK  7 active torsions:
REMARK  status: ('A' for Active; 'I' for Inactive)
REMARK    1  A    between atoms: C_2  and  C_3
REMARK    2  A    between atoms: C_3  and  N_4
REMARK    3  A    between atoms: C_5  and  C_6
REMARK    4  A    between atoms: C_8  and  C_9
REMARK    5  A    between atoms: N_13  and  C_14
REMARK    6  A    between atoms: C_17  and  C_18
REMARK    7  A    between atoms: C_23  and  C_24
REMARK                            x       y       z     vdW  Elec       q    Type
REMARK                         _______ _______ _______ _____ _____    ______ ____
ROOT
ATOM      1  C   UNL     1       2.110   7.926  18.969  0.00  0.00    +0.000 C 
ATOM      2  N   UNL     1       1.834   8.291  20.181  0.00  0.00    +0.000 NA
ATOM      3  N   UNL     1       1.080   9.431  20.421  0.00  0.00    +0.000 NA
ATOM      4  C   UNL     1       1.021  10.447  19.618  0.00  0.00    +0.000 C 
ATOM      5  N   UNL     1       0.273  11.572  19.864  0.00  0.00    +0.000 N 
ATOM      6  S   UNL     1       1.895  10.503  18.105  0.00  0.00    +0.000 S 
ATOM      7  C   UNL     1       1.761   8.736  17.751  0.00  0.00    +0.000 C 
ATOM      8  H   UNL     1       0.468  12.393  19.314  0.00  0.00    +0.000 HD
ENDROOT
BRANCH   1  13
ATOM      9  N   UNL     1       3.080   4.375  19.029  0.00  0.00    +0.000 N 
ATOM     10  C   UNL     1       3.676   4.778  17.849  0.00  0.00    +0.000 A 
ATOM     11  C   UNL     1       4.365   3.881  16.882  0.00  0.00    +0.000 C 
ATOM     12  C   UNL     1       3.486   6.139  17.739  0.00  0.00    +0.000 A 
ATOM     13  C   UNL     1       2.669   6.578  18.816  0.00  0.00    +0.000 A 
ATOM     14  C   UNL     1       2.441   5.459  19.617  0.00  0.00    +0.000 A 
ATOM     15  C   UNL     1       1.652   5.314  20.881  0.00  0.00    +0.000 C 
BRANCH   9  16
ATOM     16  C   UNL     1       3.062   3.006  19.552  0.00  0.00    +0.000 C 
BRANCH  16  18
ATOM     17  C   UNL     1       0.743   2.429  18.763  0.00  0.00    +0.000 C 
ATOM     18  C   UNL     1       2.049   2.145  18.852  0.00  0.00    +0.000 C 
ENDBRANCH  16  18
ENDBRANCH   9  16
ENDBRANCH   1  13
BRANCH   5  19
ATOM     19  C   UNL     1      -0.737  11.669  20.835  0.00  0.00    +0.000 A 
ATOM     20  C   UNL     1      -1.955  12.285  20.526  0.00  0.00    +0.000 A 
ATOM     21  C   UNL     1      -2.919  12.512  21.518  0.00  0.00    +0.000 A 
ATOM     22  C   UNL     1      -2.685  12.121  22.841  0.00  0.00    +0.000 A 
ATOM     23  C   UNL     1      -3.674  12.393  23.933  0.00  0.00    +0.000 C 
ATOM     24  C   UNL     1      -1.484  11.485  23.153  0.00  0.00    +0.000 A 
ATOM     25  C   UNL     1      -0.524  11.267  22.163  0.00  0.00    +0.000 A 
ENDBRANCH   5  19
TORSDOF 4
ENDMDL
MODEL 4
REMARK VINA RESULT:      -7.0      3.153      9.148
REMARK  Name = 
REMARK  7 active torsions:
REMARK  status: ('A' for Active; 'I' for Inactive)
REMARK    1  A    between atoms: C_2  and  C_3
REMARK    2  A    between atoms: C_3  and  N_4
REMARK    3  A    between atoms: C_5  and  C_6
REMARK    4  A    between atoms: C_8  and  C_9
REMARK    5  A    between atoms: N_13  and  C_14
REMARK    6  A    between atoms: C_17  and  C_18
REMARK    7  A    between atoms: C_23  and  C_24
REMARK                            x       y       z     vdW  Elec       q    Type
REMARK                         _______ _______ _______ _____ _____    ______ ____
ROOT
ATOM      1  C   UNL     1       1.843   7.833  19.591  0.00  0.00    +0.000 C 
ATOM      2  N   UNL     1       1.569   8.435  20.704  0.00  0.00    +0.000 NA
ATOM      3  N   UNL     1       0.932   9.668  20.702  0.00  0.00    +0.000 NA
ATOM      4  C   UNL     1       1.007  10.524  19.732  0.00  0.00    +0.000 C 
ATOM      5  N   UNL     1       0.376  11.744  19.739  0.00  0.00    +0.000 N 
ATOM      6  S   UNL     1       1.931  10.221  18.279  0.00  0.00    +0.000 S 
ATOM      7  C   UNL     1       1.621   8.441  18.233  0.00  0.00    +0.000 C 
ATOM      8  H   UNL     1       0.676  12.429  19.064  0.00  0.00    +0.000 HD
ENDROOT
BRANCH   1  13
ATOM      9  N   UNL     1       3.395   4.495  19.524  0.00  0.00    +0.000 N 
ATOM     10  C   UNL     1       2.493   4.331  20.557  0.00  0.00    +0.000 A 
ATOM     11  C   UNL     1       2.387   3.127  21.425  0.00  0.00    +0.000 C 
ATOM     12  C   UNL     1       1.747   5.487  20.636  0.00  0.00    +0.000 A 
ATOM     13  C   UNL     1       2.259   6.430  19.704  0.00  0.00    +0.000 A 
ATOM     14  C   UNL     1       3.280   5.780  19.010  0.00  0.00    +0.000 A 
ATOM     15  C   UNL     1       4.177   6.272  17.917  0.00  0.00    +0.000 C 
BRANCH   9  16
ATOM     16  C   UNL     1       4.371   3.497  19.076  0.00  0.00    +0.000 C 
BRANCH  16  18
ATOM     17  C   UNL     1       2.655   2.203  17.766  0.00  0.00    +0.000 C 
ATOM     18  C   UNL     1       3.884   2.723  17.884  0.00  0.00    +0.000 C 
ENDBRANCH  16  18
ENDBRANCH   9  16
ENDBRANCH   1  13
BRANCH   5  19
ATOM     19  C   UNL     1      -0.648  12.113  20.626  0.00  0.00    +0.000 A 
ATOM     20  C   UNL     1      -0.387  12.229  21.996  0.00  0.00    +0.000 A 
ATOM     21  C   UNL     1      -1.425  12.462  22.909  0.00  0.00    +0.000 A 
ATOM     22  C   UNL     1      -2.746  12.592  22.467  0.00  0.00    +0.000 A 
ATOM     23  C   UNL     1      -3.883  12.792  23.422  0.00  0.00    +0.000 C 
ATOM     24  C   UNL     1      -3.012  12.502  21.102  0.00  0.00    +0.000 A 
ATOM     25  C   UNL     1      -1.977  12.262  20.197  0.00  0.00    +0.000 A 
ENDBRANCH   5  19
TORSDOF 4
ENDMDL
MODEL 5
REMARK VINA RESULT:      -7.0      3.154      9.127
REMARK  Name = 
REMARK  7 active torsions:
REMARK  status: ('A' for Active; 'I' for Inactive)
REMARK    1  A    between atoms: C_2  and  C_3
REMARK    2  A    between atoms: C_3  and  N_4
REMARK    3  A    between atoms: C_5  and  C_6
REMARK    4  A    between atoms: C_8  and  C_9
REMARK    5  A    between atoms: N_13  and  C_14
REMARK    6  A    between atoms: C_17  and  C_18
REMARK    7  A    between atoms: C_23  and  C_24
REMARK                            x       y       z     vdW  Elec       q    Type
REMARK                         _______ _______ _______ _____ _____    ______ ____
ROOT
ATOM      1  C   UNL     1       1.874   7.548  19.555  0.00  0.00    +0.000 C 
ATOM      2  N   UNL     1       1.564   8.190  20.636  0.00  0.00    +0.000 NA
ATOM      3  N   UNL     1       0.947   9.431  20.568  0.00  0.00    +0.000 NA
ATOM      4  C   UNL     1       1.074  10.254  19.574  0.00  0.00    +0.000 C 
ATOM      5  N   UNL     1       0.461  11.481  19.515  0.00  0.00    +0.000 N 
ATOM      6  S   UNL     1       2.051   9.890  18.170  0.00  0.00    +0.000 S 
ATOM      7  C   UNL     1       1.717   8.114  18.170  0.00  0.00    +0.000 C 
ATOM      8  H   UNL     1       0.798  12.140  18.831  0.00  0.00    +0.000 HD
ENDROOT
BRANCH   1  13
ATOM      9  N   UNL     1       3.371   4.186  19.647  0.00  0.00    +0.000 N 
ATOM     10  C   UNL     1       2.448   4.077  20.670  0.00  0.00    +0.000 A 
ATOM     11  C   UNL     1       2.307   2.910  21.583  0.00  0.00    +0.000 C 
ATOM     12  C   UNL     1       1.721   5.248  20.690  0.00  0.00    +0.000 A 
ATOM     13  C   UNL     1       2.265   6.144  19.731  0.00  0.00    +0.000 A 
ATOM     14  C   UNL     1       3.286   5.451  19.081  0.00  0.00    +0.000 A 
ATOM     15  C   UNL     1       4.210   5.884  17.985  0.00  0.00    +0.000 C 
BRANCH   9  16
ATOM     16  C   UNL     1       4.337   3.155  19.257  0.00  0.00    +0.000 C 
BRANCH  16  18
ATOM     17  C   UNL     1       2.573   2.243  17.710  0.00  0.00    +0.000 C 
ATOM     18  C   UNL     1       3.716   2.094  18.393  0.00  0.00    +0.000 C 
ENDBRANCH  16  18
ENDBRANCH   9  16
ENDBRANCH   1  13
BRANCH   5  19
ATOM     19  C   UNL     1      -0.592  11.894  20.347  0.00  0.00    +0.000 A 
ATOM     20  C   UNL     1      -1.871  12.101  19.815  0.00  0.00    +0.000 A 
ATOM     21  C   UNL     1      -2.898  12.642  20.600  0.00  0.00    +0.000 A 
ATOM     22  C   UNL     1      -2.668  12.982  21.938  0.00  0.00    +0.000 A 
ATOM     23  C   UNL     1      -3.730  13.607  22.789  0.00  0.00    +0.000 C 
ATOM     24  C   UNL     1      -1.404  12.756  22.483  0.00  0.00    +0.000 A 
ATOM     25  C   UNL     1      -0.383  12.224  21.695  0.00  0.00    +0.000 A 
ENDBRANCH   5  19
TORSDOF 4
ENDMDL
MODEL 6
REMARK VINA RESULT:      -6.9      0.650      1.426
REMARK  Name = 
REMARK  7 active torsions:
REMARK  status: ('A' for Active; 'I' for Inactive)
REMARK    1  A    between atoms: C_2  and  C_3
REMARK    2  A    between atoms: C_3  and  N_4
REMARK    3  A    between atoms: C_5  and  C_6
REMARK    4  A    between atoms: C_8  and  C_9
REMARK    5  A    between atoms: N_13  and  C_14
REMARK    6  A    between atoms: C_17  and  C_18
REMARK    7  A    between atoms: C_23  and  C_24
REMARK                            x       y       z     vdW  Elec       q    Type
REMARK                         _______ _______ _______ _____ _____    ______ ____
ROOT
ATOM      1  C   UNL     1       2.672   6.731  19.421  0.00  0.00    +0.000 C 
ATOM      2  N   UNL     1       3.697   7.107  18.724  0.00  0.00    +0.000 NA
ATOM      3  N   UNL     1       4.415   6.188  17.972  0.00  0.00    +0.000 NA
ATOM      4  C   UNL     1       4.496   4.924  18.251  0.00  0.00    +0.000 C 
ATOM      5  N   UNL     1       5.211   4.022  17.502  0.00  0.00    +0.000 N 
ATOM      6  S   UNL     1       3.691   4.211  19.628  0.00  0.00    +0.000 S 
ATOM      7  C   UNL     1       2.247   5.297  19.580  0.00  0.00    +0.000 C 
ATOM      8  H   UNL     1       5.410   3.125  17.916  0.00  0.00    +0.000 HD
ENDROOT
BRANCH   1  13
ATOM      9  N   UNL     1       0.456   9.582  20.137  0.00  0.00    +0.000 N 
ATOM     10  C   UNL     1       0.436   8.937  21.359  0.00  0.00    +0.000 A 
ATOM     11  C   UNL     1      -0.415   9.315  22.520  0.00  0.00    +0.000 C 
ATOM     12  C   UNL     1       1.322   7.883  21.279  0.00  0.00    +0.000 A 
ATOM     13  C   UNL     1       1.827   7.807  19.953  0.00  0.00    +0.000 A 
ATOM     14  C   UNL     1       1.283   8.890  19.263  0.00  0.00    +0.000 A 
ATOM     15  C   UNL     1       1.453   9.319  17.838  0.00  0.00    +0.000 C 
BRANCH   9  16
ATOM     16  C   UNL     1      -0.322  10.775  19.790  0.00  0.00    +0.000 C 
BRANCH  16  18
ATOM     17  C   UNL     1       1.596  12.337  20.260  0.00  0.00    +0.000 C 
ATOM     18  C   UNL     1       0.294  12.032  20.338  0.00  0.00    +0.000 C 
ENDBRANCH  16  18
ENDBRANCH   9  16
ENDBRANCH   1  13
BRANCH   5  19
ATOM     19  C   UNL     1       5.697   4.259  16.206  0.00  0.00    +0.000 A 
ATOM     20  C   UNL     1       4.948   3.871  15.090  0.00  0.00    +0.000 A 
ATOM     21  C   UNL     1       5.477   3.976  13.796  0.00  0.00    +0.000 A 
ATOM     22  C   UNL     1       6.767   4.478  13.592  0.00  0.00    +0.000 A 
ATOM     23  C   UNL     1       7.378   4.556  12.228  0.00  0.00    +0.000 C 
ATOM     24  C   UNL     1       7.511   4.889  14.697  0.00  0.00    +0.000 A 
ATOM     25  C   UNL     1       6.983   4.776  15.984  0.00  0.00    +0.000 A 
ENDBRANCH   5  19
TORSDOF 4
ENDMDL
MODEL 7
REMARK VINA RESULT:      -6.9      3.150      8.837
REMARK  Name = 
REMARK  7 active torsions:
REMARK  status: ('A' for Active; 'I' for Inactive)
REMARK    1  A    between atoms: C_2  and  C_3
REMARK    2  A    between atoms: C_3  and  N_4
REMARK    3  A    between atoms: C_5  and  C_6
REMARK    4  A    between atoms: C_8  and  C_9
REMARK    5  A    between atoms: N_13  and  C_14
REMARK    6  A    between atoms: C_17  and  C_18
REMARK    7  A    between atoms: C_23  and  C_24
REMARK                            x       y       z     vdW  Elec       q    Type
REMARK                         _______ _______ _______ _____ _____    ______ ____
ROOT
ATOM      1  C   UNL     1       1.972   7.570  19.278  0.00  0.00    +0.000 C 
ATOM      2  N   UNL     1       1.491   8.286  20.244  0.00  0.00    +0.000 NA
ATOM      3  N   UNL     1       0.899   9.514  19.986  0.00  0.00    +0.000 NA
ATOM      4  C   UNL     1       1.192  10.265  18.971  0.00  0.00    +0.000 C 
ATOM      5  N   UNL     1       0.603  11.481  18.724  0.00  0.00    +0.000 N 
ATOM      6  S   UNL     1       2.386   9.809  17.778  0.00  0.00    +0.000 S 
ATOM      7  C   UNL     1       2.048   8.035  17.849  0.00  0.00    +0.000 C 
ATOM      8  H   UNL     1       1.052  12.091  18.060  0.00  0.00    +0.000 HD
ENDROOT
BRANCH   1  13
ATOM      9  N   UNL     1       3.397   4.218  19.811  0.00  0.00    +0.000 N 
ATOM     10  C   UNL     1       2.386   4.213  20.753  0.00  0.00    +0.000 A 
ATOM     11  C   UNL     1       2.145   3.137  21.753  0.00  0.00    +0.000 C 
ATOM     12  C   UNL     1       1.679   5.387  20.601  0.00  0.00    +0.000 A 
ATOM     13  C   UNL     1       2.322   6.186  19.616  0.00  0.00    +0.000 A 
ATOM     14  C   UNL     1       3.384   5.426  19.127  0.00  0.00    +0.000 A 
ATOM     15  C   UNL     1       4.409   5.748  18.083  0.00  0.00    +0.000 C 
BRANCH   9  16
ATOM     16  C   UNL     1       4.377   3.147  19.606  0.00  0.00    +0.000 C 
BRANCH  16  18
ATOM     17  C   UNL     1       2.943   2.152  17.792  0.00  0.00    +0.000 C 
ATOM     18  C   UNL     1       3.812   2.010  18.801  0.00  0.00    +0.000 C 
ENDBRANCH  16  18
ENDBRANCH   9  16
ENDBRANCH   1  13
BRANCH   5  19
ATOM     19  C   UNL     1      -0.571  11.944  19.339  0.00  0.00    +0.000 A 
ATOM     20  C   UNL     1      -0.530  12.466  20.637  0.00  0.00    +0.000 A 
ATOM     21  C   UNL     1      -1.709  12.805  21.314  0.00  0.00    +0.000 A 
ATOM     22  C   UNL     1      -2.956  12.634  20.702  0.00  0.00    +0.000 A 
ATOM     23  C   UNL     1      -4.236  12.941  21.417  0.00  0.00    +0.000 C 
ATOM     24  C   UNL     1      -3.005  12.138  19.400  0.00  0.00    +0.000 A 
ATOM     25  C   UNL     1      -1.829  11.795  18.732  0.00  0.00    +0.000 A 
ENDBRANCH   5  19
TORSDOF 4
ENDMDL
MODEL 8
REMARK VINA RESULT:      -6.9      2.711      8.388
REMARK  Name = 
REMARK  7 active torsions:
REMARK  status: ('A' for Active; 'I' for Inactive)
REMARK    1  A    between atoms: C_2  and  C_3
REMARK    2  A    between atoms: C_3  and  N_4
REMARK    3  A    between atoms: C_5  and  C_6
REMARK    4  A    between atoms: C_8  and  C_9
REMARK    5  A    between atoms: N_13  and  C_14
REMARK    6  A    between atoms: C_17  and  C_18
REMARK    7  A    between atoms: C_23  and  C_24
REMARK                            x       y       z     vdW  Elec       q    Type
REMARK                         _______ _______ _______ _____ _____    ______ ____
ROOT
ATOM      1  C   UNL     1       2.089   7.451  18.843  0.00  0.00    +0.000 C 
ATOM      2  N   UNL     1       1.719   8.420  18.066  0.00  0.00    +0.000 NA
ATOM      3  N   UNL     1       1.396   9.663  18.592  0.00  0.00    +0.000 NA
ATOM      4  C   UNL     1       0.946   9.850  19.793  0.00  0.00    +0.000 C 
ATOM      5  N   UNL     1       0.626  11.083  20.305  0.00  0.00    +0.000 N 
ATOM      6  S   UNL     1       0.695   8.536  20.920  0.00  0.00    +0.000 S 
ATOM      7  C   UNL     1       2.084   7.534  20.345  0.00  0.00    +0.000 C 
ATOM      8  H   UNL     1       0.071  11.111  21.146  0.00  0.00    +0.000 HD
ENDROOT
BRANCH   1  13
ATOM      9  N   UNL     1       4.093   4.833  17.207  0.00  0.00    +0.000 N 
ATOM     10  C   UNL     1       2.959   4.113  17.533  0.00  0.00    +0.000 A 
ATOM     11  C   UNL     1       2.788   2.646  17.350  0.00  0.00    +0.000 C 
ATOM     12  C   UNL     1       2.052   5.001  18.070  0.00  0.00    +0.000 A 
ATOM     13  C   UNL     1       2.667   6.278  18.177  0.00  0.00    +0.000 A 
ATOM     14  C   UNL     1       3.937   6.150  17.616  0.00  0.00    +0.000 A 
ATOM     15  C   UNL     1       5.033   7.158  17.453  0.00  0.00    +0.000 C 
BRANCH   9  16
ATOM     16  C   UNL     1       5.302   4.284  16.586  0.00  0.00    +0.000 C 
BRANCH  16  18
ATOM     17  C   UNL     1       6.263   4.009  14.275  0.00  0.00    +0.000 C 
ATOM     18  C   UNL     1       5.272   4.400  15.088  0.00  0.00    +0.000 C 
ENDBRANCH  16  18
ENDBRANCH   9  16
ENDBRANCH   1  13
BRANCH   5  19
ATOM     19  C   UNL     1       1.004  12.311  19.738  0.00  0.00    +0.000 A 
ATOM     20  C   UNL     1       2.249  12.874  20.039  0.00  0.00    +0.000 A 
ATOM     21  C   UNL     1       2.586  14.159  19.592  0.00  0.00    +0.000 A 
ATOM     22  C   UNL     1       1.683  14.906  18.827  0.00  0.00    +0.000 A 
ATOM     23  C   UNL     1       1.993  16.300  18.377  0.00  0.00    +0.000 C 
ATOM     24  C   UNL     1       0.449  14.344  18.503  0.00  0.00    +0.000 A 
ATOM     25  C   UNL     1       0.115  13.067  18.957  0.00  0.00    +0.000 A 
ENDBRANCH   5  19
TORSDOF 4
ENDMDL
MODEL 9
REMARK VINA RESULT:      -6.8      2.891      8.601
REMARK  Name = 
REMARK  7 active torsions:
REMARK  status: ('A' for Active; 'I' for Inactive)
REMARK    1  A    between atoms: C_2  and  C_3
REMARK    2  A    between atoms: C_3  and  N_4
REMARK    3  A    between atoms: C_5  and  C_6
REMARK    4  A    between atoms: C_8  and  C_9
REMARK    5  A    between atoms: N_13  and  C_14
REMARK    6  A    between atoms: C_17  and  C_18
REMARK    7  A    between atoms: C_23  and  C_24
REMARK                            x       y       z     vdW  Elec       q    Type
REMARK                         _______ _______ _______ _____ _____    ______ ____
ROOT
ATOM      1  C   UNL     1       1.846   7.971  19.596  0.00  0.00    +0.000 C 
ATOM      2  N   UNL     1       1.596   8.872  18.700  0.00  0.00    +0.000 NA
ATOM      3  N   UNL     1       1.127  10.125  19.069  0.00  0.00    +0.000 NA
ATOM      4  C   UNL     1       0.446  10.359  20.147  0.00  0.00    +0.000 C 
ATOM      5  N   UNL     1      -0.016  11.602  20.504  0.00  0.00    +0.000 N 
ATOM      6  S   UNL     1       0.035   9.102  21.291  0.00  0.00    +0.000 S 
ATOM      7  C   UNL     1       1.548   8.142  21.061  0.00  0.00    +0.000 C 
ATOM      8  H   UNL     1      -0.724  11.650  21.220  0.00  0.00    +0.000 HD
ENDROOT
BRANCH   1  13
ATOM      9  N   UNL     1       3.312   4.685  18.820  0.00  0.00    +0.000 N 
ATOM     10  C   UNL     1       3.824   5.439  17.782  0.00  0.00    +0.000 A 
ATOM     11  C   UNL     1       4.617   4.908  16.640  0.00  0.00    +0.000 C 
ATOM     12  C   UNL     1       3.441   6.746  17.997  0.00  0.00    +0.000 A 
ATOM     13  C   UNL     1       2.588   6.793  19.134  0.00  0.00    +0.000 A 
ATOM     14  C   UNL     1       2.537   5.494  19.639  0.00  0.00    +0.000 A 
ATOM     15  C   UNL     1       1.798   4.939  20.818  0.00  0.00    +0.000 C 
BRANCH   9  16
ATOM     16  C   UNL     1       3.499   3.242  18.999  0.00  0.00    +0.000 C 
BRANCH  16  18
ATOM     17  C   UNL     1       1.225   2.248  18.581  0.00  0.00    +0.000 C 
ATOM     18  C   UNL     1       2.500   2.439  18.215  0.00  0.00    +0.000 C 
ENDBRANCH  16  18
ENDBRANCH   9  16
ENDBRANCH   1  13
BRANCH   5  19
ATOM     19  C   UNL     1       0.415  12.812  19.938  0.00  0.00    +0.000 A 
ATOM     20  C   UNL     1       1.666  13.342  20.272  0.00  0.00    +0.000 A 
ATOM     21  C   UNL     1       2.053  14.612  19.824  0.00  0.00    +0.000 A 
ATOM     22  C   UNL     1       1.197  15.377  19.024  0.00  0.00    +0.000 A 
ATOM     23  C   UNL     1       1.561  16.757  18.569  0.00  0.00    +0.000 C 
ATOM     24  C   UNL     1      -0.042  14.847  18.666  0.00  0.00    +0.000 A 
ATOM     25  C   UNL     1      -0.426  13.584  19.121  0.00  0.00    +0.000 A 
ENDBRANCH   5  19
TORSDOF 4
ENDMDL
