MODEL 1
REMARK VINA RESULT:      -6.3      0.000      0.000
REMARK  Name = 
REMARK  6 active torsions:
REMARK  status: ('A' for Active; 'I' for Inactive)
REMARK    1  A    between atoms: C_1  and  O_2
REMARK    2  A    between atoms: O_2  and  C_3
REMARK    3  A    between atoms: C_6  and  C_7
REMARK    4  A    between atoms: C_12  and  C_13
REMARK    5  A    between atoms: C_16  and  O_17
REMARK    6  A    between atoms: O_17  and  C_18
REMARK                            x       y       z     vdW  Elec       q    Type
REMARK                         _______ _______ _______ _____ _____    ______ ____
ROOT
ATOM      1  C   UNL     1       1.499  12.613  19.986  0.00  0.00    +0.000 C 
ATOM      2  C   UNL     1       1.589  11.388  19.053  0.00  0.00    +0.000 C 
ATOM      3  C   UNL     1       0.621  10.313  19.467  0.00  0.00    +0.000 C 
ATOM      4  O   UNL     1       0.953   9.133  19.527  0.00  0.00    +0.000 OA
ATOM      5  C   UNL     1      -0.811  10.738  19.641  0.00  0.00    +0.000 C 
ATOM      6  C   UNL     1      -0.922  11.931  20.606  0.00  0.00    +0.000 C 
ATOM      7  C   UNL     1       0.045  13.134  20.229  0.00  0.00    +0.000 C 
ATOM      8  C   UNL     1      -0.470  13.816  18.973  0.00  0.00    +0.000 C 
ATOM      9  O   UNL     1      -0.467  13.265  17.869  0.00  0.00    +0.000 OA
ATOM     10  N   UNL     1      -1.040  15.048  19.103  0.00  0.00    +0.000 N 
ATOM     11  C   UNL     1      -1.202  15.733  20.264  0.00  0.00    +0.000 C 
ATOM     12  S   UNL     1      -2.024  17.174  20.300  0.00  0.00    +0.000 S 
ATOM     13  N   UNL     1      -0.644  15.207  21.377  0.00  0.00    +0.000 N 
ATOM     14  C   UNL     1       0.071  14.048  21.454  0.00  0.00    +0.000 C 
ATOM     15  O   UNL     1       0.635  13.744  22.506  0.00  0.00    +0.000 OA
ATOM     16  H   UNL     1      -1.427  15.458  18.259  0.00  0.00    +0.000 HD
ATOM     17  H   UNL     1      -0.721  15.742  22.242  0.00  0.00    +0.000 HD
ENDROOT
BRANCH   1  21
ATOM     18  C   UNL     1       4.719  15.302  18.882  0.00  0.00    +0.000 A 
ATOM     19  C   UNL     1       3.902  14.762  17.892  0.00  0.00    +0.000 A 
ATOM     20  C   UNL     1       2.793  13.982  18.231  0.00  0.00    +0.000 A 
ATOM     21  C   UNL     1       2.502  13.698  19.574  0.00  0.00    +0.000 A 
ATOM     22  C   UNL     1       3.250  14.360  20.559  0.00  0.00    +0.000 A 
ATOM     23  C   UNL     1       4.367  15.131  20.217  0.00  0.00    +0.000 A 
BRANCH  18  25
ATOM     24  C   UNL     1       6.852  15.084  17.889  0.00  0.00    +0.000 C 
ATOM     25  O   UNL     1       5.846  15.930  18.430  0.00  0.00    +0.000 OA
ENDBRANCH  18  25
ENDBRANCH   1  21
BRANCH   6  26
ATOM     26  C   UNL     1      -2.370  12.404  20.772  0.00  0.00    +0.000 A 
ATOM     27  C   UNL     1      -3.258  12.383  19.685  0.00  0.00    +0.000 A 
ATOM     28  C   UNL     1      -4.633  12.549  19.887  0.00  0.00    +0.000 A 
ATOM     29  C   UNL     1      -5.144  12.732  21.172  0.00  0.00    +0.000 A 
ATOM     30  C   UNL     1      -4.262  12.857  22.238  0.00  0.00    +0.000 A 
ATOM     31  C   UNL     1      -2.888  12.718  22.036  0.00  0.00    +0.000 A 
BRANCH  29  32
ATOM     32  O   UNL     1      -6.505  12.802  21.280  0.00  0.00    +0.000 OA
ATOM     33  C   UNL     1      -7.221  11.720  20.689  0.00  0.00    +0.000 C 
ENDBRANCH  29  32
ENDBRANCH   6  26
TORSDOF 4
ENDMDL
MODEL 2
REMARK VINA RESULT:      -6.3      0.735      1.132
REMARK  Name = 
REMARK  6 active torsions:
REMARK  status: ('A' for Active; 'I' for Inactive)
REMARK    1  A    between atoms: C_1  and  O_2
REMARK    2  A    between atoms: O_2  and  C_3
REMARK    3  A    between atoms: C_6  and  C_7
REMARK    4  A    between atoms: C_12  and  C_13
REMARK    5  A    between atoms: C_16  and  O_17
REMARK    6  A    between atoms: O_17  and  C_18
REMARK                            x       y       z     vdW  Elec       q    Type
REMARK                         _______ _______ _______ _____ _____    ______ ____
ROOT
ATOM      1  C   UNL     1       1.515  12.542  19.949  0.00  0.00    +0.000 C 
ATOM      2  C   UNL     1       1.575  11.317  19.014  0.00  0.00    +0.000 C 
ATOM      3  C   UNL     1       0.592  10.259  19.437  0.00  0.00    +0.000 C 
ATOM      4  O   UNL     1       0.904   9.073  19.493  0.00  0.00    +0.000 OA
ATOM      5  C   UNL     1      -0.831  10.708  19.624  0.00  0.00    +0.000 C 
ATOM      6  C   UNL     1      -0.912  11.902  20.590  0.00  0.00    +0.000 C 
ATOM      7  C   UNL     1       0.072  13.088  20.206  0.00  0.00    +0.000 C 
ATOM      8  C   UNL     1      -0.442  13.781  18.954  0.00  0.00    +0.000 C 
ATOM      9  O   UNL     1      -0.458  13.230  17.851  0.00  0.00    +0.000 OA
ATOM     10  N   UNL     1      -0.989  15.022  19.091  0.00  0.00    +0.000 N 
ATOM     11  C   UNL     1      -1.129  15.709  20.253  0.00  0.00    +0.000 C 
ATOM     12  S   UNL     1      -1.925  17.164  20.298  0.00  0.00    +0.000 S 
ATOM     13  N   UNL     1      -0.570  15.172  21.361  0.00  0.00    +0.000 N 
ATOM     14  C   UNL     1       0.126  14.002  21.430  0.00  0.00    +0.000 C 
ATOM     15  O   UNL     1       0.693  13.687  22.478  0.00  0.00    +0.000 OA
ATOM     16  H   UNL     1      -1.377  15.440  18.250  0.00  0.00    +0.000 HD
ATOM     17  H   UNL     1      -0.630  15.709  22.227  0.00  0.00    +0.000 HD
ENDROOT
BRANCH   1  21
ATOM     18  C   UNL     1       3.974  15.908  18.748  0.00  0.00    +0.000 A 
ATOM     19  C   UNL     1       3.990  15.481  20.073  0.00  0.00    +0.000 A 
ATOM     20  C   UNL     1       3.293  14.333  20.460  0.00  0.00    +0.000 A 
ATOM     21  C   UNL     1       2.532  13.610  19.528  0.00  0.00    +0.000 A 
ATOM     22  C   UNL     1       2.637  13.973  18.177  0.00  0.00    +0.000 A 
ATOM     23  C   UNL     1       3.326  15.129  17.793  0.00  0.00    +0.000 A 
BRANCH  18  25
ATOM     24  C   UNL     1       5.919  17.232  18.972  0.00  0.00    +0.000 C 
ATOM     25  O   UNL     1       4.577  17.113  18.516  0.00  0.00    +0.000 OA
ENDBRANCH  18  25
ENDBRANCH   1  21
BRANCH   6  26
ATOM     26  C   UNL     1      -2.350  12.400  20.770  0.00  0.00    +0.000 A 
ATOM     27  C   UNL     1      -3.246  12.402  19.689  0.00  0.00    +0.000 A 
ATOM     28  C   UNL     1      -4.617  12.591  19.903  0.00  0.00    +0.000 A 
ATOM     29  C   UNL     1      -5.114  12.777  21.192  0.00  0.00    +0.000 A 
ATOM     30  C   UNL     1      -4.223  12.880  22.252  0.00  0.00    +0.000 A 
ATOM     31  C   UNL     1      -2.853  12.717  22.040  0.00  0.00    +0.000 A 
BRANCH  29  32
ATOM     32  O   UNL     1      -6.473  12.871  21.311  0.00  0.00    +0.000 OA
ATOM     33  C   UNL     1      -6.971  12.880  22.647  0.00  0.00    +0.000 C 
ENDBRANCH  29  32
ENDBRANCH   6  26
TORSDOF 4
ENDMDL
MODEL 3
REMARK VINA RESULT:      -6.2      1.796      7.320
REMARK  Name = 
REMARK  6 active torsions:
REMARK  status: ('A' for Active; 'I' for Inactive)
REMARK    1  A    between atoms: C_1  and  O_2
REMARK    2  A    between atoms: O_2  and  C_3
REMARK    3  A    between atoms: C_6  and  C_7
REMARK    4  A    between atoms: C_12  and  C_13
REMARK    5  A    between atoms: C_16  and  O_17
REMARK    6  A    between atoms: O_17  and  C_18
REMARK                            x       y       z     vdW  Elec       q    Type
REMARK                         _______ _______ _______ _____ _____    ______ ____
ROOT
ATOM      1  C   UNL     1      -2.025  11.967  21.860  0.00  0.00    +0.000 C 
ATOM      2  C   UNL     1      -1.489  11.198  23.085  0.00  0.00    +0.000 C 
ATOM      3  C   UNL     1      -0.336  10.307  22.709  0.00  0.00    +0.000 C 
ATOM      4  O   UNL     1      -0.258   9.148  23.107  0.00  0.00    +0.000 OA
ATOM      5  C   UNL     1       0.794  10.960  21.962  0.00  0.00    +0.000 C 
ATOM      6  C   UNL     1       0.281  11.694  20.712  0.00  0.00    +0.000 C 
ATOM      7  C   UNL     1      -0.922  12.685  21.016  0.00  0.00    +0.000 C 
ATOM      8  C   UNL     1      -0.398  13.890  21.780  0.00  0.00    +0.000 C 
ATOM      9  O   UNL     1       0.030  13.809  22.934  0.00  0.00    +0.000 OA
ATOM     10  N   UNL     1      -0.317  15.080  21.119  0.00  0.00    +0.000 N 
ATOM     11  C   UNL     1      -0.657  15.296  19.823  0.00  0.00    +0.000 C 
ATOM     12  S   UNL     1      -0.394  16.768  19.103  0.00  0.00    +0.000 S 
ATOM     13  N   UNL     1      -1.241  14.275  19.156  0.00  0.00    +0.000 N 
ATOM     14  C   UNL     1      -1.526  13.040  19.657  0.00  0.00    +0.000 C 
ATOM     15  O   UNL     1      -2.175  12.239  18.982  0.00  0.00    +0.000 OA
ATOM     16  H   UNL     1       0.089  15.855  21.632  0.00  0.00    +0.000 HD
ATOM     17  H   UNL     1      -1.543  14.449  18.197  0.00  0.00    +0.000 HD
ENDROOT
BRANCH   1  21
ATOM     18  C   UNL     1      -5.600  14.044  23.171  0.00  0.00    +0.000 A 
ATOM     19  C   UNL     1      -4.408  14.215  23.871  0.00  0.00    +0.000 A 
ATOM     20  C   UNL     1      -3.221  13.644  23.404  0.00  0.00    +0.000 A 
ATOM     21  C   UNL     1      -3.213  12.858  22.242  0.00  0.00    +0.000 A 
ATOM     22  C   UNL     1      -4.389  12.810  21.478  0.00  0.00    +0.000 A 
ATOM     23  C   UNL     1      -5.580  13.372  21.953  0.00  0.00    +0.000 A 
BRANCH  18  25
ATOM     24  C   UNL     1      -7.641  13.556  24.259  0.00  0.00    +0.000 C 
ATOM     25  O   UNL     1      -6.716  14.531  23.793  0.00  0.00    +0.000 OA
ENDBRANCH  18  25
ENDBRANCH   1  21
BRANCH   6  26
ATOM     26  C   UNL     1       1.412  12.396  19.953  0.00  0.00    +0.000 A 
ATOM     27  C   UNL     1       1.451  12.376  18.550  0.00  0.00    +0.000 A 
ATOM     28  C   UNL     1       2.311  13.232  17.851  0.00  0.00    +0.000 A 
ATOM     29  C   UNL     1       3.138  14.121  18.536  0.00  0.00    +0.000 A 
ATOM     30  C   UNL     1       3.179  14.073  19.923  0.00  0.00    +0.000 A 
ATOM     31  C   UNL     1       2.342  13.203  20.624  0.00  0.00    +0.000 A 
BRANCH  29  32
ATOM     32  O   UNL     1       3.881  14.974  17.768  0.00  0.00    +0.000 OA
ATOM     33  C   UNL     1       5.287  14.934  17.998  0.00  0.00    +0.000 C 
ENDBRANCH  29  32
ENDBRANCH   6  26
TORSDOF 4
ENDMDL
MODEL 4
REMARK VINA RESULT:      -6.1      4.149      6.940
REMARK  Name = 
REMARK  6 active torsions:
REMARK  status: ('A' for Active; 'I' for Inactive)
REMARK    1  A    between atoms: C_1  and  O_2
REMARK    2  A    between atoms: O_2  and  C_3
REMARK    3  A    between atoms: C_6  and  C_7
REMARK    4  A    between atoms: C_12  and  C_13
REMARK    5  A    between atoms: C_16  and  O_17
REMARK    6  A    between atoms: O_17  and  C_18
REMARK                            x       y       z     vdW  Elec       q    Type
REMARK                         _______ _______ _______ _____ _____    ______ ____
ROOT
ATOM      1  C   UNL     1      -4.704  12.411  20.908  0.00  0.00    +0.000 C 
ATOM      2  C   UNL     1      -6.207  12.471  21.245  0.00  0.00    +0.000 C 
ATOM      3  C   UNL     1      -6.429  12.642  22.723  0.00  0.00    +0.000 C 
ATOM      4  O   UNL     1      -7.264  11.979  23.332  0.00  0.00    +0.000 OA
ATOM      5  C   UNL     1      -5.698  13.781  23.379  0.00  0.00    +0.000 C 
ATOM      6  C   UNL     1      -4.189  13.710  23.089  0.00  0.00    +0.000 C 
ATOM      7  C   UNL     1      -3.853  13.559  21.544  0.00  0.00    +0.000 C 
ATOM      8  C   UNL     1      -4.153  14.869  20.835  0.00  0.00    +0.000 C 
ATOM      9  O   UNL     1      -5.299  15.305  20.702  0.00  0.00    +0.000 OA
ATOM     10  N   UNL     1      -3.098  15.627  20.420  0.00  0.00    +0.000 N 
ATOM     11  C   UNL     1      -1.785  15.324  20.586  0.00  0.00    +0.000 C 
ATOM     12  S   UNL     1      -0.597  16.394  20.141  0.00  0.00    +0.000 S 
ATOM     13  N   UNL     1      -1.489  14.110  21.101  0.00  0.00    +0.000 N 
ATOM     14  C   UNL     1      -2.382  13.149  21.473  0.00  0.00    +0.000 C 
ATOM     15  O   UNL     1      -1.979  12.035  21.810  0.00  0.00    +0.000 OA
ATOM     16  H   UNL     1      -3.322  16.524  20.001  0.00  0.00    +0.000 HD
ATOM     17  H   UNL     1      -0.503  13.859  21.181  0.00  0.00    +0.000 HD
ENDROOT
BRANCH   1  21
ATOM     18  C   UNL     1      -4.179  11.331  16.739  0.00  0.00    +0.000 A 
ATOM     19  C   UNL     1      -5.355  11.957  17.146  0.00  0.00    +0.000 A 
ATOM     20  C   UNL     1      -5.500  12.413  18.459  0.00  0.00    +0.000 A 
ATOM     21  C   UNL     1      -4.481  12.215  19.402  0.00  0.00    +0.000 A 
ATOM     22  C   UNL     1      -3.255  11.709  18.943  0.00  0.00    +0.000 A 
ATOM     23  C   UNL     1      -3.115  11.243  17.632  0.00  0.00    +0.000 A 
BRANCH  18  25
ATOM     24  C   UNL     1      -2.941  10.448  14.930  0.00  0.00    +0.000 C 
ATOM     25  O   UNL     1      -4.203  10.809  15.476  0.00  0.00    +0.000 OA
ENDBRANCH  18  25
ENDBRANCH   1  21
BRANCH   6  26
ATOM     26  C   UNL     1      -3.426  14.880  23.719  0.00  0.00    +0.000 A 
ATOM     27  C   UNL     1      -4.040  16.134  23.870  0.00  0.00    +0.000 A 
ATOM     28  C   UNL     1      -3.458  17.116  24.681  0.00  0.00    +0.000 A 
ATOM     29  C   UNL     1      -2.263  16.864  25.354  0.00  0.00    +0.000 A 
ATOM     30  C   UNL     1      -1.600  15.665  25.127  0.00  0.00    +0.000 A 
ATOM     31  C   UNL     1      -2.164  14.693  24.299  0.00  0.00    +0.000 A 
BRANCH  29  32
ATOM     32  O   UNL     1      -1.815  17.851  26.186  0.00  0.00    +0.000 OA
ATOM     33  C   UNL     1      -0.631  17.543  26.918  0.00  0.00    +0.000 C 
ENDBRANCH  29  32
ENDBRANCH   6  26
TORSDOF 4
ENDMDL
MODEL 5
REMARK VINA RESULT:      -6.1      4.761      7.187
REMARK  Name = 
REMARK  6 active torsions:
REMARK  status: ('A' for Active; 'I' for Inactive)
REMARK    1  A    between atoms: C_1  and  O_2
REMARK    2  A    between atoms: O_2  and  C_3
REMARK    3  A    between atoms: C_6  and  C_7
REMARK    4  A    between atoms: C_12  and  C_13
REMARK    5  A    between atoms: C_16  and  O_17
REMARK    6  A    between atoms: O_17  and  C_18
REMARK                            x       y       z     vdW  Elec       q    Type
REMARK                         _______ _______ _______ _____ _____    ______ ____
ROOT
ATOM      1  C   UNL     1      -5.279  12.328  21.289  0.00  0.00    +0.000 C 
ATOM      2  C   UNL     1      -6.797  12.208  21.530  0.00  0.00    +0.000 C 
ATOM      3  C   UNL     1      -7.126  12.284  22.996  0.00  0.00    +0.000 C 
ATOM      4  O   UNL     1      -7.916  11.506  23.523  0.00  0.00    +0.000 OA
ATOM      5  C   UNL     1      -6.567  13.463  23.744  0.00  0.00    +0.000 C 
ATOM      6  C   UNL     1      -5.045  13.570  23.550  0.00  0.00    +0.000 C 
ATOM      7  C   UNL     1      -4.602  13.530  22.026  0.00  0.00    +0.000 C 
ATOM      8  C   UNL     1      -5.003  14.832  21.353  0.00  0.00    +0.000 C 
ATOM      9  O   UNL     1      -6.180  15.146  21.163  0.00  0.00    +0.000 OA
ATOM     10  N   UNL     1      -4.015  15.719  21.038  0.00  0.00    +0.000 N 
ATOM     11  C   UNL     1      -2.689  15.553  21.277  0.00  0.00    +0.000 C 
ATOM     12  S   UNL     1      -1.603  16.765  20.954  0.00  0.00    +0.000 S 
ATOM     13  N   UNL     1      -2.292  14.355  21.760  0.00  0.00    +0.000 N 
ATOM     14  C   UNL     1      -3.093  13.286  22.034  0.00  0.00    +0.000 C 
ATOM     15  O   UNL     1      -2.589  12.207  22.352  0.00  0.00    +0.000 OA
ATOM     16  H   UNL     1      -4.313  16.605  20.642  0.00  0.00    +0.000 HD
ATOM     17  H   UNL     1      -1.290  14.209  21.894  0.00  0.00    +0.000 HD
ENDROOT
BRANCH   1  21
ATOM     18  C   UNL     1      -4.402  11.512  17.120  0.00  0.00    +0.000 A 
ATOM     19  C   UNL     1      -5.650  12.018  17.475  0.00  0.00    +0.000 A 
ATOM     20  C   UNL     1      -5.916  12.392  18.796  0.00  0.00    +0.000 A 
ATOM     21  C   UNL     1      -4.946  12.229  19.795  0.00  0.00    +0.000 A 
ATOM     22  C   UNL     1      -3.655  11.848  19.397  0.00  0.00    +0.000 A 
ATOM     23  C   UNL     1      -3.393  11.464  18.077  0.00  0.00    +0.000 A 
BRANCH  18  25
ATOM     24  C   UNL     1      -3.011  10.614  15.433  0.00  0.00    +0.000 C 
ATOM     25  O   UNL     1      -4.302  11.055  15.836  0.00  0.00    +0.000 OA
ENDBRANCH  18  25
ENDBRANCH   1  21
BRANCH   6  26
ATOM     26  C   UNL     1      -4.457  14.785  24.276  0.00  0.00    +0.000 A 
ATOM     27  C   UNL     1      -3.197  14.710  24.889  0.00  0.00    +0.000 A 
ATOM     28  C   UNL     1      -2.541  15.874  25.310  0.00  0.00    +0.000 A 
ATOM     29  C   UNL     1      -3.126  17.125  25.121  0.00  0.00    +0.000 A 
ATOM     30  C   UNL     1      -4.415  17.198  24.609  0.00  0.00    +0.000 A 
ATOM     31  C   UNL     1      -5.083  16.038  24.213  0.00  0.00    +0.000 A 
BRANCH  29  32
ATOM     32  O   UNL     1      -2.375  18.207  25.487  0.00  0.00    +0.000 OA
ATOM     33  C   UNL     1      -1.378  18.605  24.549  0.00  0.00    +0.000 C 
ENDBRANCH  29  32
ENDBRANCH   6  26
TORSDOF 4
ENDMDL
MODEL 6
REMARK VINA RESULT:      -6.1      4.603      6.738
REMARK  Name = 
REMARK  6 active torsions:
REMARK  status: ('A' for Active; 'I' for Inactive)
REMARK    1  A    between atoms: C_1  and  O_2
REMARK    2  A    between atoms: O_2  and  C_3
REMARK    3  A    between atoms: C_6  and  C_7
REMARK    4  A    between atoms: C_12  and  C_13
REMARK    5  A    between atoms: C_16  and  O_17
REMARK    6  A    between atoms: O_17  and  C_18
REMARK                            x       y       z     vdW  Elec       q    Type
REMARK                         _______ _______ _______ _____ _____    ______ ____
ROOT
ATOM      1  C   UNL     1      -5.022  11.990  20.414  0.00  0.00    +0.000 C 
ATOM      2  C   UNL     1      -6.511  11.599  20.318  0.00  0.00    +0.000 C 
ATOM      3  C   UNL     1      -7.174  11.638  21.667  0.00  0.00    +0.000 C 
ATOM      4  O   UNL     1      -7.916  10.738  22.049  0.00  0.00    +0.000 OA
ATOM      5  C   UNL     1      -7.015  12.912  22.451  0.00  0.00    +0.000 C 
ATOM      6  C   UNL     1      -5.531  13.292  22.594  0.00  0.00    +0.000 C 
ATOM      7  C   UNL     1      -4.751  13.308  21.211  0.00  0.00    +0.000 C 
ATOM      8  C   UNL     1      -5.207  14.503  20.391  0.00  0.00    +0.000 C 
ATOM      9  O   UNL     1      -6.346  14.594  19.927  0.00  0.00    +0.000 OA
ATOM     10  N   UNL     1      -4.344  15.550  20.253  0.00  0.00    +0.000 N 
ATOM     11  C   UNL     1      -3.100  15.634  20.790  0.00  0.00    +0.000 C 
ATOM     12  S   UNL     1      -2.197  17.018  20.646  0.00  0.00    +0.000 S 
ATOM     13  N   UNL     1      -2.621  14.537  21.418  0.00  0.00    +0.000 N 
ATOM     14  C   UNL     1      -3.265  13.344  21.569  0.00  0.00    +0.000 C 
ATOM     15  O   UNL     1      -2.668  12.381  22.052  0.00  0.00    +0.000 OA
ATOM     16  H   UNL     1      -4.692  16.360  19.750  0.00  0.00    +0.000 HD
ATOM     17  H   UNL     1      -1.668  14.579  21.780  0.00  0.00    +0.000 HD
ENDROOT
BRANCH   1  21
ATOM     18  C   UNL     1      -3.059  11.281  16.611  0.00  0.00    +0.000 A 
ATOM     19  C   UNL     1      -4.435  11.492  16.647  0.00  0.00    +0.000 A 
ATOM     20  C   UNL     1      -5.072  11.831  17.845  0.00  0.00    +0.000 A 
ATOM     21  C   UNL     1      -4.343  11.929  19.040  0.00  0.00    +0.000 A 
ATOM     22  C   UNL     1      -2.945  11.848  18.960  0.00  0.00    +0.000 A 
ATOM     23  C   UNL     1      -2.310  11.497  17.764  0.00  0.00    +0.000 A 
BRANCH  18  25
ATOM     24  C   UNL     1      -3.524  10.233  14.544  0.00  0.00    +0.000 C 
ATOM     25  O   UNL     1      -2.571  10.823  15.419  0.00  0.00    +0.000 OA
ENDBRANCH  18  25
ENDBRANCH   1  21
BRANCH   6  26
ATOM     26  C   UNL     1      -5.346  14.607  23.360  0.00  0.00    +0.000 A 
ATOM     27  C   UNL     1      -4.208  14.816  24.155  0.00  0.00    +0.000 A 
ATOM     28  C   UNL     1      -3.900  16.096  24.631  0.00  0.00    +0.000 A 
ATOM     29  C   UNL     1      -4.714  17.184  24.319  0.00  0.00    +0.000 A 
ATOM     30  C   UNL     1      -5.895  16.965  23.621  0.00  0.00    +0.000 A 
ATOM     31  C   UNL     1      -6.220  15.686  23.167  0.00  0.00    +0.000 A 
BRANCH  29  32
ATOM     32  O   UNL     1      -4.289  18.406  24.758  0.00  0.00    +0.000 OA
ATOM     33  C   UNL     1      -3.106  18.392  25.554  0.00  0.00    +0.000 C 
ENDBRANCH  29  32
ENDBRANCH   6  26
TORSDOF 4
ENDMDL
MODEL 7
REMARK VINA RESULT:      -6.0      3.079      6.480
REMARK  Name = 
REMARK  6 active torsions:
REMARK  status: ('A' for Active; 'I' for Inactive)
REMARK    1  A    between atoms: C_1  and  O_2
REMARK    2  A    between atoms: O_2  and  C_3
REMARK    3  A    between atoms: C_6  and  C_7
REMARK    4  A    between atoms: C_12  and  C_13
REMARK    5  A    between atoms: C_16  and  O_17
REMARK    6  A    between atoms: O_17  and  C_18
REMARK                            x       y       z     vdW  Elec       q    Type
REMARK                         _______ _______ _______ _____ _____    ______ ____
ROOT
ATOM      1  C   UNL     1      -0.530  14.591  20.931  0.00  0.00    +0.000 C 
ATOM      2  C   UNL     1       0.789  15.379  21.059  0.00  0.00    +0.000 C 
ATOM      3  C   UNL     1       1.911  14.493  21.530  0.00  0.00    +0.000 C 
ATOM      4  O   UNL     1       2.690  14.850  22.410  0.00  0.00    +0.000 OA
ATOM      5  C   UNL     1       2.129  13.224  20.753  0.00  0.00    +0.000 C 
ATOM      6  C   UNL     1       0.831  12.405  20.656  0.00  0.00    +0.000 C 
ATOM      7  C   UNL     1      -0.408  13.251  20.135  0.00  0.00    +0.000 C 
ATOM      8  C   UNL     1      -0.224  13.551  18.657  0.00  0.00    +0.000 C 
ATOM      9  O   UNL     1       0.662  14.299  18.236  0.00  0.00    +0.000 OA
ATOM     10  N   UNL     1      -1.015  12.886  17.767  0.00  0.00    +0.000 N 
ATOM     11  C   UNL     1      -1.961  11.963  18.076  0.00  0.00    +0.000 C 
ATOM     12  S   UNL     1      -2.772  11.136  16.888  0.00  0.00    +0.000 S 
ATOM     13  N   UNL     1      -2.232  11.767  19.386  0.00  0.00    +0.000 N 
ATOM     14  C   UNL     1      -1.647  12.409  20.438  0.00  0.00    +0.000 C 
ATOM     15  O   UNL     1      -2.074  12.230  21.580  0.00  0.00    +0.000 OA
ATOM     16  H   UNL     1      -0.835  13.060  16.783  0.00  0.00    +0.000 HD
ATOM     17  H   UNL     1      -2.977  11.111  19.621  0.00  0.00    +0.000 HD
ENDROOT
BRANCH   1  21
ATOM     18  C   UNL     1      -3.711  17.423  20.104  0.00  0.00    +0.000 A 
ATOM     19  C   UNL     1      -2.467  17.586  19.498  0.00  0.00    +0.000 A 
ATOM     20  C   UNL     1      -1.464  16.627  19.662  0.00  0.00    +0.000 A 
ATOM     21  C   UNL     1      -1.676  15.501  20.471  0.00  0.00    +0.000 A 
ATOM     22  C   UNL     1      -2.973  15.283  20.960  0.00  0.00    +0.000 A 
ATOM     23  C   UNL     1      -3.973  16.249  20.804  0.00  0.00    +0.000 A 
BRANCH  18  25
ATOM     24  C   UNL     1      -5.943  18.164  19.873  0.00  0.00    +0.000 C 
ATOM     25  O   UNL     1      -4.562  18.485  19.984  0.00  0.00    +0.000 OA
ENDBRANCH  18  25
ENDBRANCH   1  21
BRANCH   6  26
ATOM     26  C   UNL     1       1.021  11.122  19.838  0.00  0.00    +0.000 A 
ATOM     27  C   UNL     1       1.664  11.159  18.591  0.00  0.00    +0.000 A 
ATOM     28  C   UNL     1       2.081   9.974  17.972  0.00  0.00    +0.000 A 
ATOM     29  C   UNL     1       1.869   8.740  18.587  0.00  0.00    +0.000 A 
ATOM     30  C   UNL     1       1.142   8.690  19.769  0.00  0.00    +0.000 A 
ATOM     31  C   UNL     1       0.702   9.868  20.377  0.00  0.00    +0.000 A 
BRANCH  29  32
ATOM     32  O   UNL     1       2.384   7.647  17.947  0.00  0.00    +0.000 OA
ATOM     33  C   UNL     1       2.699   6.539  18.788  0.00  0.00    +0.000 C 
ENDBRANCH  29  32
ENDBRANCH   6  26
TORSDOF 4
ENDMDL
MODEL 8
REMARK VINA RESULT:      -6.0      1.906      2.461
REMARK  Name = 
REMARK  6 active torsions:
REMARK  status: ('A' for Active; 'I' for Inactive)
REMARK    1  A    between atoms: C_1  and  O_2
REMARK    2  A    between atoms: O_2  and  C_3
REMARK    3  A    between atoms: C_6  and  C_7
REMARK    4  A    between atoms: C_12  and  C_13
REMARK    5  A    between atoms: C_16  and  O_17
REMARK    6  A    between atoms: O_17  and  C_18
REMARK                            x       y       z     vdW  Elec       q    Type
REMARK                         _______ _______ _______ _____ _____    ______ ____
ROOT
ATOM      1  C   UNL     1       0.824  12.718  21.416  0.00  0.00    +0.000 C 
ATOM      2  C   UNL     1       0.699  11.190  21.253  0.00  0.00    +0.000 C 
ATOM      3  C   UNL     1      -0.164  10.595  22.332  0.00  0.00    +0.000 C 
ATOM      4  O   UNL     1       0.163   9.574  22.932  0.00  0.00    +0.000 OA
ATOM      5  C   UNL     1      -1.520  11.216  22.519  0.00  0.00    +0.000 C 
ATOM      6  C   UNL     1      -1.409  12.736  22.728  0.00  0.00    +0.000 C 
ATOM      7  C   UNL     1      -0.538  13.460  21.615  0.00  0.00    +0.000 C 
ATOM      8  C   UNL     1      -1.309  13.473  20.305  0.00  0.00    +0.000 C 
ATOM      9  O   UNL     1      -1.551  12.445  19.667  0.00  0.00    +0.000 OA
ATOM     10  N   UNL     1      -1.827  14.661  19.881  0.00  0.00    +0.000 N 
ATOM     11  C   UNL     1      -1.727  15.850  20.526  0.00  0.00    +0.000 C 
ATOM     12  S   UNL     1      -2.510  17.199  19.961  0.00  0.00    +0.000 S 
ATOM     13  N   UNL     1      -0.945  15.894  21.627  0.00  0.00    +0.000 N 
ATOM     14  C   UNL     1      -0.238  14.856  22.160  0.00  0.00    +0.000 C 
ATOM     15  O   UNL     1       0.538  15.059  23.095  0.00  0.00    +0.000 OA
ATOM     16  H   UNL     1      -2.386  14.633  19.034  0.00  0.00    +0.000 HD
ATOM     17  H   UNL     1      -0.827  16.797  22.087  0.00  0.00    +0.000 HD
ENDROOT
BRANCH   1  21
ATOM     18  C   UNL     1       2.905  14.620  18.119  0.00  0.00    +0.000 A 
ATOM     19  C   UNL     1       2.935  15.206  19.382  0.00  0.00    +0.000 A 
ATOM     20  C   UNL     1       2.366  14.556  20.481  0.00  0.00    +0.000 A 
ATOM     21  C   UNL     1       1.721  13.320  20.327  0.00  0.00    +0.000 A 
ATOM     22  C   UNL     1       1.821  12.682  19.081  0.00  0.00    +0.000 A 
ATOM     23  C   UNL     1       2.380  13.338  17.979  0.00  0.00    +0.000 A 
BRANCH  18  25
ATOM     24  C   UNL     1       2.958  16.766  17.131  0.00  0.00    +0.000 C 
ATOM     25  O   UNL     1       3.370  15.405  17.101  0.00  0.00    +0.000 OA
ENDBRANCH  18  25
ENDBRANCH   1  21
BRANCH   6  26
ATOM     26  C   UNL     1      -2.783  13.397  22.887  0.00  0.00    +0.000 A 
ATOM     27  C   UNL     1      -3.899  12.900  22.195  0.00  0.00    +0.000 A 
ATOM     28  C   UNL     1      -5.191  13.317  22.539  0.00  0.00    +0.000 A 
ATOM     29  C   UNL     1      -5.390  14.227  23.576  0.00  0.00    +0.000 A 
ATOM     30  C   UNL     1      -4.286  14.799  24.194  0.00  0.00    +0.000 A 
ATOM     31  C   UNL     1      -2.994  14.406  23.837  0.00  0.00    +0.000 A 
BRANCH  29  32
ATOM     32  O   UNL     1      -6.689  14.510  23.893  0.00  0.00    +0.000 OA
ATOM     33  C   UNL     1      -7.504  13.381  24.200  0.00  0.00    +0.000 C 
ENDBRANCH  29  32
ENDBRANCH   6  26
TORSDOF 4
ENDMDL
MODEL 9
REMARK VINA RESULT:      -6.0      1.747      2.093
REMARK  Name = 
REMARK  6 active torsions:
REMARK  status: ('A' for Active; 'I' for Inactive)
REMARK    1  A    between atoms: C_1  and  O_2
REMARK    2  A    between atoms: O_2  and  C_3
REMARK    3  A    between atoms: C_6  and  C_7
REMARK    4  A    between atoms: C_12  and  C_13
REMARK    5  A    between atoms: C_16  and  O_17
REMARK    6  A    between atoms: O_17  and  C_18
REMARK                            x       y       z     vdW  Elec       q    Type
REMARK                         _______ _______ _______ _____ _____    ______ ____
ROOT
ATOM      1  C   UNL     1       0.935  12.931  21.370  0.00  0.00    +0.000 C 
ATOM      2  C   UNL     1       0.868  11.403  21.174  0.00  0.00    +0.000 C 
ATOM      3  C   UNL     1       0.035  10.752  22.244  0.00  0.00    +0.000 C 
ATOM      4  O   UNL     1       0.404   9.732  22.820  0.00  0.00    +0.000 OA
ATOM      5  C   UNL     1      -1.344  11.316  22.450  0.00  0.00    +0.000 C 
ATOM      6  C   UNL     1      -1.290  12.834  22.692  0.00  0.00    +0.000 C 
ATOM      7  C   UNL     1      -0.454  13.615  21.591  0.00  0.00    +0.000 C 
ATOM      8  C   UNL     1      -1.230  13.627  20.285  0.00  0.00    +0.000 C 
ATOM      9  O   UNL     1      -1.435  12.604  19.626  0.00  0.00    +0.000 OA
ATOM     10  N   UNL     1      -1.797  14.802  19.889  0.00  0.00    +0.000 N 
ATOM     11  C   UNL     1      -1.739  15.981  20.560  0.00  0.00    +0.000 C 
ATOM     12  S   UNL     1      -2.576  17.311  20.027  0.00  0.00    +0.000 S 
ATOM     13  N   UNL     1      -0.954  16.031  21.658  0.00  0.00    +0.000 N 
ATOM     14  C   UNL     1      -0.205  15.010  22.166  0.00  0.00    +0.000 C 
ATOM     15  O   UNL     1       0.568  15.222  23.102  0.00  0.00    +0.000 OA
ATOM     16  H   UNL     1      -2.357  14.771  19.043  0.00  0.00    +0.000 HD
ATOM     17  H   UNL     1      -0.869  16.928  22.137  0.00  0.00    +0.000 HD
ENDROOT
BRANCH   1  21
ATOM     18  C   UNL     1       3.786  14.461  18.480  0.00  0.00    +0.000 A 
ATOM     19  C   UNL     1       2.786  13.584  18.065  0.00  0.00    +0.000 A 
ATOM     20  C   UNL     1       1.792  13.166  18.954  0.00  0.00    +0.000 A 
ATOM     21  C   UNL     1       1.803  13.591  20.291  0.00  0.00    +0.000 A 
ATOM     22  C   UNL     1       2.733  14.576  20.656  0.00  0.00    +0.000 A 
ATOM     23  C   UNL     1       3.734  14.985  19.768  0.00  0.00    +0.000 A 
BRANCH  18  25
ATOM     24  C   UNL     1       6.074  14.915  18.102  0.00  0.00    +0.000 C 
ATOM     25  O   UNL     1       4.776  14.691  17.566  0.00  0.00    +0.000 OA
ENDBRANCH  18  25
ENDBRANCH   1  21
BRANCH   6  26
ATOM     26  C   UNL     1      -2.688  13.438  22.870  0.00  0.00    +0.000 A 
ATOM     27  C   UNL     1      -3.797  12.875  22.221  0.00  0.00    +0.000 A 
ATOM     28  C   UNL     1      -5.098  13.243  22.588  0.00  0.00    +0.000 A 
ATOM     29  C   UNL     1      -5.311  14.170  23.608  0.00  0.00    +0.000 A 
ATOM     30  C   UNL     1      -4.218  14.806  24.182  0.00  0.00    +0.000 A 
ATOM     31  C   UNL     1      -2.920  14.461  23.800  0.00  0.00    +0.000 A 
BRANCH  29  32
ATOM     32  O   UNL     1      -6.613  14.404  23.952  0.00  0.00    +0.000 OA
ATOM     33  C   UNL     1      -7.418  13.240  24.124  0.00  0.00    +0.000 C 
ENDBRANCH  29  32
ENDBRANCH   6  26
TORSDOF 4
ENDMDL
