MODEL 1
REMARK VINA RESULT:      -9.3      0.000      0.000
REMARK  Name = 
REMARK  4 active torsions:
REMARK  status: ('A' for Active; 'I' for Inactive)
REMARK    1  A    between atoms: C_2  and  C_3
REMARK    2  A    between atoms: C_3  and  N_4
REMARK    3  A    between atoms: N_15  and  C_16
REMARK    4  A    between atoms: C_20  and  C_21
REMARK                            x       y       z     vdW  Elec       q    Type
REMARK                         _______ _______ _______ _____ _____    ______ ____
ROOT
ATOM      1  O   UNL     1       1.520   5.041  19.746  0.00  0.00    +0.000 OA
ATOM      2  C   UNL     1       2.673   5.443  19.611  0.00  0.00    +0.000 C 
ATOM      3  N   UNL     1       3.044   6.721  19.200  0.00  0.00    +0.000 N 
ATOM      4  H   UNL     1       3.971   6.821  18.788  0.00  0.00    +0.000 HD
ENDROOT
BRANCH   3   5
ATOM      5  C   UNL     1       2.169   7.827  19.084  0.00  0.00    +0.000 A 
ATOM      6  C   UNL     1       1.908   8.436  17.854  0.00  0.00    +0.000 A 
ATOM      7  C   UNL     1       1.091   9.558  17.774  0.00  0.00    +0.000 A 
ATOM      8  C   UNL     1       0.508  10.074  18.926  0.00  0.00    +0.000 A 
ATOM      9  C   UNL     1       0.676   9.441  20.165  0.00  0.00    +0.000 A 
ATOM     10  C   UNL     1       1.528   8.317  20.232  0.00  0.00    +0.000 A 
BRANCH   9  11
ATOM     11  C   UNL     1       0.025   9.952  21.381  0.00  0.00    +0.000 A 
ATOM     12  N   UNL     1       0.081   9.371  22.565  0.00  0.00    +0.000 NA
ATOM     13  N   UNL     1      -0.584  10.151  23.473  0.00  0.00    +0.000 NA
ATOM     14  C   UNL     1      -1.072  11.199  22.844  0.00  0.00    +0.000 A 
ATOM     15  N   UNL     1      -0.754  11.092  21.509  0.00  0.00    +0.000 N 
ATOM     16  C   UNL     1      -1.184  11.980  20.447  0.00  0.00    +0.000 C 
ATOM     17  C   UNL     1      -2.606  12.511  20.590  0.00  0.00    +0.000 C 
ATOM     18  C   UNL     1      -2.731  13.691  21.550  0.00  0.00    +0.000 C 
ATOM     19  C   UNL     1      -1.838  13.627  22.788  0.00  0.00    +0.000 C 
ATOM     20  C   UNL     1      -1.874  12.277  23.496  0.00  0.00    +0.000 C 
ENDBRANCH   9  11
ENDBRANCH   3   5
BRANCH   2  21
ATOM     21  C   UNL     1       3.846   4.490  19.795  0.00  0.00    +0.000 C 
BRANCH  21  22
ATOM     22  N   UNL     1       4.790   4.712  18.727  0.00  0.00    +0.000 N 
ATOM     23  C   UNL     1       6.085   5.099  18.887  0.00  0.00    +0.000 C 
ATOM     24  O   UNL     1       6.686   5.292  19.927  0.00  0.00    +0.000 OA
ATOM     25  N   UNL     1       6.642   5.254  17.635  0.00  0.00    +0.000 N 
ATOM     26  C   UNL     1       5.766   4.794  16.586  0.00  0.00    +0.000 C 
ATOM     27  C   UNL     1       5.519   5.825  15.483  0.00  0.00    +0.000 C 
ATOM     28  C   UNL     1       6.128   5.211  14.227  0.00  0.00    +0.000 C 
ATOM     29  C   UNL     1       5.985   3.713  14.440  0.00  0.00    +0.000 C 
ATOM     30  C   UNL     1       6.310   3.531  15.916  0.00  0.00    +0.000 C 
ATOM     31  C   UNL     1       4.502   4.506  17.411  0.00  0.00    +0.000 C 
ATOM     32  O   UNL     1       3.425   4.113  16.981  0.00  0.00    +0.000 OA
ATOM     33  H   UNL     1       7.633   5.436  17.545  0.00  0.00    +0.000 HD
ENDBRANCH  21  22
ENDBRANCH   2  21
TORSDOF 4
ENDMDL
MODEL 2
REMARK VINA RESULT:      -9.2      6.959      8.652
REMARK  Name = 
REMARK  4 active torsions:
REMARK  status: ('A' for Active; 'I' for Inactive)
REMARK    1  A    between atoms: C_2  and  C_3
REMARK    2  A    between atoms: C_3  and  N_4
REMARK    3  A    between atoms: N_15  and  C_16
REMARK    4  A    between atoms: C_20  and  C_21
REMARK                            x       y       z     vdW  Elec       q    Type
REMARK                         _______ _______ _______ _____ _____    ______ ____
ROOT
ATOM      1  O   UNL     1       8.285   7.244  18.858  0.00  0.00    +0.000 OA
ATOM      2  C   UNL     1       7.999   7.802  17.802  0.00  0.00    +0.000 C 
ATOM      3  N   UNL     1       8.102   9.169  17.553  0.00  0.00    +0.000 N 
ATOM      4  H   UNL     1       7.517   9.547  16.809  0.00  0.00    +0.000 HD
ENDROOT
BRANCH   3   5
ATOM      5  C   UNL     1       8.756  10.105  18.390  0.00  0.00    +0.000 A 
ATOM      6  C   UNL     1       9.047   9.822  19.727  0.00  0.00    +0.000 A 
ATOM      7  C   UNL     1       9.636  10.780  20.545  0.00  0.00    +0.000 A 
ATOM      8  C   UNL     1       9.960  12.029  20.027  0.00  0.00    +0.000 A 
ATOM      9  C   UNL     1       9.763  12.320  18.670  0.00  0.00    +0.000 A 
ATOM     10  C   UNL     1       9.141  11.346  17.860  0.00  0.00    +0.000 A 
BRANCH   9  11
ATOM     11  C   UNL     1      10.145  13.622  18.103  0.00  0.00    +0.000 A 
ATOM     12  N   UNL     1      11.001  13.789  17.112  0.00  0.00    +0.000 NA
ATOM     13  N   UNL     1      11.070  15.122  16.805  0.00  0.00    +0.000 NA
ATOM     14  C   UNL     1      10.276  15.779  17.623  0.00  0.00    +0.000 A 
ATOM     15  N   UNL     1       9.707  14.878  18.495  0.00  0.00    +0.000 N 
ATOM     16  C   UNL     1       8.850  15.193  19.621  0.00  0.00    +0.000 C 
ATOM     17  C   UNL     1       9.220  16.464  20.374  0.00  0.00    +0.000 C 
ATOM     18  C   UNL     1       8.720  17.744  19.710  0.00  0.00    +0.000 C 
ATOM     19  C   UNL     1       8.764  17.751  18.182  0.00  0.00    +0.000 C 
ATOM     20  C   UNL     1      10.090  17.261  17.611  0.00  0.00    +0.000 C 
ENDBRANCH   9  11
ENDBRANCH   3   5
BRANCH   2  21
ATOM     21  C   UNL     1       7.379   7.013  16.657  0.00  0.00    +0.000 C 
BRANCH  21  22
ATOM     22  N   UNL     1       6.580   5.949  17.213  0.00  0.00    +0.000 N 
ATOM     23  C   UNL     1       7.031   4.703  17.523  0.00  0.00    +0.000 C 
ATOM     24  O   UNL     1       8.165   4.270  17.426  0.00  0.00    +0.000 OA
ATOM     25  N   UNL     1       5.961   3.962  17.979  0.00  0.00    +0.000 N 
ATOM     26  C   UNL     1       4.777   4.765  18.157  0.00  0.00    +0.000 C 
ATOM     27  C   UNL     1       3.539   4.218  17.442  0.00  0.00    +0.000 C 
ATOM     28  C   UNL     1       2.565   3.862  18.561  0.00  0.00    +0.000 C 
ATOM     29  C   UNL     1       2.899   4.845  19.670  0.00  0.00    +0.000 C 
ATOM     30  C   UNL     1       4.419   4.916  19.636  0.00  0.00    +0.000 C 
ATOM     31  C   UNL     1       5.266   6.089  17.547  0.00  0.00    +0.000 C 
ATOM     32  O   UNL     1       4.614   7.118  17.420  0.00  0.00    +0.000 OA
ATOM     33  H   UNL     1       6.115   3.038  18.360  0.00  0.00    +0.000 HD
ENDBRANCH  21  22
ENDBRANCH   2  21
TORSDOF 4
ENDMDL
MODEL 3
REMARK VINA RESULT:      -9.1      2.787      9.068
REMARK  Name = 
REMARK  4 active torsions:
REMARK  status: ('A' for Active; 'I' for Inactive)
REMARK    1  A    between atoms: C_2  and  C_3
REMARK    2  A    between atoms: C_3  and  N_4
REMARK    3  A    between atoms: N_15  and  C_16
REMARK    4  A    between atoms: C_20  and  C_21
REMARK                            x       y       z     vdW  Elec       q    Type
REMARK                         _______ _______ _______ _____ _____    ______ ____
ROOT
ATOM      1  O   UNL     1       1.795   8.654  22.055  0.00  0.00    +0.000 OA
ATOM      2  C   UNL     1       1.040   8.578  21.088  0.00  0.00    +0.000 C 
ATOM      3  N   UNL     1       1.059   7.576  20.121  0.00  0.00    +0.000 N 
ATOM      4  H   UNL     1       0.656   7.804  19.213  0.00  0.00    +0.000 HD
ENDROOT
BRANCH   3   5
ATOM      5  C   UNL     1       1.796   6.370  20.208  0.00  0.00    +0.000 A 
ATOM      6  C   UNL     1       1.290   5.241  20.857  0.00  0.00    +0.000 A 
ATOM      7  C   UNL     1       2.056   4.088  20.980  0.00  0.00    +0.000 A 
ATOM      8  C   UNL     1       3.336   4.045  20.438  0.00  0.00    +0.000 A 
ATOM      9  C   UNL     1       3.846   5.127  19.706  0.00  0.00    +0.000 A 
ATOM     10  C   UNL     1       3.064   6.298  19.612  0.00  0.00    +0.000 A 
BRANCH   9  11
ATOM     11  C   UNL     1       5.180   5.073  19.090  0.00  0.00    +0.000 A 
ATOM     12  N   UNL     1       6.318   5.075  19.759  0.00  0.00    +0.000 NA
ATOM     13  N   UNL     1       7.354   4.955  18.871  0.00  0.00    +0.000 NA
ATOM     14  C   UNL     1       6.856   4.906  17.654  0.00  0.00    +0.000 A 
ATOM     15  N   UNL     1       5.487   5.027  17.738  0.00  0.00    +0.000 N 
ATOM     16  C   UNL     1       4.561   5.124  16.628  0.00  0.00    +0.000 C 
ATOM     17  C   UNL     1       5.069   5.925  15.435  0.00  0.00    +0.000 C 
ATOM     18  C   UNL     1       6.000   5.140  14.515  0.00  0.00    +0.000 C 
ATOM     19  C   UNL     1       6.954   4.173  15.216  0.00  0.00    +0.000 C 
ATOM     20  C   UNL     1       7.675   4.789  16.410  0.00  0.00    +0.000 C 
ENDBRANCH   9  11
ENDBRANCH   3   5
BRANCH   2  21
ATOM     21  C   UNL     1       0.041   9.690  20.803  0.00  0.00    +0.000 C 
BRANCH  21  22
ATOM     22  N   UNL     1       0.690  10.697  19.999  0.00  0.00    +0.000 N 
ATOM     23  C   UNL     1       1.101  10.534  18.713  0.00  0.00    +0.000 C 
ATOM     24  O   UNL     1       0.975   9.553  18.004  0.00  0.00    +0.000 OA
ATOM     25  N   UNL     1       1.719  11.700  18.311  0.00  0.00    +0.000 N 
ATOM     26  C   UNL     1       1.577  12.756  19.282  0.00  0.00    +0.000 C 
ATOM     27  C   UNL     1       2.899  13.403  19.700  0.00  0.00    +0.000 C 
ATOM     28  C   UNL     1       2.802  14.846  19.213  0.00  0.00    +0.000 C 
ATOM     29  C   UNL     1       1.316  15.155  19.267  0.00  0.00    +0.000 C 
ATOM     30  C   UNL     1       0.667  13.872  18.766  0.00  0.00    +0.000 C 
ATOM     31  C   UNL     1       0.923  11.969  20.429  0.00  0.00    +0.000 C 
ATOM     32  O   UNL     1       0.615  12.407  21.531  0.00  0.00    +0.000 OA
ATOM     33  H   UNL     1       2.001  11.814  17.346  0.00  0.00    +0.000 HD
ENDBRANCH  21  22
ENDBRANCH   2  21
TORSDOF 4
ENDMDL
MODEL 4
REMARK VINA RESULT:      -9.1      2.714      4.807
REMARK  Name = 
REMARK  4 active torsions:
REMARK  status: ('A' for Active; 'I' for Inactive)
REMARK    1  A    between atoms: C_2  and  C_3
REMARK    2  A    between atoms: C_3  and  N_4
REMARK    3  A    between atoms: N_15  and  C_16
REMARK    4  A    between atoms: C_20  and  C_21
REMARK                            x       y       z     vdW  Elec       q    Type
REMARK                         _______ _______ _______ _____ _____    ______ ____
ROOT
ATOM      1  O   UNL     1       5.944   6.849  16.037  0.00  0.00    +0.000 OA
ATOM      2  C   UNL     1       6.262   5.681  16.245  0.00  0.00    +0.000 C 
ATOM      3  N   UNL     1       5.619   4.807  17.118  0.00  0.00    +0.000 N 
ATOM      4  H   UNL     1       6.166   4.022  17.470  0.00  0.00    +0.000 HD
ENDROOT
BRANCH   3   5
ATOM      5  C   UNL     1       4.371   5.047  17.741  0.00  0.00    +0.000 A 
ATOM      6  C   UNL     1       3.596   4.010  18.266  0.00  0.00    +0.000 A 
ATOM      7  C   UNL     1       2.347   4.265  18.821  0.00  0.00    +0.000 A 
ATOM      8  C   UNL     1       1.865   5.568  18.872  0.00  0.00    +0.000 A 
ATOM      9  C   UNL     1       2.648   6.645  18.434  0.00  0.00    +0.000 A 
ATOM     10  C   UNL     1       3.904   6.366  17.852  0.00  0.00    +0.000 A 
BRANCH   9  11
ATOM     11  C   UNL     1       2.165   8.031  18.528  0.00  0.00    +0.000 A 
ATOM     12  N   UNL     1       2.297   8.939  17.578  0.00  0.00    +0.000 NA
ATOM     13  N   UNL     1       1.681  10.094  17.981  0.00  0.00    +0.000 NA
ATOM     14  C   UNL     1       1.192   9.906  19.188  0.00  0.00    +0.000 A 
ATOM     15  N   UNL     1       1.517   8.632  19.597  0.00  0.00    +0.000 N 
ATOM     16  C   UNL     1       1.261   8.053  20.900  0.00  0.00    +0.000 C 
ATOM     17  C   UNL     1       1.413   9.015  22.071  0.00  0.00    +0.000 C 
ATOM     18  C   UNL     1       0.200   9.913  22.296  0.00  0.00    +0.000 C 
ATOM     19  C   UNL     1      -0.500  10.399  21.027  0.00  0.00    +0.000 C 
ATOM     20  C   UNL     1       0.458  10.943  19.974  0.00  0.00    +0.000 C 
ENDBRANCH   9  11
ENDBRANCH   3   5
BRANCH   2  21
ATOM     21  C   UNL     1       7.515   5.099  15.604  0.00  0.00    +0.000 C 
BRANCH  21  22
ATOM     22  N   UNL     1       7.210   4.742  14.240  0.00  0.00    +0.000 N 
ATOM     23  C   UNL     1       7.807   5.266  13.135  0.00  0.00    +0.000 C 
ATOM     24  O   UNL     1       8.706   6.085  13.086  0.00  0.00    +0.000 OA
ATOM     25  N   UNL     1       7.208   4.712  12.023  0.00  0.00    +0.000 N 
ATOM     26  C   UNL     1       6.297   3.648  12.366  0.00  0.00    +0.000 C 
ATOM     27  C   UNL     1       4.895   3.813  11.776  0.00  0.00    +0.000 C 
ATOM     28  C   UNL     1       4.733   2.640  10.814  0.00  0.00    +0.000 C 
ATOM     29  C   UNL     1       5.593   1.544  11.419  0.00  0.00    +0.000 C 
ATOM     30  C   UNL     1       6.827   2.288  11.908  0.00  0.00    +0.000 C 
ATOM     31  C   UNL     1       6.306   3.781  13.897  0.00  0.00    +0.000 C 
ATOM     32  O   UNL     1       5.655   3.113  14.690  0.00  0.00    +0.000 OA
ATOM     33  H   UNL     1       7.587   4.898  11.103  0.00  0.00    +0.000 HD
ENDBRANCH  21  22
ENDBRANCH   2  21
TORSDOF 4
ENDMDL
MODEL 5
REMARK VINA RESULT:      -9.1      3.753      9.855
REMARK  Name = 
REMARK  4 active torsions:
REMARK  status: ('A' for Active; 'I' for Inactive)
REMARK    1  A    between atoms: C_2  and  C_3
REMARK    2  A    between atoms: C_3  and  N_4
REMARK    3  A    between atoms: N_15  and  C_16
REMARK    4  A    between atoms: C_20  and  C_21
REMARK                            x       y       z     vdW  Elec       q    Type
REMARK                         _______ _______ _______ _____ _____    ______ ____
ROOT
ATOM      1  O   UNL     1      -1.077   9.674  17.509  0.00  0.00    +0.000 OA
ATOM      2  C   UNL     1      -1.145  10.730  18.134  0.00  0.00    +0.000 C 
ATOM      3  N   UNL     1      -0.739  10.919  19.452  0.00  0.00    +0.000 N 
ATOM      4  H   UNL     1      -1.164  11.696  19.958  0.00  0.00    +0.000 HD
ENDROOT
BRANCH   3   5
ATOM      5  C   UNL     1       0.016   9.996  20.215  0.00  0.00    +0.000 A 
ATOM      6  C   UNL     1       0.041  10.038  21.612  0.00  0.00    +0.000 A 
ATOM      7  C   UNL     1       0.837   9.158  22.336  0.00  0.00    +0.000 A 
ATOM      8  C   UNL     1       1.605   8.210  21.670  0.00  0.00    +0.000 A 
ATOM      9  C   UNL     1       1.541   8.080  20.275  0.00  0.00    +0.000 A 
ATOM     10  C   UNL     1       0.747   8.998  19.554  0.00  0.00    +0.000 A 
BRANCH   9  11
ATOM     11  C   UNL     1       2.315   7.050  19.566  0.00  0.00    +0.000 A 
ATOM     12  N   UNL     1       3.162   7.290  18.582  0.00  0.00    +0.000 NA
ATOM     13  N   UNL     1       3.744   6.110  18.201  0.00  0.00    +0.000 NA
ATOM     14  C   UNL     1       3.238   5.141  18.932  0.00  0.00    +0.000 A 
ATOM     15  N   UNL     1       2.292   5.679  19.776  0.00  0.00    +0.000 N 
ATOM     16  C   UNL     1       1.424   4.948  20.677  0.00  0.00    +0.000 C 
ATOM     17  C   UNL     1       0.925   3.611  20.142  0.00  0.00    +0.000 C 
ATOM     18  C   UNL     1       1.933   2.474  20.283  0.00  0.00    +0.000 C 
ATOM     19  C   UNL     1       3.394   2.861  20.057  0.00  0.00    +0.000 C 
ATOM     20  C   UNL     1       3.614   3.701  18.804  0.00  0.00    +0.000 C 
ENDBRANCH   9  11
ENDBRANCH   3   5
BRANCH   2  21
ATOM     21  C   UNL     1      -1.809  11.951  17.512  0.00  0.00    +0.000 C 
BRANCH  21  22
ATOM     22  N   UNL     1      -3.236  11.747  17.511  0.00  0.00    +0.000 N 
ATOM     23  C   UNL     1      -3.967  11.287  16.459  0.00  0.00    +0.000 C 
ATOM     24  O   UNL     1      -3.567  10.940  15.364  0.00  0.00    +0.000 OA
ATOM     25  N   UNL     1      -5.294  11.280  16.832  0.00  0.00    +0.000 N 
ATOM     26  C   UNL     1      -5.470  11.572  18.232  0.00  0.00    +0.000 C 
ATOM     27  C   UNL     1      -6.455  12.709  18.513  0.00  0.00    +0.000 C 
ATOM     28  C   UNL     1      -7.609  12.054  19.266  0.00  0.00    +0.000 C 
ATOM     29  C   UNL     1      -6.957  10.901  20.011  0.00  0.00    +0.000 C 
ATOM     30  C   UNL     1      -5.959  10.345  19.004  0.00  0.00    +0.000 C 
ATOM     31  C   UNL     1      -4.027  11.945  18.604  0.00  0.00    +0.000 C 
ATOM     32  O   UNL     1      -3.628  12.314  19.702  0.00  0.00    +0.000 OA
ATOM     33  H   UNL     1      -5.987  10.869  16.219  0.00  0.00    +0.000 HD
ENDBRANCH  21  22
ENDBRANCH   2  21
TORSDOF 4
ENDMDL
MODEL 6
REMARK VINA RESULT:      -8.9      1.087      1.542
REMARK  Name = 
REMARK  4 active torsions:
REMARK  status: ('A' for Active; 'I' for Inactive)
REMARK    1  A    between atoms: C_2  and  C_3
REMARK    2  A    between atoms: C_3  and  N_4
REMARK    3  A    between atoms: N_15  and  C_16
REMARK    4  A    between atoms: C_20  and  C_21
REMARK                            x       y       z     vdW  Elec       q    Type
REMARK                         _______ _______ _______ _____ _____    ______ ____
ROOT
ATOM      1  O   UNL     1       1.328   5.163  19.652  0.00  0.00    +0.000 OA
ATOM      2  C   UNL     1       2.466   5.612  19.769  0.00  0.00    +0.000 C 
ATOM      3  N   UNL     1       2.848   6.928  19.523  0.00  0.00    +0.000 N 
ATOM      4  H   UNL     1       3.831   7.089  19.304  0.00  0.00    +0.000 HD
ENDROOT
BRANCH   3   5
ATOM      5  C   UNL     1       1.961   8.011  19.314  0.00  0.00    +0.000 A 
ATOM      6  C   UNL     1       1.692   8.509  18.036  0.00  0.00    +0.000 A 
ATOM      7  C   UNL     1       0.862   9.611  17.863  0.00  0.00    +0.000 A 
ATOM      8  C   UNL     1       0.276  10.218  18.967  0.00  0.00    +0.000 A 
ATOM      9  C   UNL     1       0.452   9.695  20.256  0.00  0.00    +0.000 A 
ATOM     10  C   UNL     1       1.317   8.591  20.418  0.00  0.00    +0.000 A 
BRANCH   9  11
ATOM     11  C   UNL     1      -0.202  10.303  21.425  0.00  0.00    +0.000 A 
ATOM     12  N   UNL     1      -0.416   9.685  22.572  0.00  0.00    +0.000 NA
ATOM     13  N   UNL     1      -0.988  10.567  23.450  0.00  0.00    +0.000 NA
ATOM     14  C   UNL     1      -1.151  11.720  22.835  0.00  0.00    +0.000 A 
ATOM     15  N   UNL     1      -0.714  11.587  21.537  0.00  0.00    +0.000 N 
ATOM     16  C   UNL     1      -0.807  12.584  20.490  0.00  0.00    +0.000 C 
ATOM     17  C   UNL     1      -2.079  13.423  20.514  0.00  0.00    +0.000 C 
ATOM     18  C   UNL     1      -2.045  14.568  21.522  0.00  0.00    +0.000 C 
ATOM     19  C   UNL     1      -1.338  14.260  22.842  0.00  0.00    +0.000 C 
ATOM     20  C   UNL     1      -1.759  12.932  23.461  0.00  0.00    +0.000 C 
ENDBRANCH   9  11
ENDBRANCH   3   5
BRANCH   2  21
ATOM     21  C   UNL     1       3.626   4.687  20.112  0.00  0.00    +0.000 C 
BRANCH  21  22
ATOM     22  N   UNL     1       4.231   4.234  18.883  0.00  0.00    +0.000 N 
ATOM     23  C   UNL     1       4.074   2.999  18.335  0.00  0.00    +0.000 C 
ATOM     24  O   UNL     1       3.390   2.079  18.743  0.00  0.00    +0.000 OA
ATOM     25  N   UNL     1       4.849   2.936  17.196  0.00  0.00    +0.000 N 
ATOM     26  C   UNL     1       5.417   4.215  16.850  0.00  0.00    +0.000 C 
ATOM     27  C   UNL     1       6.934   4.191  16.650  0.00  0.00    +0.000 C 
ATOM     28  C   UNL     1       7.143   4.533  15.178  0.00  0.00    +0.000 C 
ATOM     29  C   UNL     1       5.963   5.426  14.835  0.00  0.00    +0.000 C 
ATOM     30  C   UNL     1       4.798   4.774  15.567  0.00  0.00    +0.000 C 
ATOM     31  C   UNL     1       5.003   5.027  18.087  0.00  0.00    +0.000 C 
ATOM     32  O   UNL     1       5.273   6.200  18.313  0.00  0.00    +0.000 OA
ATOM     33  H   UNL     1       4.784   2.130  16.587  0.00  0.00    +0.000 HD
ENDBRANCH  21  22
ENDBRANCH   2  21
TORSDOF 4
ENDMDL
MODEL 7
REMARK VINA RESULT:      -8.8      2.888      9.209
REMARK  Name = 
REMARK  4 active torsions:
REMARK  status: ('A' for Active; 'I' for Inactive)
REMARK    1  A    between atoms: C_2  and  C_3
REMARK    2  A    between atoms: C_3  and  N_4
REMARK    3  A    between atoms: N_15  and  C_16
REMARK    4  A    between atoms: C_20  and  C_21
REMARK                            x       y       z     vdW  Elec       q    Type
REMARK                         _______ _______ _______ _____ _____    ______ ____
ROOT
ATOM      1  O   UNL     1      -0.239   8.668  21.533  0.00  0.00    +0.000 OA
ATOM      2  C   UNL     1       0.495   9.272  20.754  0.00  0.00    +0.000 C 
ATOM      3  N   UNL     1       1.622   8.745  20.128  0.00  0.00    +0.000 N 
ATOM      4  H   UNL     1       2.327   9.411  19.814  0.00  0.00    +0.000 HD
ENDROOT
BRANCH   3   5
ATOM      5  C   UNL     1       1.982   7.376  20.111  0.00  0.00    +0.000 A 
ATOM      6  C   UNL     1       1.128   6.382  20.594  0.00  0.00    +0.000 A 
ATOM      7  C   UNL     1       1.528   5.050  20.619  0.00  0.00    +0.000 A 
ATOM      8  C   UNL     1       2.784   4.695  20.143  0.00  0.00    +0.000 A 
ATOM      9  C   UNL     1       3.636   5.652  19.571  0.00  0.00    +0.000 A 
ATOM     10  C   UNL     1       3.224   7.002  19.575  0.00  0.00    +0.000 A 
BRANCH   9  11
ATOM     11  C   UNL     1       4.948   5.278  19.022  0.00  0.00    +0.000 A 
ATOM     12  N   UNL     1       6.023   5.028  19.747  0.00  0.00    +0.000 NA
ATOM     13  N   UNL     1       7.043   4.654  18.913  0.00  0.00    +0.000 NA
ATOM     14  C   UNL     1       6.604   4.698  17.673  0.00  0.00    +0.000 A 
ATOM     15  N   UNL     1       5.299   5.136  17.688  0.00  0.00    +0.000 N 
ATOM     16  C   UNL     1       4.473   5.423  16.532  0.00  0.00    +0.000 C 
ATOM     17  C   UNL     1       5.208   6.061  15.360  0.00  0.00    +0.000 C 
ATOM     18  C   UNL     1       5.973   5.064  14.494  0.00  0.00    +0.000 C 
ATOM     19  C   UNL     1       6.642   3.916  15.249  0.00  0.00    +0.000 C 
ATOM     20  C   UNL     1       7.430   4.371  16.472  0.00  0.00    +0.000 C 
ENDBRANCH   9  11
ENDBRANCH   3   5
BRANCH   2  21
ATOM     21  C   UNL     1       0.273  10.753  20.480  0.00  0.00    +0.000 C 
BRANCH  21  22
ATOM     22  N   UNL     1      -0.914  10.898  19.674  0.00  0.00    +0.000 N 
ATOM     23  C   UNL     1      -2.000  11.650  20.000  0.00  0.00    +0.000 C 
ATOM     24  O   UNL     1      -2.161  12.349  20.983  0.00  0.00    +0.000 OA
ATOM     25  N   UNL     1      -2.942  11.492  19.005  0.00  0.00    +0.000 N 
ATOM     26  C   UNL     1      -2.428  10.754  17.878  0.00  0.00    +0.000 C 
ATOM     27  C   UNL     1      -3.289   9.555  17.473  0.00  0.00    +0.000 C 
ATOM     28  C   UNL     1      -3.798   9.891  16.075  0.00  0.00    +0.000 C 
ATOM     29  C   UNL     1      -2.702  10.760  15.481  0.00  0.00    +0.000 C 
ATOM     30  C   UNL     1      -2.280  11.646  16.645  0.00  0.00    +0.000 C 
ATOM     31  C   UNL     1      -1.065  10.329  18.446  0.00  0.00    +0.000 C 
ATOM     32  O   UNL     1      -0.225   9.636  17.883  0.00  0.00    +0.000 OA
ATOM     33  H   UNL     1      -3.782  12.056  19.013  0.00  0.00    +0.000 HD
ENDBRANCH  21  22
ENDBRANCH   2  21
TORSDOF 4
ENDMDL
MODEL 8
REMARK VINA RESULT:      -8.8      6.422      7.832
REMARK  Name = 
REMARK  4 active torsions:
REMARK  status: ('A' for Active; 'I' for Inactive)
REMARK    1  A    between atoms: C_2  and  C_3
REMARK    2  A    between atoms: C_3  and  N_4
REMARK    3  A    between atoms: N_15  and  C_16
REMARK    4  A    between atoms: C_20  and  C_21
REMARK                            x       y       z     vdW  Elec       q    Type
REMARK                         _______ _______ _______ _____ _____    ______ ____
ROOT
ATOM      1  O   UNL     1       8.346   7.254  18.804  0.00  0.00    +0.000 OA
ATOM      2  C   UNL     1       8.005   7.822  17.769  0.00  0.00    +0.000 C 
ATOM      3  N   UNL     1       8.028   9.198  17.555  0.00  0.00    +0.000 N 
ATOM      4  H   UNL     1       7.406   9.562  16.834  0.00  0.00    +0.000 HD
ENDROOT
BRANCH   3   5
ATOM      5  C   UNL     1       8.649  10.147  18.402  0.00  0.00    +0.000 A 
ATOM      6  C   UNL     1       9.322   9.768  19.566  0.00  0.00    +0.000 A 
ATOM      7  C   UNL     1       9.873  10.724  20.412  0.00  0.00    +0.000 A 
ATOM      8  C   UNL     1       9.773  12.073  20.093  0.00  0.00    +0.000 A 
ATOM      9  C   UNL     1       9.181  12.488  18.891  0.00  0.00    +0.000 A 
ATOM     10  C   UNL     1       8.605  11.506  18.055  0.00  0.00    +0.000 A 
BRANCH   9  11
ATOM     11  C   UNL     1       9.112  13.910  18.522  0.00  0.00    +0.000 A 
ATOM     12  N   UNL     1       9.915  14.502  17.657  0.00  0.00    +0.000 NA
ATOM     13  N   UNL     1       9.526  15.807  17.514  0.00  0.00    +0.000 NA
ATOM     14  C   UNL     1       8.501  16.026  18.309  0.00  0.00    +0.000 A 
ATOM     15  N   UNL     1       8.233  14.868  19.004  0.00  0.00    +0.000 N 
ATOM     16  C   UNL     1       7.250  14.702  20.056  0.00  0.00    +0.000 C 
ATOM     17  C   UNL     1       7.097  15.900  20.986  0.00  0.00    +0.000 C 
ATOM     18  C   UNL     1       6.219  17.012  20.421  0.00  0.00    +0.000 C 
ATOM     19  C   UNL     1       6.355  17.256  18.918  0.00  0.00    +0.000 C 
ATOM     20  C   UNL     1       7.802  17.339  18.445  0.00  0.00    +0.000 C 
ENDBRANCH   9  11
ENDBRANCH   3   5
BRANCH   2  21
ATOM     21  C   UNL     1       7.403   7.029  16.618  0.00  0.00    +0.000 C 
BRANCH  21  22
ATOM     22  N   UNL     1       6.579   5.979  17.165  0.00  0.00    +0.000 N 
ATOM     23  C   UNL     1       7.004   4.723  17.471  0.00  0.00    +0.000 C 
ATOM     24  O   UNL     1       8.129   4.268  17.378  0.00  0.00    +0.000 OA
ATOM     25  N   UNL     1       5.917   4.002  17.919  0.00  0.00    +0.000 N 
ATOM     26  C   UNL     1       4.748   4.828  18.094  0.00  0.00    +0.000 C 
ATOM     27  C   UNL     1       3.503   4.309  17.371  0.00  0.00    +0.000 C 
ATOM     28  C   UNL     1       2.516   3.967  18.483  0.00  0.00    +0.000 C 
ATOM     29  C   UNL     1       2.865   4.938  19.599  0.00  0.00    +0.000 C 
ATOM     30  C   UNL     1       4.386   4.979  19.573  0.00  0.00    +0.000 C 
ATOM     31  C   UNL     1       5.267   6.144  17.493  0.00  0.00    +0.000 C 
ATOM     32  O   UNL     1       4.636   7.186  17.368  0.00  0.00    +0.000 OA
ATOM     33  H   UNL     1       6.050   3.073  18.296  0.00  0.00    +0.000 HD
ENDBRANCH  21  22
ENDBRANCH   2  21
TORSDOF 4
ENDMDL
MODEL 9
REMARK VINA RESULT:      -8.8      3.542     10.078
REMARK  Name = 
REMARK  4 active torsions:
REMARK  status: ('A' for Active; 'I' for Inactive)
REMARK    1  A    between atoms: C_2  and  C_3
REMARK    2  A    between atoms: C_3  and  N_4
REMARK    3  A    between atoms: N_15  and  C_16
REMARK    4  A    between atoms: C_20  and  C_21
REMARK                            x       y       z     vdW  Elec       q    Type
REMARK                         _______ _______ _______ _____ _____    ______ ____
ROOT
ATOM      1  O   UNL     1      -1.407  10.807  20.719  0.00  0.00    +0.000 OA
ATOM      2  C   UNL     1      -0.597  10.583  21.615  0.00  0.00    +0.000 C 
ATOM      3  N   UNL     1       0.561   9.820  21.491  0.00  0.00    +0.000 N 
ATOM      4  H   UNL     1       0.941   9.416  22.346  0.00  0.00    +0.000 HD
ENDROOT
BRANCH   3   5
ATOM      5  C   UNL     1       1.110   9.362  20.269  0.00  0.00    +0.000 A 
ATOM      6  C   UNL     1       1.021  10.110  19.093  0.00  0.00    +0.000 A 
ATOM      7  C   UNL     1       1.517   9.612  17.893  0.00  0.00    +0.000 A 
ATOM      8  C   UNL     1       2.124   8.362  17.860  0.00  0.00    +0.000 A 
ATOM      9  C   UNL     1       2.309   7.618  19.034  0.00  0.00    +0.000 A 
ATOM     10  C   UNL     1       1.778   8.128  20.239  0.00  0.00    +0.000 A 
BRANCH   9  11
ATOM     11  C   UNL     1       2.992   6.316  19.016  0.00  0.00    +0.000 A 
ATOM     12  N   UNL     1       4.079   6.047  18.317  0.00  0.00    +0.000 NA
ATOM     13  N   UNL     1       4.472   4.763  18.586  0.00  0.00    +0.000 NA
ATOM     14  C   UNL     1       3.613   4.233  19.430  0.00  0.00    +0.000 A 
ATOM     15  N   UNL     1       2.631   5.161  19.693  0.00  0.00    +0.000 N 
ATOM     16  C   UNL     1       1.439   4.952  20.491  0.00  0.00    +0.000 C 
ATOM     17  C   UNL     1       0.810   3.571  20.354  0.00  0.00    +0.000 C 
ATOM     18  C   UNL     1       1.491   2.495  21.195  0.00  0.00    +0.000 C 
ATOM     19  C   UNL     1       3.012   2.607  21.296  0.00  0.00    +0.000 C 
ATOM     20  C   UNL     1       3.696   2.836  19.953  0.00  0.00    +0.000 C 
ENDBRANCH   9  11
ENDBRANCH   3   5
BRANCH   2  21
ATOM     21  C   UNL     1      -0.867  11.066  23.034  0.00  0.00    +0.000 C 
BRANCH  21  22
ATOM     22  N   UNL     1      -1.453  12.383  22.967  0.00  0.00    +0.000 N 
ATOM     23  C   UNL     1      -2.749  12.684  23.249  0.00  0.00    +0.000 C 
ATOM     24  O   UNL     1      -3.627  11.934  23.631  0.00  0.00    +0.000 OA
ATOM     25  N   UNL     1      -2.934  14.031  23.020  0.00  0.00    +0.000 N 
ATOM     26  C   UNL     1      -1.694  14.713  22.743  0.00  0.00    +0.000 C 
ATOM     27  C   UNL     1      -1.708  15.534  21.451  0.00  0.00    +0.000 C 
ATOM     28  C   UNL     1      -1.544  16.981  21.902  0.00  0.00    +0.000 C 
ATOM     29  C   UNL     1      -0.727  16.881  23.179  0.00  0.00    +0.000 C 
ATOM     30  C   UNL     1      -1.310  15.661  23.880  0.00  0.00    +0.000 C 
ATOM     31  C   UNL     1      -0.746  13.506  22.658  0.00  0.00    +0.000 C 
ATOM     32  O   UNL     1       0.452  13.537  22.405  0.00  0.00    +0.000 OA
ATOM     33  H   UNL     1      -3.809  14.470  23.274  0.00  0.00    +0.000 HD
ENDBRANCH  21  22
ENDBRANCH   2  21
TORSDOF 4
ENDMDL
