MODEL 1
REMARK VINA RESULT:      -6.8      0.000      0.000
REMARK  Name = 
REMARK  15 active torsions:
REMARK  status: ('A' for Active; 'I' for Inactive)
REMARK    1  A    between atoms: C_1  and  C_2
REMARK    2  A    between atoms: C_2  and  C_3
REMARK    3  A    between atoms: C_3  and  C_4
REMARK    4  A    between atoms: C_4  and  C_5
REMARK    5  A    between atoms: C_5  and  C_6
REMARK    6  A    between atoms: C_6  and  C_7
REMARK    7  A    between atoms: C_7  and  C_8
REMARK    8  A    between atoms: C_7  and  C_11
REMARK    9  A    between atoms: C_8  and  C_9
REMARK   10  A    between atoms: C_8  and  C_10
REMARK   11  A    between atoms: C_11  and  C_12
REMARK   12  A    between atoms: C_11  and  N_14
REMARK   13  A    between atoms: C_12  and  O_13
REMARK   14  A    between atoms: N_14  and  S_15
REMARK   15  A    between atoms: S_15  and  C_18
REMARK                            x       y       z     vdW  Elec       q    Type
REMARK                         _______ _______ _______ _____ _____    ______ ____
ROOT
ATOM      1  C   UNL     1       4.960   5.834  18.016  0.00  0.00    +0.000 C 
ENDROOT
BRANCH   1   2
ATOM      2  N   UNL     1       5.432   4.966  16.886  0.00  0.00    +0.000 NA
ATOM      3  H   UNL     1       4.749   4.781  16.152  0.00  0.00    +0.000 HD
BRANCH   2   4
ATOM      4  S   UNL     1       6.958   5.170  16.207  0.00  0.00    +0.000 S 
ATOM      5  O   UNL     1       7.223   6.595  16.218  0.00  0.00    +0.000 OA
ATOM      6  O   UNL     1       7.877   4.241  16.819  0.00  0.00    +0.000 OA
BRANCH   4   7
ATOM      7  C   UNL     1       6.917   4.679  14.509  0.00  0.00    +0.000 A 
ATOM      8  C   UNL     1       7.641   5.112  13.411  0.00  0.00    +0.000 A 
ATOM      9  C   UNL     1       7.268   4.430  12.219  0.00  0.00    +0.000 A 
ATOM     10  C   UNL     1       6.280   3.513  12.469  0.00  0.00    +0.000 A 
ATOM     11 CL   UNL     1       5.533   2.479  11.322  0.00  0.00    +0.000 Cl
ATOM     12  S   UNL     1       5.806   3.449  14.092  0.00  0.00    +0.000 S 
ENDBRANCH   4   7
ENDBRANCH   2   4
ENDBRANCH   1   2
BRANCH   1  13
ATOM     13  C   UNL     1       3.393   5.900  18.126  0.00  0.00    +0.000 C 
BRANCH  13  14
ATOM     14  C   UNL     1       2.898   7.091  19.031  0.00  0.00    +0.000 C 
ATOM     15  C   UNL     1       2.131   8.158  18.231  0.00  0.00    +0.000 C 
ATOM     16  C   UNL     1       1.982   6.648  20.181  0.00  0.00    +0.000 C 
ENDBRANCH  13  14
BRANCH  13  17
ATOM     17  C   UNL     1       2.835   4.513  18.561  0.00  0.00    +0.000 C 
BRANCH  17  18
ATOM     18  C   UNL     1       1.582   3.961  17.867  0.00  0.00    +0.000 C 
BRANCH  18  19
ATOM     19  C   UNL     1       0.977   2.697  18.484  0.00  0.00    +0.000 C 
BRANCH  19  20
ATOM     20  C   UNL     1       1.751   2.248  19.718  0.00  0.00    +0.000 C 
BRANCH  20  22
ATOM     21  C   UNL     1       2.291   3.225  21.952  0.00  0.00    +0.000 C 
ATOM     22  C   UNL     1       1.171   2.828  21.004  0.00  0.00    +0.000 C 
ENDBRANCH  20  22
ENDBRANCH  19  20
ENDBRANCH  18  19
ENDBRANCH  17  18
ENDBRANCH  13  17
ENDBRANCH   1  13
BRANCH   1  23
ATOM     23  C   UNL     1       5.624   5.286  19.305  0.00  0.00    +0.000 C 
BRANCH  23  24
ATOM     24  O   UNL     1       5.914   3.896  19.170  0.00  0.00    +0.000 OA
ATOM     25  H   UNL     1       6.101   3.746  18.224  0.00  0.00    +0.000 HD
ENDBRANCH  23  24
ENDBRANCH   1  23
TORSDOF 12
ENDMDL
MODEL 2
REMARK VINA RESULT:      -6.3      4.033      7.231
REMARK  Name = 
REMARK  15 active torsions:
REMARK  status: ('A' for Active; 'I' for Inactive)
REMARK    1  A    between atoms: C_1  and  C_2
REMARK    2  A    between atoms: C_2  and  C_3
REMARK    3  A    between atoms: C_3  and  C_4
REMARK    4  A    between atoms: C_4  and  C_5
REMARK    5  A    between atoms: C_5  and  C_6
REMARK    6  A    between atoms: C_6  and  C_7
REMARK    7  A    between atoms: C_7  and  C_8
REMARK    8  A    between atoms: C_7  and  C_11
REMARK    9  A    between atoms: C_8  and  C_9
REMARK   10  A    between atoms: C_8  and  C_10
REMARK   11  A    between atoms: C_11  and  C_12
REMARK   12  A    between atoms: C_11  and  N_14
REMARK   13  A    between atoms: C_12  and  O_13
REMARK   14  A    between atoms: N_14  and  S_15
REMARK   15  A    between atoms: S_15  and  C_18
REMARK                            x       y       z     vdW  Elec       q    Type
REMARK                         _______ _______ _______ _____ _____    ______ ____
ROOT
ATOM      1  C   UNL     1       4.858   4.728  17.073  0.00  0.00    +0.000 C 
ENDROOT
BRANCH   1   2
ATOM      2  N   UNL     1       4.059   5.958  17.387  0.00  0.00    +0.000 NA
ATOM      3  H   UNL     1       3.724   6.488  16.582  0.00  0.00    +0.000 HD
BRANCH   2   4
ATOM      4  S   UNL     1       2.887   5.953  18.595  0.00  0.00    +0.000 S 
ATOM      5  O   UNL     1       1.826   5.082  18.131  0.00  0.00    +0.000 OA
ATOM      6  O   UNL     1       3.523   5.732  19.871  0.00  0.00    +0.000 OA
BRANCH   4   7
ATOM      7  C   UNL     1       2.184   7.569  18.738  0.00  0.00    +0.000 A 
ATOM      8  C   UNL     1       2.039   8.591  17.816  0.00  0.00    +0.000 A 
ATOM      9  C   UNL     1       1.409   9.737  18.379  0.00  0.00    +0.000 A 
ATOM     10  C   UNL     1       1.107   9.529  19.700  0.00  0.00    +0.000 A 
ATOM     11 CL   UNL     1       0.349  10.644  20.762  0.00  0.00    +0.000 Cl
ATOM     12  S   UNL     1       1.550   7.998  20.266  0.00  0.00    +0.000 S 
ENDBRANCH   4   7
ENDBRANCH   2   4
ENDBRANCH   1   2
BRANCH   1  13
ATOM     13  C   UNL     1       6.410   4.960  17.181  0.00  0.00    +0.000 C 
BRANCH  13  14
ATOM     14  C   UNL     1       6.778   6.187  18.098  0.00  0.00    +0.000 C 
ATOM     15  C   UNL     1       7.719   5.798  19.250  0.00  0.00    +0.000 C 
ATOM     16  C   UNL     1       7.451   7.340  17.338  0.00  0.00    +0.000 C 
ENDBRANCH  13  14
BRANCH  13  17
ATOM     17  C   UNL     1       7.033   5.039  15.755  0.00  0.00    +0.000 C 
BRANCH  17  18
ATOM     18  C   UNL     1       6.764   3.902  14.759  0.00  0.00    +0.000 C 
BRANCH  18  19
ATOM     19  C   UNL     1       5.847   4.245  13.584  0.00  0.00    +0.000 C 
BRANCH  19  20
ATOM     20  C   UNL     1       6.335   3.611  12.286  0.00  0.00    +0.000 C 
BRANCH  20  22
ATOM     21  C   UNL     1       4.088   3.253  11.258  0.00  0.00    +0.000 C 
ATOM     22  C   UNL     1       5.357   2.573  11.747  0.00  0.00    +0.000 C 
ENDBRANCH  20  22
ENDBRANCH  19  20
ENDBRANCH  18  19
ENDBRANCH  17  18
ENDBRANCH  13  17
ENDBRANCH   1  13
BRANCH   1  23
ATOM     23  C   UNL     1       4.357   3.615  18.028  0.00  0.00    +0.000 C 
BRANCH  23  24
ATOM     24  O   UNL     1       5.345   3.316  19.014  0.00  0.00    +0.000 OA
ATOM     25  H   UNL     1       5.675   4.174  19.340  0.00  0.00    +0.000 HD
ENDBRANCH  23  24
ENDBRANCH   1  23
TORSDOF 12
ENDMDL
MODEL 3
REMARK VINA RESULT:      -6.2      0.901      1.607
REMARK  Name = 
REMARK  15 active torsions:
REMARK  status: ('A' for Active; 'I' for Inactive)
REMARK    1  A    between atoms: C_1  and  C_2
REMARK    2  A    between atoms: C_2  and  C_3
REMARK    3  A    between atoms: C_3  and  C_4
REMARK    4  A    between atoms: C_4  and  C_5
REMARK    5  A    between atoms: C_5  and  C_6
REMARK    6  A    between atoms: C_6  and  C_7
REMARK    7  A    between atoms: C_7  and  C_8
REMARK    8  A    between atoms: C_7  and  C_11
REMARK    9  A    between atoms: C_8  and  C_9
REMARK   10  A    between atoms: C_8  and  C_10
REMARK   11  A    between atoms: C_11  and  C_12
REMARK   12  A    between atoms: C_11  and  N_14
REMARK   13  A    between atoms: C_12  and  O_13
REMARK   14  A    between atoms: N_14  and  S_15
REMARK   15  A    between atoms: S_15  and  C_18
REMARK                            x       y       z     vdW  Elec       q    Type
REMARK                         _______ _______ _______ _____ _____    ______ ____
ROOT
ATOM      1  C   UNL     1       4.805   5.915  18.205  0.00  0.00    +0.000 C 
ENDROOT
BRANCH   1   2
ATOM      2  N   UNL     1       5.301   5.006  17.119  0.00  0.00    +0.000 NA
ATOM      3  H   UNL     1       4.602   4.697  16.444  0.00  0.00    +0.000 HD
BRANCH   2   4
ATOM      4  S   UNL     1       6.762   5.299  16.336  0.00  0.00    +0.000 S 
ATOM      5  O   UNL     1       6.912   6.740  16.277  0.00  0.00    +0.000 OA
ATOM      6  O   UNL     1       7.787   4.470  16.921  0.00  0.00    +0.000 OA
BRANCH   4   7
ATOM      7  C   UNL     1       6.655   4.736  14.664  0.00  0.00    +0.000 A 
ATOM      8  C   UNL     1       7.518   4.878  13.591  0.00  0.00    +0.000 A 
ATOM      9  C   UNL     1       7.018   4.256  12.412  0.00  0.00    +0.000 A 
ATOM     10  C   UNL     1       5.799   3.674  12.647  0.00  0.00    +0.000 A 
ATOM     11 CL   UNL     1       4.838   2.823  11.508  0.00  0.00    +0.000 Cl
ATOM     12  S   UNL     1       5.258   3.847  14.240  0.00  0.00    +0.000 S 
ENDBRANCH   4   7
ENDBRANCH   2   4
ENDBRANCH   1   2
BRANCH   1  13
ATOM     13  C   UNL     1       3.259   5.781  18.460  0.00  0.00    +0.000 C 
BRANCH  13  14
ATOM     14  C   UNL     1       2.486   7.134  18.229  0.00  0.00    +0.000 C 
ATOM     15  C   UNL     1       2.082   7.813  19.549  0.00  0.00    +0.000 C 
ATOM     16  C   UNL     1       3.286   8.166  17.420  0.00  0.00    +0.000 C 
ENDBRANCH  13  14
BRANCH  13  17
ATOM     17  C   UNL     1       3.007   5.150  19.861  0.00  0.00    +0.000 C 
BRANCH  17  18
ATOM     18  C   UNL     1       1.567   4.839  20.293  0.00  0.00    +0.000 C 
BRANCH  18  19
ATOM     19  C   UNL     1       1.256   3.368  20.574  0.00  0.00    +0.000 C 
BRANCH  19  20
ATOM     20  C   UNL     1       0.894   2.615  19.298  0.00  0.00    +0.000 C 
BRANCH  20  22
ATOM     21  C   UNL     1       2.589   2.301  17.491  0.00  0.00    +0.000 C 
ATOM     22  C   UNL     1       2.043   1.746  18.797  0.00  0.00    +0.000 C 
ENDBRANCH  20  22
ENDBRANCH  19  20
ENDBRANCH  18  19
ENDBRANCH  17  18
ENDBRANCH  13  17
ENDBRANCH   1  13
BRANCH   1  23
ATOM     23  C   UNL     1       5.644   5.599  19.469  0.00  0.00    +0.000 C 
BRANCH  23  24
ATOM     24  O   UNL     1       6.279   4.327  19.346  0.00  0.00    +0.000 OA
ATOM     25  H   UNL     1       7.094   4.375  19.880  0.00  0.00    +0.000 HD
ENDBRANCH  23  24
ENDBRANCH   1  23
TORSDOF 12
ENDMDL
MODEL 4
REMARK VINA RESULT:      -6.2      0.810      1.117
REMARK  Name = 
REMARK  15 active torsions:
REMARK  status: ('A' for Active; 'I' for Inactive)
REMARK    1  A    between atoms: C_1  and  C_2
REMARK    2  A    between atoms: C_2  and  C_3
REMARK    3  A    between atoms: C_3  and  C_4
REMARK    4  A    between atoms: C_4  and  C_5
REMARK    5  A    between atoms: C_5  and  C_6
REMARK    6  A    between atoms: C_6  and  C_7
REMARK    7  A    between atoms: C_7  and  C_8
REMARK    8  A    between atoms: C_7  and  C_11
REMARK    9  A    between atoms: C_8  and  C_9
REMARK   10  A    between atoms: C_8  and  C_10
REMARK   11  A    between atoms: C_11  and  C_12
REMARK   12  A    between atoms: C_11  and  N_14
REMARK   13  A    between atoms: C_12  and  O_13
REMARK   14  A    between atoms: N_14  and  S_15
REMARK   15  A    between atoms: S_15  and  C_18
REMARK                            x       y       z     vdW  Elec       q    Type
REMARK                         _______ _______ _______ _____ _____    ______ ____
ROOT
ATOM      1  C   UNL     1       4.664   5.327  17.836  0.00  0.00    +0.000 C 
ENDROOT
BRANCH   1   2
ATOM      2  N   UNL     1       5.465   6.070  16.807  0.00  0.00    +0.000 NA
ATOM      3  H   UNL     1       5.456   7.087  16.884  0.00  0.00    +0.000 HD
BRANCH   2   4
ATOM      4  S   UNL     1       6.998   5.546  16.350  0.00  0.00    +0.000 S 
ATOM      5  O   UNL     1       7.840   6.725  16.316  0.00  0.00    +0.000 OA
ATOM      6  O   UNL     1       7.362   4.398  17.145  0.00  0.00    +0.000 OA
BRANCH   4   7
ATOM      7  C   UNL     1       6.938   4.923  14.697  0.00  0.00    +0.000 A 
ATOM      8  C   UNL     1       7.692   5.224  13.575  0.00  0.00    +0.000 A 
ATOM      9  C   UNL     1       7.286   4.471  12.437  0.00  0.00    +0.000 A 
ATOM     10  C   UNL     1       6.245   3.636  12.750  0.00  0.00    +0.000 A 
ATOM     11 CL   UNL     1       5.446   2.557  11.682  0.00  0.00    +0.000 Cl
ATOM     12  S   UNL     1       5.759   3.730  14.367  0.00  0.00    +0.000 S 
ENDBRANCH   4   7
ENDBRANCH   2   4
ENDBRANCH   1   2
BRANCH   1  13
ATOM     13  C   UNL     1       3.116   5.368  17.555  0.00  0.00    +0.000 C 
BRANCH  13  14
ATOM     14  C   UNL     1       2.333   6.248  18.602  0.00  0.00    +0.000 C 
ATOM     15  C   UNL     1       2.895   6.107  20.026  0.00  0.00    +0.000 C 
ATOM     16  C   UNL     1       2.334   7.746  18.265  0.00  0.00    +0.000 C 
ENDBRANCH  13  14
BRANCH  13  17
ATOM     17  C   UNL     1       2.565   3.917  17.423  0.00  0.00    +0.000 C 
BRANCH  17  18
ATOM     18  C   UNL     1       1.139   3.614  17.902  0.00  0.00    +0.000 C 
BRANCH  18  19
ATOM     19  C   UNL     1       1.025   2.803  19.194  0.00  0.00    +0.000 C 
BRANCH  19  20
ATOM     20  C   UNL     1       2.361   2.182  19.588  0.00  0.00    +0.000 C 
BRANCH  20  22
ATOM     21  C   UNL     1       1.598   2.894  21.857  0.00  0.00    +0.000 C 
ATOM     22  C   UNL     1       2.809   2.614  20.980  0.00  0.00    +0.000 C 
ENDBRANCH  20  22
ENDBRANCH  19  20
ENDBRANCH  18  19
ENDBRANCH  17  18
ENDBRANCH  13  17
ENDBRANCH   1  13
BRANCH   1  23
ATOM     23  C   UNL     1       5.222   3.882  17.878  0.00  0.00    +0.000 C 
BRANCH  23  24
ATOM     24  O   UNL     1       5.632   3.540  19.201  0.00  0.00    +0.000 OA
ATOM     25  H   UNL     1       4.849   3.662  19.770  0.00  0.00    +0.000 HD
ENDBRANCH  23  24
ENDBRANCH   1  23
TORSDOF 12
ENDMDL
MODEL 5
REMARK VINA RESULT:      -6.2      3.666      6.991
REMARK  Name = 
REMARK  15 active torsions:
REMARK  status: ('A' for Active; 'I' for Inactive)
REMARK    1  A    between atoms: C_1  and  C_2
REMARK    2  A    between atoms: C_2  and  C_3
REMARK    3  A    between atoms: C_3  and  C_4
REMARK    4  A    between atoms: C_4  and  C_5
REMARK    5  A    between atoms: C_5  and  C_6
REMARK    6  A    between atoms: C_6  and  C_7
REMARK    7  A    between atoms: C_7  and  C_8
REMARK    8  A    between atoms: C_7  and  C_11
REMARK    9  A    between atoms: C_8  and  C_9
REMARK   10  A    between atoms: C_8  and  C_10
REMARK   11  A    between atoms: C_11  and  C_12
REMARK   12  A    between atoms: C_11  and  N_14
REMARK   13  A    between atoms: C_12  and  O_13
REMARK   14  A    between atoms: N_14  and  S_15
REMARK   15  A    between atoms: S_15  and  C_18
REMARK                            x       y       z     vdW  Elec       q    Type
REMARK                         _______ _______ _______ _____ _____    ______ ____
ROOT
ATOM      1  C   UNL     1       4.996   4.245  17.709  0.00  0.00    +0.000 C 
ENDROOT
BRANCH   1   2
ATOM      2  N   UNL     1       5.414   3.238  18.740  0.00  0.00    +0.000 NA
ATOM      3  H   UNL     1       6.197   3.509  19.334  0.00  0.00    +0.000 HD
BRANCH   2   4
ATOM      4  S   UNL     1       4.275   2.394  19.647  0.00  0.00    +0.000 S 
ATOM      5  O   UNL     1       3.757   1.351  18.784  0.00  0.00    +0.000 OA
ATOM      6  O   UNL     1       4.837   2.078  20.938  0.00  0.00    +0.000 OA
BRANCH   4   7
ATOM      7  C   UNL     1       2.914   3.459  20.019  0.00  0.00    +0.000 A 
ATOM      8  C   UNL     1       1.559   3.206  20.146  0.00  0.00    +0.000 A 
ATOM      9  C   UNL     1       0.819   4.383  20.455  0.00  0.00    +0.000 A 
ATOM     10  C   UNL     1       1.648   5.470  20.548  0.00  0.00    +0.000 A 
ATOM     11 CL   UNL     1       1.179   7.084  20.897  0.00  0.00    +0.000 Cl
ATOM     12  S   UNL     1       3.279   5.108  20.286  0.00  0.00    +0.000 S 
ENDBRANCH   4   7
ENDBRANCH   2   4
ENDBRANCH   1   2
BRANCH   1  13
ATOM     13  C   UNL     1       6.205   5.068  17.129  0.00  0.00    +0.000 C 
BRANCH  13  14
ATOM     14  C   UNL     1       5.816   6.555  16.785  0.00  0.00    +0.000 C 
ATOM     15  C   UNL     1       4.444   6.952  17.354  0.00  0.00    +0.000 C 
ATOM     16  C   UNL     1       6.831   7.588  17.298  0.00  0.00    +0.000 C 
ENDBRANCH  13  14
BRANCH  13  17
ATOM     17  C   UNL     1       6.844   4.298  15.935  0.00  0.00    +0.000 C 
BRANCH  17  18
ATOM     18  C   UNL     1       6.652   4.836  14.511  0.00  0.00    +0.000 C 
BRANCH  18  19
ATOM     19  C   UNL     1       6.450   3.783  13.419  0.00  0.00    +0.000 C 
BRANCH  19  20
ATOM     20  C   UNL     1       5.073   3.898  12.775  0.00  0.00    +0.000 C 
BRANCH  20  22
ATOM     21  C   UNL     1       3.606   3.240  10.865  0.00  0.00    +0.000 C 
ATOM     22  C   UNL     1       4.911   2.953  11.590  0.00  0.00    +0.000 C 
ENDBRANCH  20  22
ENDBRANCH  19  20
ENDBRANCH  18  19
ENDBRANCH  17  18
ENDBRANCH  13  17
ENDBRANCH   1  13
BRANCH   1  23
ATOM     23  C   UNL     1       4.227   3.466  16.611  0.00  0.00    +0.000 C 
BRANCH  23  24
ATOM     24  O   UNL     1       2.819   3.584  16.805  0.00  0.00    +0.000 OA
ATOM     25  H   UNL     1       2.423   3.634  15.914  0.00  0.00    +0.000 HD
ENDBRANCH  23  24
ENDBRANCH   1  23
TORSDOF 12
ENDMDL
MODEL 6
REMARK VINA RESULT:      -6.2      2.709      4.604
REMARK  Name = 
REMARK  15 active torsions:
REMARK  status: ('A' for Active; 'I' for Inactive)
REMARK    1  A    between atoms: C_1  and  C_2
REMARK    2  A    between atoms: C_2  and  C_3
REMARK    3  A    between atoms: C_3  and  C_4
REMARK    4  A    between atoms: C_4  and  C_5
REMARK    5  A    between atoms: C_5  and  C_6
REMARK    6  A    between atoms: C_6  and  C_7
REMARK    7  A    between atoms: C_7  and  C_8
REMARK    8  A    between atoms: C_7  and  C_11
REMARK    9  A    between atoms: C_8  and  C_9
REMARK   10  A    between atoms: C_8  and  C_10
REMARK   11  A    between atoms: C_11  and  C_12
REMARK   12  A    between atoms: C_11  and  N_14
REMARK   13  A    between atoms: C_12  and  O_13
REMARK   14  A    between atoms: N_14  and  S_15
REMARK   15  A    between atoms: S_15  and  C_18
REMARK                            x       y       z     vdW  Elec       q    Type
REMARK                         _______ _______ _______ _____ _____    ______ ____
ROOT
ATOM      1  C   UNL     1       3.149   5.452  19.183  0.00  0.00    +0.000 C 
ENDROOT
BRANCH   1   2
ATOM      2  N   UNL     1       4.575   5.809  19.488  0.00  0.00    +0.000 NA
ATOM      3  H   UNL     1       4.736   6.273  20.382  0.00  0.00    +0.000 HD
BRANCH   2   4
ATOM      4  S   UNL     1       5.831   4.736  19.167  0.00  0.00    +0.000 S 
ATOM      5  O   UNL     1       7.006   5.274  19.822  0.00  0.00    +0.000 OA
ATOM      6  O   UNL     1       5.384   3.390  19.434  0.00  0.00    +0.000 OA
BRANCH   4   7
ATOM      7  C   UNL     1       6.176   4.738  17.433  0.00  0.00    +0.000 A 
ATOM      8  C   UNL     1       7.203   5.313  16.703  0.00  0.00    +0.000 A 
ATOM      9  C   UNL     1       7.078   5.058  15.308  0.00  0.00    +0.000 A 
ATOM     10  C   UNL     1       5.965   4.302  15.047  0.00  0.00    +0.000 A 
ATOM     11 CL   UNL     1       5.432   3.769  13.506  0.00  0.00    +0.000 Cl
ATOM     12  S   UNL     1       5.084   3.889  16.430  0.00  0.00    +0.000 S 
ENDBRANCH   4   7
ENDBRANCH   2   4
ENDBRANCH   1   2
BRANCH   1  13
ATOM     13  C   UNL     1       2.200   5.597  20.428  0.00  0.00    +0.000 C 
BRANCH  13  14
ATOM     14  C   UNL     1       1.325   4.311  20.678  0.00  0.00    +0.000 C 
ATOM     15  C   UNL     1       1.002   3.559  19.377  0.00  0.00    +0.000 C 
ATOM     16  C   UNL     1       1.980   3.300  21.630  0.00  0.00    +0.000 C 
ENDBRANCH  13  14
BRANCH  13  17
ATOM     17  C   UNL     1       1.364   6.906  20.305  0.00  0.00    +0.000 C 
BRANCH  17  18
ATOM     18  C   UNL     1       0.800   7.554  21.577  0.00  0.00    +0.000 C 
BRANCH  18  19
ATOM     19  C   UNL     1       0.815   9.084  21.612  0.00  0.00    +0.000 C 
BRANCH  19  20
ATOM     20  C   UNL     1       0.507   9.618  23.007  0.00  0.00    +0.000 C 
BRANCH  20  22
ATOM     21  C   UNL     1      -1.004  11.590  22.760  0.00  0.00    +0.000 C 
ATOM     22  C   UNL     1      -0.928  10.117  23.129  0.00  0.00    +0.000 C 
ENDBRANCH  20  22
ENDBRANCH  19  20
ENDBRANCH  18  19
ENDBRANCH  17  18
ENDBRANCH  13  17
ENDBRANCH   1  13
BRANCH   1  23
ATOM     23  C   UNL     1       2.711   6.345  17.994  0.00  0.00    +0.000 C 
BRANCH  23  24
ATOM     24  O   UNL     1       3.742   7.270  17.653  0.00  0.00    +0.000 OA
ATOM     25  H   UNL     1       3.303   8.130  17.513  0.00  0.00    +0.000 HD
ENDBRANCH  23  24
ENDBRANCH   1  23
TORSDOF 12
ENDMDL
MODEL 7
REMARK VINA RESULT:      -6.2      1.379      3.447
REMARK  Name = 
REMARK  15 active torsions:
REMARK  status: ('A' for Active; 'I' for Inactive)
REMARK    1  A    between atoms: C_1  and  C_2
REMARK    2  A    between atoms: C_2  and  C_3
REMARK    3  A    between atoms: C_3  and  C_4
REMARK    4  A    between atoms: C_4  and  C_5
REMARK    5  A    between atoms: C_5  and  C_6
REMARK    6  A    between atoms: C_6  and  C_7
REMARK    7  A    between atoms: C_7  and  C_8
REMARK    8  A    between atoms: C_7  and  C_11
REMARK    9  A    between atoms: C_8  and  C_9
REMARK   10  A    between atoms: C_8  and  C_10
REMARK   11  A    between atoms: C_11  and  C_12
REMARK   12  A    between atoms: C_11  and  N_14
REMARK   13  A    between atoms: C_12  and  O_13
REMARK   14  A    between atoms: N_14  and  S_15
REMARK   15  A    between atoms: S_15  and  C_18
REMARK                            x       y       z     vdW  Elec       q    Type
REMARK                         _______ _______ _______ _____ _____    ______ ____
ROOT
ATOM      1  C   UNL     1       4.854   5.270  18.704  0.00  0.00    +0.000 C 
ENDROOT
BRANCH   1   2
ATOM      2  N   UNL     1       5.085   5.177  17.224  0.00  0.00    +0.000 NA
ATOM      3  H   UNL     1       4.325   5.512  16.633  0.00  0.00    +0.000 HD
BRANCH   2   4
ATOM      4  S   UNL     1       6.565   5.599  16.545  0.00  0.00    +0.000 S 
ATOM      5  O   UNL     1       6.563   7.043  16.424  0.00  0.00    +0.000 OA
ATOM      6  O   UNL     1       7.623   4.916  17.250  0.00  0.00    +0.000 OA
BRANCH   4   7
ATOM      7  C   UNL     1       6.661   4.958  14.900  0.00  0.00    +0.000 A 
ATOM      8  C   UNL     1       7.551   5.205  13.869  0.00  0.00    +0.000 A 
ATOM      9  C   UNL     1       7.240   4.457  12.698  0.00  0.00    +0.000 A 
ATOM     10  C   UNL     1       6.128   3.680  12.897  0.00  0.00    +0.000 A 
ATOM     11 CL   UNL     1       5.401   2.628  11.753  0.00  0.00    +0.000 Cl
ATOM     12  S   UNL     1       5.468   3.820  14.448  0.00  0.00    +0.000 S 
ENDBRANCH   4   7
ENDBRANCH   2   4
ENDBRANCH   1   2
BRANCH   1  13
ATOM     13  C   UNL     1       3.473   5.928  19.070  0.00  0.00    +0.000 C 
BRANCH  13  14
ATOM     14  C   UNL     1       2.445   4.892  19.663  0.00  0.00    +0.000 C 
ATOM     15  C   UNL     1       1.536   5.514  20.736  0.00  0.00    +0.000 C 
ATOM     16  C   UNL     1       1.525   4.267  18.603  0.00  0.00    +0.000 C 
ENDBRANCH  13  14
BRANCH  13  17
ATOM     17  C   UNL     1       2.925   6.720  17.845  0.00  0.00    +0.000 C 
BRANCH  17  18
ATOM     18  C   UNL     1       2.924   8.254  17.888  0.00  0.00    +0.000 C 
BRANCH  18  19
ATOM     19  C   UNL     1       1.836   8.899  18.750  0.00  0.00    +0.000 C 
BRANCH  19  20
ATOM     20  C   UNL     1       0.732   9.513  17.896  0.00  0.00    +0.000 C 
BRANCH  20  22
ATOM     21  C   UNL     1      -0.130   9.833  20.218  0.00  0.00    +0.000 C 
ATOM     22  C   UNL     1      -0.400  10.085  18.743  0.00  0.00    +0.000 C 
ENDBRANCH  20  22
ENDBRANCH  19  20
ENDBRANCH  18  19
ENDBRANCH  17  18
ENDBRANCH  13  17
ENDBRANCH   1  13
BRANCH   1  23
ATOM     23  C   UNL     1       4.995   3.833  19.269  0.00  0.00    +0.000 C 
BRANCH  23  24
ATOM     24  O   UNL     1       4.822   2.867  18.233  0.00  0.00    +0.000 OA
ATOM     25  H   UNL     1       3.899   2.953  17.930  0.00  0.00    +0.000 HD
ENDBRANCH  23  24
ENDBRANCH   1  23
TORSDOF 12
ENDMDL
MODEL 8
REMARK VINA RESULT:      -6.1      3.961      7.172
REMARK  Name = 
REMARK  15 active torsions:
REMARK  status: ('A' for Active; 'I' for Inactive)
REMARK    1  A    between atoms: C_1  and  C_2
REMARK    2  A    between atoms: C_2  and  C_3
REMARK    3  A    between atoms: C_3  and  C_4
REMARK    4  A    between atoms: C_4  and  C_5
REMARK    5  A    between atoms: C_5  and  C_6
REMARK    6  A    between atoms: C_6  and  C_7
REMARK    7  A    between atoms: C_7  and  C_8
REMARK    8  A    between atoms: C_7  and  C_11
REMARK    9  A    between atoms: C_8  and  C_9
REMARK   10  A    between atoms: C_8  and  C_10
REMARK   11  A    between atoms: C_11  and  C_12
REMARK   12  A    between atoms: C_11  and  N_14
REMARK   13  A    between atoms: C_12  and  O_13
REMARK   14  A    between atoms: N_14  and  S_15
REMARK   15  A    between atoms: S_15  and  C_18
REMARK                            x       y       z     vdW  Elec       q    Type
REMARK                         _______ _______ _______ _____ _____    ______ ____
ROOT
ATOM      1  C   UNL     1       4.048   3.983  17.393  0.00  0.00    +0.000 C 
ENDROOT
BRANCH   1   2
ATOM      2  N   UNL     1       2.931   4.940  17.694  0.00  0.00    +0.000 NA
ATOM      3  H   UNL     1       2.010   4.671  17.349  0.00  0.00    +0.000 HD
BRANCH   2   4
ATOM      4  S   UNL     1       2.787   5.663  19.206  0.00  0.00    +0.000 S 
ATOM      5  O   UNL     1       1.761   4.926  19.917  0.00  0.00    +0.000 OA
ATOM      6  O   UNL     1       4.101   5.840  19.775  0.00  0.00    +0.000 OA
BRANCH   4   7
ATOM      7  C   UNL     1       2.177   7.312  19.013  0.00  0.00    +0.000 A 
ATOM      8  C   UNL     1       2.114   8.143  17.908  0.00  0.00    +0.000 A 
ATOM      9  C   UNL     1       1.540   9.408  18.218  0.00  0.00    +0.000 A 
ATOM     10  C   UNL     1       1.194   9.475  19.543  0.00  0.00    +0.000 A 
ATOM     11 CL   UNL     1       0.478  10.813  20.344  0.00  0.00    +0.000 Cl
ATOM     12  S   UNL     1       1.532   8.061  20.407  0.00  0.00    +0.000 S 
ENDBRANCH   4   7
ENDBRANCH   2   4
ENDBRANCH   1   2
BRANCH   1  13
ATOM     13  C   UNL     1       5.213   4.640  16.565  0.00  0.00    +0.000 C 
BRANCH  13  14
ATOM     14  C   UNL     1       5.305   6.198  16.779  0.00  0.00    +0.000 C 
ATOM     15  C   UNL     1       6.691   6.642  17.276  0.00  0.00    +0.000 C 
ATOM     16  C   UNL     1       5.003   7.010  15.510  0.00  0.00    +0.000 C 
ENDBRANCH  13  14
BRANCH  13  17
ATOM     17  C   UNL     1       5.099   4.221  15.069  0.00  0.00    +0.000 C 
BRANCH  17  18
ATOM     18  C   UNL     1       6.376   3.878  14.290  0.00  0.00    +0.000 C 
BRANCH  18  19
ATOM     19  C   UNL     1       6.197   3.617  12.793  0.00  0.00    +0.000 C 
BRANCH  19  20
ATOM     20  C   UNL     1       4.730   3.678  12.383  0.00  0.00    +0.000 C 
BRANCH  20  22
ATOM     21  C   UNL     1       3.357   3.509  10.304  0.00  0.00    +0.000 C 
ATOM     22  C   UNL     1       4.445   2.849  11.136  0.00  0.00    +0.000 C 
ENDBRANCH  20  22
ENDBRANCH  19  20
ENDBRANCH  18  19
ENDBRANCH  17  18
ENDBRANCH  13  17
ENDBRANCH   1  13
BRANCH   1  23
ATOM     23  C   UNL     1       4.531   3.419  18.753  0.00  0.00    +0.000 C 
BRANCH  23  24
ATOM     24  O   UNL     1       5.930   3.641  18.921  0.00  0.00    +0.000 OA
ATOM     25  H   UNL     1       6.370   2.801  18.690  0.00  0.00    +0.000 HD
ENDBRANCH  23  24
ENDBRANCH   1  23
TORSDOF 12
ENDMDL
MODEL 9
REMARK VINA RESULT:      -6.1      4.388      7.485
REMARK  Name = 
REMARK  15 active torsions:
REMARK  status: ('A' for Active; 'I' for Inactive)
REMARK    1  A    between atoms: C_1  and  C_2
REMARK    2  A    between atoms: C_2  and  C_3
REMARK    3  A    between atoms: C_3  and  C_4
REMARK    4  A    between atoms: C_4  and  C_5
REMARK    5  A    between atoms: C_5  and  C_6
REMARK    6  A    between atoms: C_6  and  C_7
REMARK    7  A    between atoms: C_7  and  C_8
REMARK    8  A    between atoms: C_7  and  C_11
REMARK    9  A    between atoms: C_8  and  C_9
REMARK   10  A    between atoms: C_8  and  C_10
REMARK   11  A    between atoms: C_11  and  C_12
REMARK   12  A    between atoms: C_11  and  N_14
REMARK   13  A    between atoms: C_12  and  O_13
REMARK   14  A    between atoms: N_14  and  S_15
REMARK   15  A    between atoms: S_15  and  C_18
REMARK                            x       y       z     vdW  Elec       q    Type
REMARK                         _______ _______ _______ _____ _____    ______ ____
ROOT
ATOM      1  C   UNL     1       6.388   5.036  17.844  0.00  0.00    +0.000 C 
ENDROOT
BRANCH   1   2
ATOM      2  N   UNL     1       5.782   4.529  19.120  0.00  0.00    +0.000 NA
ATOM      3  H   UNL     1       5.595   5.232  19.834  0.00  0.00    +0.000 HD
BRANCH   2   4
ATOM      4  S   UNL     1       4.546   3.387  19.105  0.00  0.00    +0.000 S 
ATOM      5  O   UNL     1       4.280   3.090  17.712  0.00  0.00    +0.000 OA
ATOM      6  O   UNL     1       4.862   2.334  20.040  0.00  0.00    +0.000 OA
BRANCH   4   7
ATOM      7  C   UNL     1       3.070   4.111  19.755  0.00  0.00    +0.000 A 
ATOM      8  C   UNL     1       1.844   3.558  20.083  0.00  0.00    +0.000 A 
ATOM      9  C   UNL     1       0.930   4.531  20.578  0.00  0.00    +0.000 A 
ATOM     10  C   UNL     1       1.506   5.774  20.601  0.00  0.00    +0.000 A 
ATOM     11 CL   UNL     1       0.765   7.233  21.118  0.00  0.00    +0.000 Cl
ATOM     12  S   UNL     1       3.108   5.793  20.058  0.00  0.00    +0.000 S 
ENDBRANCH   4   7
ENDBRANCH   2   4
ENDBRANCH   1   2
BRANCH   1  13
ATOM     13  C   UNL     1       6.232   6.591  17.666  0.00  0.00    +0.000 C 
BRANCH  13  14
ATOM     14  C   UNL     1       5.178   6.973  16.560  0.00  0.00    +0.000 C 
ATOM     15  C   UNL     1       5.164   5.974  15.391  0.00  0.00    +0.000 C 
ATOM     16  C   UNL     1       3.739   7.063  17.090  0.00  0.00    +0.000 C 
ENDBRANCH  13  14
BRANCH  13  17
ATOM     17  C   UNL     1       7.631   7.240  17.445  0.00  0.00    +0.000 C 
BRANCH  17  18
ATOM     18  C   UNL     1       8.269   8.047  18.584  0.00  0.00    +0.000 C 
BRANCH  18  19
ATOM     19  C   UNL     1       8.587   9.510  18.271  0.00  0.00    +0.000 C 
BRANCH  19  20
ATOM     20  C   UNL     1       9.262  10.203  19.450  0.00  0.00    +0.000 C 
BRANCH  20  22
ATOM     21  C   UNL     1       9.751  11.982  17.767  0.00  0.00    +0.000 C 
ATOM     22  C   UNL     1      10.268  11.257  18.999  0.00  0.00    +0.000 C 
ENDBRANCH  20  22
ENDBRANCH  19  20
ENDBRANCH  18  19
ENDBRANCH  17  18
ENDBRANCH  13  17
ENDBRANCH   1  13
BRANCH   1  23
ATOM     23  C   UNL     1       7.870   4.584  17.843  0.00  0.00    +0.000 C 
BRANCH  23  24
ATOM     24  O   UNL     1       8.213   3.988  16.593  0.00  0.00    +0.000 OA
ATOM     25  H   UNL     1       8.824   4.608  16.152  0.00  0.00    +0.000 HD
ENDBRANCH  23  24
ENDBRANCH   1  23
TORSDOF 12
ENDMDL
