MODEL 1
REMARK VINA RESULT:      -5.6      0.000      0.000
REMARK  Name = 
REMARK  6 active torsions:
REMARK  status: ('A' for Active; 'I' for Inactive)
REMARK    1  A    between atoms: C_2  and  C_3
REMARK    2  A    between atoms: C_6  and  C_7
REMARK    3  A    between atoms: C_16  and  O_17
REMARK    4  A    between atoms: C_18  and  O_19
REMARK    5  A    between atoms: C_20  and  C_21
REMARK    6  A    between atoms: C_24  and  C_25
REMARK                            x       y       z     vdW  Elec       q    Type
REMARK                         _______ _______ _______ _____ _____    ______ ____
ROOT
ATOM      1  C   UNL     1      -2.808  13.284  22.202  0.00  0.00    +0.000 C 
ATOM      2  O   UNL     1      -3.634  13.484  20.999  0.00  0.00    +0.000 OA
ATOM      3  C   UNL     1      -4.517  14.458  21.361  0.00  0.00    +0.000 A 
ATOM      4  C   UNL     1      -4.987  15.394  20.471  0.00  0.00    +0.000 A 
ATOM      5  C   UNL     1      -5.457  16.576  21.020  0.00  0.00    +0.000 A 
ATOM      6 CL   UNL     1      -5.888  17.881  19.990  0.00  0.00    +0.000 Cl
ATOM      7  C   UNL     1      -5.468  16.722  22.414  0.00  0.00    +0.000 A 
ATOM      8  N   UNL     1      -5.060  15.763  23.306  0.00  0.00    +0.000 NA
ATOM      9  C   UNL     1      -4.613  14.626  22.731  0.00  0.00    +0.000 A 
ATOM     10  C   UNL     1      -3.787  13.528  23.406  0.00  0.00    +0.000 C 
ATOM     11  C   UNL     1      -2.917  14.003  24.590  0.00  0.00    +0.000 C 
ATOM     12  C   UNL     1      -1.599  14.520  23.983  0.00  0.00    +0.000 C 
ATOM     13  C   UNL     1      -1.821  14.518  22.450  0.00  0.00    +0.000 C 
ENDROOT
BRANCH   1  17
ATOM     14  C   UNL     1      -0.087   9.986  21.259  0.00  0.00    +0.000 A 
ATOM     15  C   UNL     1      -0.749  10.689  20.260  0.00  0.00    +0.000 A 
ATOM     16  C   UNL     1      -1.688  11.667  20.602  0.00  0.00    +0.000 A 
ATOM     17  C   UNL     1      -2.000  11.997  21.947  0.00  0.00    +0.000 A 
ATOM     18  C   UNL     1      -1.376  11.230  22.939  0.00  0.00    +0.000 A 
ATOM     19  C   UNL     1      -0.421  10.245  22.595  0.00  0.00    +0.000 A 
BRANCH  14  21
ATOM     20  N   UNL     1       1.757   8.258  20.644  0.00  0.00    +0.000 NA
ATOM     21  C   UNL     1       0.941   9.044  20.915  0.00  0.00    +0.000 C 
ENDBRANCH  14  21
ENDBRANCH   1  17
BRANCH  13  22
ATOM     22  C   UNL     1      -0.626  14.625  21.536  0.00  0.00    +0.000 A 
ATOM     23  C   UNL     1       0.654  14.197  21.894  0.00  0.00    +0.000 A 
ATOM     24  C   UNL     1       1.715  14.346  21.005  0.00  0.00    +0.000 A 
ATOM     25  C   UNL     1       1.511  14.928  19.755  0.00  0.00    +0.000 A 
ATOM     26  C   UNL     1       0.243  15.363  19.388  0.00  0.00    +0.000 A 
ATOM     27  C   UNL     1      -0.819  15.212  20.272  0.00  0.00    +0.000 A 
ENDBRANCH  13  22
BRANCH  12  28
ATOM     28  C   UNL     1      -1.092  15.852  24.497  0.00  0.00    +0.000 C 
ATOM     29  N   UNL     1      -1.855  16.957  24.272  0.00  0.00    +0.000 N 
ATOM     30  O   UNL     1      -0.001  15.960  25.052  0.00  0.00    +0.000 OA
ATOM     31  H   UNL     1      -2.858  16.887  24.178  0.00  0.00    +0.000 HD
ATOM     32  H   UNL     1      -1.501  17.808  24.696  0.00  0.00    +0.000 HD
ENDBRANCH  12  28
BRANCH  10  33
ATOM     33  O   UNL     1      -4.638  12.448  23.761  0.00  0.00    +0.000 OA
ATOM     34  H   UNL     1      -5.557  12.748  23.632  0.00  0.00    +0.000 HD
ENDBRANCH  10  33
BRANCH  11  35
ATOM     35  O   UNL     1      -3.574  14.906  25.478  0.00  0.00    +0.000 OA
ATOM     36  H   UNL     1      -4.341  14.459  25.894  0.00  0.00    +0.000 HD
ENDBRANCH  11  35
TORSDOF 6
ENDMDL
MODEL 2
REMARK VINA RESULT:      -5.6      2.135      3.492
REMARK  Name = 
REMARK  6 active torsions:
REMARK  status: ('A' for Active; 'I' for Inactive)
REMARK    1  A    between atoms: C_2  and  C_3
REMARK    2  A    between atoms: C_6  and  C_7
REMARK    3  A    between atoms: C_16  and  O_17
REMARK    4  A    between atoms: C_18  and  O_19
REMARK    5  A    between atoms: C_20  and  C_21
REMARK    6  A    between atoms: C_24  and  C_25
REMARK                            x       y       z     vdW  Elec       q    Type
REMARK                         _______ _______ _______ _____ _____    ______ ____
ROOT
ATOM      1  C   UNL     1      -1.809  13.395  22.628  0.00  0.00    +0.000 C 
ATOM      2  O   UNL     1      -2.981  12.857  23.341  0.00  0.00    +0.000 OA
ATOM      3  C   UNL     1      -3.663  13.967  23.743  0.00  0.00    +0.000 A 
ATOM      4  C   UNL     1      -5.035  14.002  23.824  0.00  0.00    +0.000 A 
ATOM      5  C   UNL     1      -5.619  15.256  23.758  0.00  0.00    +0.000 A 
ATOM      6 CL   UNL     1      -7.328  15.394  23.659  0.00  0.00    +0.000 Cl
ATOM      7  C   UNL     1      -4.796  16.386  23.665  0.00  0.00    +0.000 A 
ATOM      8  N   UNL     1      -3.424  16.358  23.651  0.00  0.00    +0.000 NA
ATOM      9  C   UNL     1      -2.895  15.118  23.720  0.00  0.00    +0.000 A 
ATOM     10  C   UNL     1      -1.454  14.723  23.386  0.00  0.00    +0.000 C 
ATOM     11  C   UNL     1      -0.749  15.638  22.361  0.00  0.00    +0.000 C 
ATOM     12  C   UNL     1      -1.138  15.112  20.967  0.00  0.00    +0.000 C 
ATOM     13  C   UNL     1      -2.219  14.032  21.220  0.00  0.00    +0.000 C 
ENDROOT
BRANCH   1  17
ATOM     14  C   UNL     1       0.437   9.748  21.718  0.00  0.00    +0.000 A 
ATOM     15  C   UNL     1      -0.616   9.744  22.625  0.00  0.00    +0.000 A 
ATOM     16  C   UNL     1      -1.243  10.947  22.968  0.00  0.00    +0.000 A 
ATOM     17  C   UNL     1      -0.862  12.198  22.418  0.00  0.00    +0.000 A 
ATOM     18  C   UNL     1       0.246  12.191  21.560  0.00  0.00    +0.000 A 
ATOM     19  C   UNL     1       0.877  10.976  21.206  0.00  0.00    +0.000 A 
BRANCH  14  21
ATOM     20  N   UNL     1       1.485   7.502  20.930  0.00  0.00    +0.000 NA
ATOM     21  C   UNL     1       1.025   8.508  21.295  0.00  0.00    +0.000 C 
ENDBRANCH  14  21
ENDBRANCH   1  17
BRANCH  13  22
ATOM     22  C   UNL     1      -2.564  13.067  20.113  0.00  0.00    +0.000 A 
ATOM     23  C   UNL     1      -1.643  12.639  19.155  0.00  0.00    +0.000 A 
ATOM     24  C   UNL     1      -2.039  11.761  18.148  0.00  0.00    +0.000 A 
ATOM     25  C   UNL     1      -3.355  11.308  18.086  0.00  0.00    +0.000 A 
ATOM     26  C   UNL     1      -4.283  11.729  19.031  0.00  0.00    +0.000 A 
ATOM     27  C   UNL     1      -3.890  12.603  20.039  0.00  0.00    +0.000 A 
ENDBRANCH  13  22
BRANCH  12  28
ATOM     28  C   UNL     1      -1.574  16.146  19.949  0.00  0.00    +0.000 C 
ATOM     29  N   UNL     1      -0.845  16.266  18.805  0.00  0.00    +0.000 N 
ATOM     30  O   UNL     1      -2.519  16.903  20.158  0.00  0.00    +0.000 OA
ATOM     31  H   UNL     1      -0.337  15.479  18.427  0.00  0.00    +0.000 HD
ATOM     32  H   UNL     1      -1.221  16.924  18.132  0.00  0.00    +0.000 HD
ENDBRANCH  12  28
BRANCH  10  33
ATOM     33  O   UNL     1      -0.711  14.588  24.589  0.00  0.00    +0.000 OA
ATOM     34  H   UNL     1      -1.312  14.217  25.262  0.00  0.00    +0.000 HD
ENDBRANCH  10  33
BRANCH  11  35
ATOM     35  O   UNL     1      -0.968  17.033  22.569  0.00  0.00    +0.000 OA
ATOM     36  H   UNL     1      -0.758  17.526  21.748  0.00  0.00    +0.000 HD
ENDBRANCH  11  35
TORSDOF 6
ENDMDL
MODEL 3
REMARK VINA RESULT:      -5.6      0.663      1.075
REMARK  Name = 
REMARK  6 active torsions:
REMARK  status: ('A' for Active; 'I' for Inactive)
REMARK    1  A    between atoms: C_2  and  C_3
REMARK    2  A    between atoms: C_6  and  C_7
REMARK    3  A    between atoms: C_16  and  O_17
REMARK    4  A    between atoms: C_18  and  O_19
REMARK    5  A    between atoms: C_20  and  C_21
REMARK    6  A    between atoms: C_24  and  C_25
REMARK                            x       y       z     vdW  Elec       q    Type
REMARK                         _______ _______ _______ _____ _____    ______ ____
ROOT
ATOM      1  C   UNL     1      -2.529  13.050  22.197  0.00  0.00    +0.000 C 
ATOM      2  O   UNL     1      -3.471  13.045  21.063  0.00  0.00    +0.000 OA
ATOM      3  C   UNL     1      -4.516  13.807  21.497  0.00  0.00    +0.000 A 
ATOM      4  C   UNL     1      -5.249  14.603  20.650  0.00  0.00    +0.000 A 
ATOM      5  C   UNL     1      -5.924  15.661  21.237  0.00  0.00    +0.000 A 
ATOM      6 CL   UNL     1      -6.711  16.822  20.247  0.00  0.00    +0.000 Cl
ATOM      7  C   UNL     1      -5.857  15.822  22.628  0.00  0.00    +0.000 A 
ATOM      8  N   UNL     1      -5.179  14.991  23.482  0.00  0.00    +0.000 NA
ATOM      9  C   UNL     1      -4.539  13.971  22.871  0.00  0.00    +0.000 A 
ATOM     10  C   UNL     1      -3.440  13.092  23.475  0.00  0.00    +0.000 C 
ATOM     11  C   UNL     1      -2.606  13.765  24.587  0.00  0.00    +0.000 C 
ATOM     12  C   UNL     1      -1.486  14.549  23.877  0.00  0.00    +0.000 C 
ATOM     13  C   UNL     1      -1.823  14.474  22.367  0.00  0.00    +0.000 C 
ENDROOT
BRANCH   1  17
ATOM     14  C   UNL     1       0.038   9.581  21.458  0.00  0.00    +0.000 A 
ATOM     15  C   UNL     1      -0.262  10.000  22.749  0.00  0.00    +0.000 A 
ATOM     16  C   UNL     1      -1.000  11.172  22.946  0.00  0.00    +0.000 A 
ATOM     17  C   UNL     1      -1.481  11.968  21.875  0.00  0.00    +0.000 A 
ATOM     18  C   UNL     1      -1.110  11.569  20.584  0.00  0.00    +0.000 A 
ATOM     19  C   UNL     1      -0.370  10.380  20.382  0.00  0.00    +0.000 A 
BRANCH  14  21
ATOM     20  N   UNL     1       1.290   7.336  21.062  0.00  0.00    +0.000 NA
ATOM     21  C   UNL     1       0.717   8.334  21.248  0.00  0.00    +0.000 C 
ENDBRANCH  14  21
ENDBRANCH   1  17
BRANCH  13  22
ATOM     22  C   UNL     1      -0.756  14.828  21.361  0.00  0.00    +0.000 A 
ATOM     23  C   UNL     1       0.610  14.674  21.606  0.00  0.00    +0.000 A 
ATOM     24  C   UNL     1       1.540  15.040  20.636  0.00  0.00    +0.000 A 
ATOM     25  C   UNL     1       1.116  15.567  19.417  0.00  0.00    +0.000 A 
ATOM     26  C   UNL     1      -0.241  15.730  19.162  0.00  0.00    +0.000 A 
ATOM     27  C   UNL     1      -1.171  15.361  20.127  0.00  0.00    +0.000 A 
ENDBRANCH  13  22
BRANCH  12  28
ATOM     28  C   UNL     1      -1.247  15.968  24.352  0.00  0.00    +0.000 C 
ATOM     29  N   UNL     1      -2.252  16.873  24.199  0.00  0.00    +0.000 N 
ATOM     30  O   UNL     1      -0.164  16.323  24.812  0.00  0.00    +0.000 OA
ATOM     31  H   UNL     1      -3.219  16.581  24.190  0.00  0.00    +0.000 HD
ATOM     32  H   UNL     1      -2.062  17.787  24.594  0.00  0.00    +0.000 HD
ENDBRANCH  12  28
BRANCH  10  33
ATOM     33  O   UNL     1      -4.002  11.856  23.895  0.00  0.00    +0.000 OA
ATOM     34  H   UNL     1      -4.203  11.340  23.091  0.00  0.00    +0.000 HD
ENDBRANCH  10  33
BRANCH  11  35
ATOM     35  O   UNL     1      -3.375  14.515  25.527  0.00  0.00    +0.000 OA
ATOM     36  H   UNL     1      -3.163  14.219  26.437  0.00  0.00    +0.000 HD
ENDBRANCH  11  35
TORSDOF 6
ENDMDL
MODEL 4
REMARK VINA RESULT:      -5.6      3.299      6.638
REMARK  Name = 
REMARK  6 active torsions:
REMARK  status: ('A' for Active; 'I' for Inactive)
REMARK    1  A    between atoms: C_2  and  C_3
REMARK    2  A    between atoms: C_6  and  C_7
REMARK    3  A    between atoms: C_16  and  O_17
REMARK    4  A    between atoms: C_18  and  O_19
REMARK    5  A    between atoms: C_20  and  C_21
REMARK    6  A    between atoms: C_24  and  C_25
REMARK                            x       y       z     vdW  Elec       q    Type
REMARK                         _______ _______ _______ _____ _____    ______ ____
ROOT
ATOM      1  C   UNL     1      -0.639  12.983  20.249  0.00  0.00    +0.000 C 
ATOM      2  O   UNL     1      -1.412  13.294  19.033  0.00  0.00    +0.000 OA
ATOM      3  C   UNL     1      -1.225  12.204  18.234  0.00  0.00    +0.000 A 
ATOM      4  C   UNL     1      -2.197  11.741  17.379  0.00  0.00    +0.000 A 
ATOM      5  C   UNL     1      -2.099  10.410  17.007  0.00  0.00    +0.000 A 
ATOM      6 CL   UNL     1      -3.363   9.685  16.099  0.00  0.00    +0.000 Cl
ATOM      7  C   UNL     1      -1.017   9.651  17.475  0.00  0.00    +0.000 A 
ATOM      8  N   UNL     1      -0.011  10.129  18.275  0.00  0.00    +0.000 NA
ATOM      9  C   UNL     1      -0.142  11.430  18.612  0.00  0.00    +0.000 A 
ATOM     10  C   UNL     1       0.596  12.158  19.739  0.00  0.00    +0.000 C 
ATOM     11  C   UNL     1       1.038  11.259  20.914  0.00  0.00    +0.000 C 
ATOM     12  C   UNL     1      -0.168  11.161  21.866  0.00  0.00    +0.000 C 
ATOM     13  C   UNL     1      -1.342  11.840  21.117  0.00  0.00    +0.000 C 
ENDROOT
BRANCH   1  17
ATOM     14  C   UNL     1      -0.980  16.558  22.754  0.00  0.00    +0.000 A 
ATOM     15  C   UNL     1      -1.773  16.384  21.627  0.00  0.00    +0.000 A 
ATOM     16  C   UNL     1      -1.566  15.280  20.793  0.00  0.00    +0.000 A 
ATOM     17  C   UNL     1      -0.574  14.298  21.049  0.00  0.00    +0.000 A 
ATOM     18  C   UNL     1       0.262  14.527  22.150  0.00  0.00    +0.000 A 
ATOM     19  C   UNL     1       0.049  15.639  22.998  0.00  0.00    +0.000 A 
BRANCH  14  21
ATOM     20  N   UNL     1      -1.470  18.498  24.415  0.00  0.00    +0.000 NA
ATOM     21  C   UNL     1      -1.246  17.640  23.660  0.00  0.00    +0.000 C 
ENDBRANCH  14  21
ENDBRANCH   1  17
BRANCH  13  22
ATOM     22  C   UNL     1      -2.574  12.236  21.891  0.00  0.00    +0.000 A 
ATOM     23  C   UNL     1      -3.805  12.505  21.289  0.00  0.00    +0.000 A 
ATOM     24  C   UNL     1      -4.896  12.884  22.067  0.00  0.00    +0.000 A 
ATOM     25  C   UNL     1      -4.768  13.004  23.449  0.00  0.00    +0.000 A 
ATOM     26  C   UNL     1      -3.547  12.744  24.061  0.00  0.00    +0.000 A 
ATOM     27  C   UNL     1      -2.458  12.361  23.287  0.00  0.00    +0.000 A 
ENDBRANCH  13  22
BRANCH  12  28
ATOM     28  C   UNL     1      -0.521   9.778  22.372  0.00  0.00    +0.000 C 
ATOM     29  N   UNL     1      -0.418   9.539  23.709  0.00  0.00    +0.000 N 
ATOM     30  O   UNL     1      -0.838   8.869  21.608  0.00  0.00    +0.000 OA
ATOM     31  H   UNL     1      -0.531  10.284  24.382  0.00  0.00    +0.000 HD
ATOM     32  H   UNL     1      -0.731   8.619  23.999  0.00  0.00    +0.000 HD
ENDBRANCH  12  28
BRANCH  10  33
ATOM     33  O   UNL     1       1.675  12.903  19.192  0.00  0.00    +0.000 OA
ATOM     34  H   UNL     1       1.665  13.782  19.614  0.00  0.00    +0.000 HD
ENDBRANCH  10  33
BRANCH  11  35
ATOM     35  O   UNL     1       1.606  10.011  20.518  0.00  0.00    +0.000 OA
ATOM     36  H   UNL     1       2.027  10.105  19.638  0.00  0.00    +0.000 HD
ENDBRANCH  11  35
TORSDOF 6
ENDMDL
MODEL 5
REMARK VINA RESULT:      -5.5      3.185      6.574
REMARK  Name = 
REMARK  6 active torsions:
REMARK  status: ('A' for Active; 'I' for Inactive)
REMARK    1  A    between atoms: C_2  and  C_3
REMARK    2  A    between atoms: C_6  and  C_7
REMARK    3  A    between atoms: C_16  and  O_17
REMARK    4  A    between atoms: C_18  and  O_19
REMARK    5  A    between atoms: C_20  and  C_21
REMARK    6  A    between atoms: C_24  and  C_25
REMARK                            x       y       z     vdW  Elec       q    Type
REMARK                         _______ _______ _______ _____ _____    ______ ____
ROOT
ATOM      1  C   UNL     1      -0.714  13.081  20.363  0.00  0.00    +0.000 C 
ATOM      2  O   UNL     1      -1.522  13.338  19.158  0.00  0.00    +0.000 OA
ATOM      3  C   UNL     1      -1.291  12.251  18.367  0.00  0.00    +0.000 A 
ATOM      4  C   UNL     1      -2.252  11.728  17.534  0.00  0.00    +0.000 A 
ATOM      5  C   UNL     1      -2.092  10.400  17.174  0.00  0.00    +0.000 A 
ATOM      6 CL   UNL     1      -3.332   9.602  16.295  0.00  0.00    +0.000 Cl
ATOM      7  C   UNL     1      -0.965   9.703  17.631  0.00  0.00    +0.000 A 
ATOM      8  N   UNL     1       0.028  10.241  18.408  0.00  0.00    +0.000 NA
ATOM      9  C   UNL     1      -0.164  11.537  18.734  0.00  0.00    +0.000 A 
ATOM     10  C   UNL     1       0.553  12.315  19.841  0.00  0.00    +0.000 C 
ATOM     11  C   UNL     1       1.061  11.452  21.017  0.00  0.00    +0.000 C 
ATOM     12  C   UNL     1      -0.123  11.303  21.991  0.00  0.00    +0.000 C 
ATOM     13  C   UNL     1      -1.342  11.913  21.255  0.00  0.00    +0.000 C 
ENDROOT
BRANCH   1  17
ATOM     14  C   UNL     1      -1.197  16.661  22.837  0.00  0.00    +0.000 A 
ATOM     15  C   UNL     1      -1.998  16.435  21.725  0.00  0.00    +0.000 A 
ATOM     16  C   UNL     1      -1.748  15.333  20.899  0.00  0.00    +0.000 A 
ATOM     17  C   UNL     1      -0.702  14.406  21.149  0.00  0.00    +0.000 A 
ATOM     18  C   UNL     1       0.138  14.690  22.233  0.00  0.00    +0.000 A 
ATOM     19  C   UNL     1      -0.118  15.799  23.073  0.00  0.00    +0.000 A 
BRANCH  14  21
ATOM     20  N   UNL     1      -1.746  18.631  24.444  0.00  0.00    +0.000 NA
ATOM     21  C   UNL     1      -1.503  17.738  23.736  0.00  0.00    +0.000 C 
ENDBRANCH  14  21
ENDBRANCH   1  17
BRANCH  13  22
ATOM     22  C   UNL     1      -2.580  12.253  22.046  0.00  0.00    +0.000 A 
ATOM     23  C   UNL     1      -2.597  12.349  23.439  0.00  0.00    +0.000 A 
ATOM     24  C   UNL     1      -3.783  12.649  24.105  0.00  0.00    +0.000 A 
ATOM     25  C   UNL     1      -4.961  12.851  23.388  0.00  0.00    +0.000 A 
ATOM     26  C   UNL     1      -4.960  12.754  22.002  0.00  0.00    +0.000 A 
ATOM     27  C   UNL     1      -3.776  12.458  21.335  0.00  0.00    +0.000 A 
ENDBRANCH  13  22
BRANCH  12  28
ATOM     28  C   UNL     1      -0.396   9.909  22.517  0.00  0.00    +0.000 C 
ATOM     29  N   UNL     1      -0.717   8.937  21.620  0.00  0.00    +0.000 N 
ATOM     30  O   UNL     1      -0.389   9.658  23.720  0.00  0.00    +0.000 OA
ATOM     31  H   UNL     1      -0.385   8.979  20.666  0.00  0.00    +0.000 HD
ATOM     32  H   UNL     1      -0.822   8.011  22.019  0.00  0.00    +0.000 HD
ENDBRANCH  12  28
BRANCH  10  33
ATOM     33  O   UNL     1       1.584  13.108  19.268  0.00  0.00    +0.000 OA
ATOM     34  H   UNL     1       1.186  13.961  19.013  0.00  0.00    +0.000 HD
ENDBRANCH  10  33
BRANCH  11  35
ATOM     35  O   UNL     1       1.686  10.231  20.625  0.00  0.00    +0.000 OA
ATOM     36  H   UNL     1       2.374   9.987  21.280  0.00  0.00    +0.000 HD
ENDBRANCH  11  35
TORSDOF 6
ENDMDL
MODEL 6
REMARK VINA RESULT:      -5.5      2.070      3.462
REMARK  Name = 
REMARK  6 active torsions:
REMARK  status: ('A' for Active; 'I' for Inactive)
REMARK    1  A    between atoms: C_2  and  C_3
REMARK    2  A    between atoms: C_6  and  C_7
REMARK    3  A    between atoms: C_16  and  O_17
REMARK    4  A    between atoms: C_18  and  O_19
REMARK    5  A    between atoms: C_20  and  C_21
REMARK    6  A    between atoms: C_24  and  C_25
REMARK                            x       y       z     vdW  Elec       q    Type
REMARK                         _______ _______ _______ _____ _____    ______ ____
ROOT
ATOM      1  C   UNL     1      -1.767  13.383  22.572  0.00  0.00    +0.000 C 
ATOM      2  O   UNL     1      -2.950  12.851  23.272  0.00  0.00    +0.000 OA
ATOM      3  C   UNL     1      -3.626  13.965  23.674  0.00  0.00    +0.000 A 
ATOM      4  C   UNL     1      -4.998  14.010  23.742  0.00  0.00    +0.000 A 
ATOM      5  C   UNL     1      -5.572  15.269  23.678  0.00  0.00    +0.000 A 
ATOM      6 CL   UNL     1      -7.278  15.422  23.564  0.00  0.00    +0.000 Cl
ATOM      7  C   UNL     1      -4.738  16.393  23.599  0.00  0.00    +0.000 A 
ATOM      8  N   UNL     1      -3.367  16.355  23.597  0.00  0.00    +0.000 NA
ATOM      9  C   UNL     1      -2.848  15.109  23.663  0.00  0.00    +0.000 A 
ATOM     10  C   UNL     1      -1.408  14.704  23.341  0.00  0.00    +0.000 C 
ATOM     11  C   UNL     1      -0.686  15.620  22.327  0.00  0.00    +0.000 C 
ATOM     12  C   UNL     1      -1.067  15.104  20.926  0.00  0.00    +0.000 C 
ATOM     13  C   UNL     1      -2.159  14.031  21.164  0.00  0.00    +0.000 C 
ENDROOT
BRANCH   1  17
ATOM     14  C   UNL     1       0.450   9.714  21.680  0.00  0.00    +0.000 A 
ATOM     15  C   UNL     1      -0.585   9.729  22.607  0.00  0.00    +0.000 A 
ATOM     16  C   UNL     1      -1.202  10.939  22.942  0.00  0.00    +0.000 A 
ATOM     17  C   UNL     1      -0.828  12.180  22.364  0.00  0.00    +0.000 A 
ATOM     18  C   UNL     1       0.263  12.155  21.485  0.00  0.00    +0.000 A 
ATOM     19  C   UNL     1       0.884  10.932  21.140  0.00  0.00    +0.000 A 
BRANCH  14  21
ATOM     20  N   UNL     1       1.475   7.439  20.950  0.00  0.00    +0.000 NA
ATOM     21  C   UNL     1       1.027   8.466  21.268  0.00  0.00    +0.000 C 
ENDBRANCH  14  21
ENDBRANCH   1  17
BRANCH  13  22
ATOM     22  C   UNL     1      -2.502  13.076  20.049  0.00  0.00    +0.000 A 
ATOM     23  C   UNL     1      -3.752  12.466  19.918  0.00  0.00    +0.000 A 
ATOM     24  C   UNL     1      -3.991  11.578  18.873  0.00  0.00    +0.000 A 
ATOM     25  C   UNL     1      -2.986  11.287  17.952  0.00  0.00    +0.000 A 
ATOM     26  C   UNL     1      -1.736  11.883  18.073  0.00  0.00    +0.000 A 
ATOM     27  C   UNL     1      -1.496  12.772  19.114  0.00  0.00    +0.000 A 
ENDBRANCH  13  22
BRANCH  12  28
ATOM     28  C   UNL     1      -1.485  16.147  19.910  0.00  0.00    +0.000 C 
ATOM     29  N   UNL     1      -2.721  16.704  20.036  0.00  0.00    +0.000 N 
ATOM     30  O   UNL     1      -0.766  16.453  18.962  0.00  0.00    +0.000 OA
ATOM     31  H   UNL     1      -3.169  16.779  20.938  0.00  0.00    +0.000 HD
ATOM     32  H   UNL     1      -2.921  17.443  19.371  0.00  0.00    +0.000 HD
ENDBRANCH  12  28
BRANCH  10  33
ATOM     33  O   UNL     1      -0.677  14.557  24.550  0.00  0.00    +0.000 OA
ATOM     34  H   UNL     1       0.215  14.239  24.314  0.00  0.00    +0.000 HD
ENDBRANCH  10  33
BRANCH  11  35
ATOM     35  O   UNL     1      -0.895  17.015  22.541  0.00  0.00    +0.000 OA
ATOM     36  H   UNL     1      -0.040  17.450  22.742  0.00  0.00    +0.000 HD
ENDBRANCH  11  35
TORSDOF 6
ENDMDL
MODEL 7
REMARK VINA RESULT:      -5.4      0.850      1.253
REMARK  Name = 
REMARK  6 active torsions:
REMARK  status: ('A' for Active; 'I' for Inactive)
REMARK    1  A    between atoms: C_2  and  C_3
REMARK    2  A    between atoms: C_6  and  C_7
REMARK    3  A    between atoms: C_16  and  O_17
REMARK    4  A    between atoms: C_18  and  O_19
REMARK    5  A    between atoms: C_20  and  C_21
REMARK    6  A    between atoms: C_24  and  C_25
REMARK                            x       y       z     vdW  Elec       q    Type
REMARK                         _______ _______ _______ _____ _____    ______ ____
ROOT
ATOM      1  C   UNL     1      -3.088  13.501  21.995  0.00  0.00    +0.000 C 
ATOM      2  O   UNL     1      -4.114  13.805  20.981  0.00  0.00    +0.000 OA
ATOM      3  C   UNL     1      -4.992  14.620  21.634  0.00  0.00    +0.000 A 
ATOM      4  C   UNL     1      -5.668  15.634  20.998  0.00  0.00    +0.000 A 
ATOM      5  C   UNL     1      -6.124  16.664  21.805  0.00  0.00    +0.000 A 
ATOM      6 CL   UNL     1      -6.810  18.066  21.089  0.00  0.00    +0.000 Cl
ATOM      7  C   UNL     1      -5.914  16.587  23.189  0.00  0.00    +0.000 A 
ATOM      8  N   UNL     1      -5.298  15.545  23.832  0.00  0.00    +0.000 NA
ATOM      9  C   UNL     1      -4.872  14.561  23.011  0.00  0.00    +0.000 A 
ATOM     10  C   UNL     1      -3.870  13.456  23.356  0.00  0.00    +0.000 C 
ATOM     11  C   UNL     1      -2.852  13.822  24.459  0.00  0.00    +0.000 C 
ATOM     12  C   UNL     1      -1.693  14.553  23.756  0.00  0.00    +0.000 C 
ATOM     13  C   UNL     1      -2.165  14.770  22.297  0.00  0.00    +0.000 C 
ENDROOT
BRANCH   1  17
ATOM     14  C   UNL     1      -0.357  10.672  20.068  0.00  0.00    +0.000 A 
ATOM     15  C   UNL     1      -1.282  11.403  19.332  0.00  0.00    +0.000 A 
ATOM     16  C   UNL     1      -2.207  12.219  19.992  0.00  0.00    +0.000 A 
ATOM     17  C   UNL     1      -2.245  12.354  21.404  0.00  0.00    +0.000 A 
ATOM     18  C   UNL     1      -1.352  11.557  22.132  0.00  0.00    +0.000 A 
ATOM     19  C   UNL     1      -0.412  10.736  21.467  0.00  0.00    +0.000 A 
BRANCH  14  21
ATOM     20  N   UNL     1       1.458   9.254  18.862  0.00  0.00    +0.000 NA
ATOM     21  C   UNL     1       0.650   9.902  19.394  0.00  0.00    +0.000 C 
ENDBRANCH  14  21
ENDBRANCH   1  17
BRANCH  13  22
ATOM     22  C   UNL     1      -1.148  15.136  21.245  0.00  0.00    +0.000 A 
ATOM     23  C   UNL     1      -1.462  15.862  20.094  0.00  0.00    +0.000 A 
ATOM     24  C   UNL     1      -0.473  16.146  19.155  0.00  0.00    +0.000 A 
ATOM     25  C   UNL     1       0.834  15.706  19.353  0.00  0.00    +0.000 A 
ATOM     26  C   UNL     1       1.160  14.978  20.492  0.00  0.00    +0.000 A 
ATOM     27  C   UNL     1       0.175  14.696  21.432  0.00  0.00    +0.000 A 
ENDBRANCH  13  22
BRANCH  12  28
ATOM     28  C   UNL     1      -1.204  15.831  24.407  0.00  0.00    +0.000 C 
ATOM     29  N   UNL     1      -2.071  16.876  24.497  0.00  0.00    +0.000 N 
ATOM     30  O   UNL     1      -0.045  15.958  24.797  0.00  0.00    +0.000 OA
ATOM     31  H   UNL     1      -3.069  16.723  24.548  0.00  0.00    +0.000 HD
ATOM     32  H   UNL     1      -1.714  17.680  25.002  0.00  0.00    +0.000 HD
ENDBRANCH  12  28
BRANCH  10  33
ATOM     33  O   UNL     1      -4.572  12.256  23.646  0.00  0.00    +0.000 OA
ATOM     34  H   UNL     1      -4.570  12.145  24.615  0.00  0.00    +0.000 HD
ENDBRANCH  10  33
BRANCH  11  35
ATOM     35  O   UNL     1      -3.416  14.506  25.577  0.00  0.00    +0.000 OA
ATOM     36  H   UNL     1      -4.390  14.386  25.580  0.00  0.00    +0.000 HD
ENDBRANCH  11  35
TORSDOF 6
ENDMDL
MODEL 8
REMARK VINA RESULT:      -5.3      9.679     12.439
REMARK  Name = 
REMARK  6 active torsions:
REMARK  status: ('A' for Active; 'I' for Inactive)
REMARK    1  A    between atoms: C_2  and  C_3
REMARK    2  A    between atoms: C_6  and  C_7
REMARK    3  A    between atoms: C_16  and  O_17
REMARK    4  A    between atoms: C_18  and  O_19
REMARK    5  A    between atoms: C_20  and  C_21
REMARK    6  A    between atoms: C_24  and  C_25
REMARK                            x       y       z     vdW  Elec       q    Type
REMARK                         _______ _______ _______ _____ _____    ______ ____
ROOT
ATOM      1  C   UNL     1       9.642  14.252  20.557  0.00  0.00    +0.000 C 
ATOM      2  O   UNL     1      10.747  15.179  20.858  0.00  0.00    +0.000 OA
ATOM      3  C   UNL     1      11.274  15.474  19.635  0.00  0.00    +0.000 A 
ATOM      4  C   UNL     1      11.812  16.704  19.341  0.00  0.00    +0.000 A 
ATOM      5  C   UNL     1      11.858  17.046  17.999  0.00  0.00    +0.000 A 
ATOM      6 CL   UNL     1      12.332  18.631  17.540  0.00  0.00    +0.000 Cl
ATOM      7  C   UNL     1      11.409  16.121  17.046  0.00  0.00    +0.000 A 
ATOM      8  N   UNL     1      10.934  14.867  17.333  0.00  0.00    +0.000 NA
ATOM      9  C   UNL     1      10.909  14.572  18.651  0.00  0.00    +0.000 A 
ATOM     10  C   UNL     1      10.137  13.429  19.315  0.00  0.00    +0.000 C 
ATOM     11  C   UNL     1       8.870  12.973  18.557  0.00  0.00    +0.000 C 
ATOM     12  C   UNL     1       7.732  13.907  19.011  0.00  0.00    +0.000 C 
ATOM     13  C   UNL     1       8.414  15.005  19.865  0.00  0.00    +0.000 C 
ENDROOT
BRANCH   1  17
ATOM     14  C   UNL     1       7.989  12.990  24.410  0.00  0.00    +0.000 A 
ATOM     15  C   UNL     1       8.706  14.174  24.281  0.00  0.00    +0.000 A 
ATOM     16  C   UNL     1       9.307  14.494  23.059  0.00  0.00    +0.000 A 
ATOM     17  C   UNL     1       9.211  13.661  21.913  0.00  0.00    +0.000 A 
ATOM     18  C   UNL     1       8.545  12.440  22.082  0.00  0.00    +0.000 A 
ATOM     19  C   UNL     1       7.931  12.118  23.315  0.00  0.00    +0.000 A 
BRANCH  14  21
ATOM     20  N   UNL     1       6.711  12.464  26.613  0.00  0.00    +0.000 NA
ATOM     21  C   UNL     1       7.297  12.700  25.635  0.00  0.00    +0.000 C 
ENDBRANCH  14  21
ENDBRANCH   1  17
BRANCH  13  22
ATOM     22  C   UNL     1       7.562  15.875  20.754  0.00  0.00    +0.000 A 
ATOM     23  C   UNL     1       6.365  15.444  21.330  0.00  0.00    +0.000 A 
ATOM     24  C   UNL     1       5.620  16.310  22.126  0.00  0.00    +0.000 A 
ATOM     25  C   UNL     1       6.059  17.614  22.351  0.00  0.00    +0.000 A 
ATOM     26  C   UNL     1       7.247  18.057  21.781  0.00  0.00    +0.000 A 
ATOM     27  C   UNL     1       7.994  17.193  20.988  0.00  0.00    +0.000 A 
ENDBRANCH  13  22
BRANCH  12  28
ATOM     28  C   UNL     1       6.850  14.479  17.920  0.00  0.00    +0.000 C 
ATOM     29  N   UNL     1       5.558  14.054  17.852  0.00  0.00    +0.000 N 
ATOM     30  O   UNL     1       7.285  15.262  17.079  0.00  0.00    +0.000 OA
ATOM     31  H   UNL     1       5.069  13.737  18.678  0.00  0.00    +0.000 HD
ATOM     32  H   UNL     1       4.997  14.519  17.148  0.00  0.00    +0.000 HD
ENDBRANCH  12  28
BRANCH  10  33
ATOM     33  O   UNL     1      11.024  12.351  19.579  0.00  0.00    +0.000 OA
ATOM     34  H   UNL     1      11.782  12.714  20.074  0.00  0.00    +0.000 HD
ENDBRANCH  10  33
BRANCH  11  35
ATOM     35  O   UNL     1       9.038  12.859  17.145  0.00  0.00    +0.000 OA
ATOM     36  H   UNL     1       8.519  13.557  16.693  0.00  0.00    +0.000 HD
ENDBRANCH  11  35
TORSDOF 6
ENDMDL
MODEL 9
REMARK VINA RESULT:      -5.3      3.533      5.597
REMARK  Name = 
REMARK  6 active torsions:
REMARK  status: ('A' for Active; 'I' for Inactive)
REMARK    1  A    between atoms: C_2  and  C_3
REMARK    2  A    between atoms: C_6  and  C_7
REMARK    3  A    between atoms: C_16  and  O_17
REMARK    4  A    between atoms: C_18  and  O_19
REMARK    5  A    between atoms: C_20  and  C_21
REMARK    6  A    between atoms: C_24  and  C_25
REMARK                            x       y       z     vdW  Elec       q    Type
REMARK                         _______ _______ _______ _____ _____    ______ ____
ROOT
ATOM      1  C   UNL     1       0.986  13.870  19.816  0.00  0.00    +0.000 C 
ATOM      2  O   UNL     1       0.709  13.152  18.559  0.00  0.00    +0.000 OA
ATOM      3  C   UNL     1      -0.421  12.437  18.829  0.00  0.00    +0.000 A 
ATOM      4  C   UNL     1      -1.377  12.183  17.874  0.00  0.00    +0.000 A 
ATOM      5  C   UNL     1      -2.649  11.902  18.344  0.00  0.00    +0.000 A 
ATOM      6 CL   UNL     1      -3.953  11.758  17.236  0.00  0.00    +0.000 Cl
ATOM      7  C   UNL     1      -2.867  11.848  19.728  0.00  0.00    +0.000 A 
ATOM      8  N   UNL     1      -1.900  12.036  20.682  0.00  0.00    +0.000 NA
ATOM      9  C   UNL     1      -0.674  12.305  20.182  0.00  0.00    +0.000 A 
ATOM     10  C   UNL     1       0.514  12.891  20.949  0.00  0.00    +0.000 C 
ATOM     11  C   UNL     1       0.136  13.771  22.161  0.00  0.00    +0.000 C 
ATOM     12  C   UNL     1      -0.112  15.188  21.610  0.00  0.00    +0.000 C 
ATOM     13  C   UNL     1      -0.069  15.044  20.068  0.00  0.00    +0.000 C 
ENDROOT
BRANCH   1  17
ATOM     14  C   UNL     1       4.752  16.004  19.155  0.00  0.00    +0.000 A 
ATOM     15  C   UNL     1       4.012  15.493  18.095  0.00  0.00    +0.000 A 
ATOM     16  C   UNL     1       2.869  14.728  18.350  0.00  0.00    +0.000 A 
ATOM     17  C   UNL     1       2.405  14.450  19.662  0.00  0.00    +0.000 A 
ATOM     18  C   UNL     1       3.202  14.914  20.717  0.00  0.00    +0.000 A 
ATOM     19  C   UNL     1       4.354  15.694  20.462  0.00  0.00    +0.000 A 
BRANCH  14  21
ATOM     20  N   UNL     1       6.800  17.544  18.711  0.00  0.00    +0.000 NA
ATOM     21  C   UNL     1       5.874  16.862  18.899  0.00  0.00    +0.000 C 
ENDBRANCH  14  21
ENDBRANCH   1  17
BRANCH  13  22
ATOM     22  C   UNL     1       0.079  16.283  19.221  0.00  0.00    +0.000 A 
ATOM     23  C   UNL     1      -0.457  16.403  17.937  0.00  0.00    +0.000 A 
ATOM     24  C   UNL     1      -0.263  17.571  17.204  0.00  0.00    +0.000 A 
ATOM     25  C   UNL     1       0.470  18.627  17.743  0.00  0.00    +0.000 A 
ATOM     26  C   UNL     1       1.013  18.520  19.019  0.00  0.00    +0.000 A 
ATOM     27  C   UNL     1       0.818  17.356  19.753  0.00  0.00    +0.000 A 
ENDBRANCH  13  22
BRANCH  12  28
ATOM     28  C   UNL     1      -1.361  15.895  22.095  0.00  0.00    +0.000 C 
ATOM     29  N   UNL     1      -2.567  15.329  21.815  0.00  0.00    +0.000 N 
ATOM     30  O   UNL     1      -1.310  16.976  22.676  0.00  0.00    +0.000 OA
ATOM     31  H   UNL     1      -2.659  14.329  21.694  0.00  0.00    +0.000 HD
ATOM     32  H   UNL     1      -3.363  15.807  22.221  0.00  0.00    +0.000 HD
ENDBRANCH  12  28
BRANCH  10  33
ATOM     33  O   UNL     1       1.411  11.846  21.300  0.00  0.00    +0.000 OA
ATOM     34  H   UNL     1       2.079  11.786  20.592  0.00  0.00    +0.000 HD
ENDBRANCH  10  33
BRANCH  11  35
ATOM     35  O   UNL     1      -0.912  13.239  22.970  0.00  0.00    +0.000 OA
ATOM     36  H   UNL     1      -1.292  12.445  22.538  0.00  0.00    +0.000 HD
ENDBRANCH  11  35
TORSDOF 6
ENDMDL
