MODEL 1
REMARK VINA RESULT:      -6.4      0.000      0.000
REMARK  Name = 
REMARK  3 active torsions:
REMARK  status: ('A' for Active; 'I' for Inactive)
REMARK    1  A    between atoms: C_1  and  N_2
REMARK    2  A    between atoms: C_4  and  N_5
REMARK    3  A    between atoms: C_6  and  C_8
REMARK                            x       y       z     vdW  Elec       q    Type
REMARK                         _______ _______ _______ _____ _____    ______ ____
ROOT
ATOM      1  N   UNL     1       5.004   4.017  17.781  0.00  0.00    +0.000 N 
ATOM      2  C   UNL     1       3.824   4.652  18.121  0.00  0.00    +0.000 C 
ATOM      3  O   UNL     1       3.329   5.628  17.562  0.00  0.00    +0.000 OA
ATOM      4  H   UNL     1       5.275   3.228  18.362  0.00  0.00    +0.000 HD
ENDROOT
BRANCH   1   8
ATOM      5  C   UNL     1       6.982   4.382  13.307  0.00  0.00    +0.000 C 
ATOM      6  N   UNL     1       6.697   4.537  14.713  0.00  0.00    +0.000 N 
ATOM      7  C   UNL     1       5.657   3.983  15.393  0.00  0.00    +0.000 A 
ATOM      8  C   UNL     1       5.802   4.357  16.706  0.00  0.00    +0.000 A 
ATOM      9  C   UNL     1       6.966   5.160  16.706  0.00  0.00    +0.000 A 
ATOM     10  N   UNL     1       7.515   5.273  15.490  0.00  0.00    +0.000 NA
ENDBRANCH   1   8
BRANCH   2  11
ATOM     11  C   UNL     1       3.119   4.040  19.290  0.00  0.00    +0.000 A 
ATOM     12  C   UNL     1       1.841   4.482  19.621  0.00  0.00    +0.000 A 
ATOM     13  C   UNL     1       1.195   3.884  20.697  0.00  0.00    +0.000 A 
ATOM     14  C   UNL     1       1.843   2.874  21.401  0.00  0.00    +0.000 A 
ATOM     15  C   UNL     1       3.120   2.501  21.003  0.00  0.00    +0.000 A 
ATOM     16  N   UNL     1       3.782   3.057  19.962  0.00  0.00    +0.000 NA
ENDBRANCH   2  11
TORSDOF 2
ENDMDL
MODEL 2
REMARK VINA RESULT:      -6.4      1.768      6.588
REMARK  Name = 
REMARK  3 active torsions:
REMARK  status: ('A' for Active; 'I' for Inactive)
REMARK    1  A    between atoms: C_1  and  N_2
REMARK    2  A    between atoms: C_4  and  N_5
REMARK    3  A    between atoms: C_6  and  C_8
REMARK                            x       y       z     vdW  Elec       q    Type
REMARK                         _______ _______ _______ _____ _____    ______ ____
ROOT
ATOM      1  N   UNL     1       5.177   4.453  16.344  0.00  0.00    +0.000 N 
ATOM      2  C   UNL     1       6.521   4.559  16.040  0.00  0.00    +0.000 C 
ATOM      3  O   UNL     1       7.448   4.660  16.839  0.00  0.00    +0.000 OA
ATOM      4  H   UNL     1       4.539   4.391  15.555  0.00  0.00    +0.000 HD
ENDROOT
BRANCH   1   8
ATOM      5  C   UNL     1       3.157   2.928  20.546  0.00  0.00    +0.000 C 
ATOM      6  N   UNL     1       3.763   3.729  19.512  0.00  0.00    +0.000 N 
ATOM      7  C   UNL     1       4.200   3.290  18.300  0.00  0.00    +0.000 A 
ATOM      8  C   UNL     1       4.659   4.394  17.624  0.00  0.00    +0.000 A 
ATOM      9  C   UNL     1       4.467   5.457  18.536  0.00  0.00    +0.000 A 
ATOM     10  N   UNL     1       3.921   5.055  19.690  0.00  0.00    +0.000 NA
ENDBRANCH   1   8
BRANCH   2  11
ATOM     11  C   UNL     1       6.816   4.534  14.573  0.00  0.00    +0.000 A 
ATOM     12  C   UNL     1       6.102   3.668  13.750  0.00  0.00    +0.000 A 
ATOM     13  C   UNL     1       6.376   3.678  12.388  0.00  0.00    +0.000 A 
ATOM     14  C   UNL     1       7.347   4.544  11.897  0.00  0.00    +0.000 A 
ATOM     15  C   UNL     1       8.014   5.370  12.793  0.00  0.00    +0.000 A 
ATOM     16  N   UNL     1       7.776   5.392  14.124  0.00  0.00    +0.000 NA
ENDBRANCH   2  11
TORSDOF 2
ENDMDL
MODEL 3
REMARK VINA RESULT:      -6.4      1.208      1.208
REMARK  Name = 
REMARK  3 active torsions:
REMARK  status: ('A' for Active; 'I' for Inactive)
REMARK    1  A    between atoms: C_1  and  N_2
REMARK    2  A    between atoms: C_4  and  N_5
REMARK    3  A    between atoms: C_6  and  C_8
REMARK                            x       y       z     vdW  Elec       q    Type
REMARK                         _______ _______ _______ _____ _____    ______ ____
ROOT
ATOM      1  N   UNL     1       4.620   4.250  17.961  0.00  0.00    +0.000 N 
ATOM      2  C   UNL     1       3.919   3.076  18.162  0.00  0.00    +0.000 C 
ATOM      3  O   UNL     1       4.006   2.048  17.496  0.00  0.00    +0.000 OA
ATOM      4  H   UNL     1       4.414   5.014  18.601  0.00  0.00    +0.000 HD
ENDROOT
BRANCH   1   8
ATOM      5  C   UNL     1       6.969   4.752  13.684  0.00  0.00    +0.000 C 
ATOM      6  N   UNL     1       6.651   4.670  15.088  0.00  0.00    +0.000 N 
ATOM      7  C   UNL     1       5.413   4.508  15.630  0.00  0.00    +0.000 A 
ATOM      8  C   UNL     1       5.585   4.437  16.990  0.00  0.00    +0.000 A 
ATOM      9  C   UNL     1       6.980   4.586  17.166  0.00  0.00    +0.000 A 
ATOM     10  N   UNL     1       7.635   4.729  16.007  0.00  0.00    +0.000 NA
ENDBRANCH   1   8
BRANCH   2  11
ATOM     11  C   UNL     1       2.980   3.120  19.326  0.00  0.00    +0.000 A 
ATOM     12  C   UNL     1       1.708   3.659  19.155  0.00  0.00    +0.000 A 
ATOM     13  C   UNL     1       0.845   3.668  20.243  0.00  0.00    +0.000 A 
ATOM     14  C   UNL     1       1.277   3.144  21.457  0.00  0.00    +0.000 A 
ATOM     15  C   UNL     1       2.564   2.631  21.537  0.00  0.00    +0.000 A 
ATOM     16  N   UNL     1       3.435   2.603  20.503  0.00  0.00    +0.000 NA
ENDBRANCH   2  11
TORSDOF 2
ENDMDL
MODEL 4
REMARK VINA RESULT:      -6.3      1.219      1.355
REMARK  Name = 
REMARK  3 active torsions:
REMARK  status: ('A' for Active; 'I' for Inactive)
REMARK    1  A    between atoms: C_1  and  N_2
REMARK    2  A    between atoms: C_4  and  N_5
REMARK    3  A    between atoms: C_6  and  C_8
REMARK                            x       y       z     vdW  Elec       q    Type
REMARK                         _______ _______ _______ _____ _____    ______ ____
ROOT
ATOM      1  N   UNL     1       4.572   4.048  16.894  0.00  0.00    +0.000 N 
ATOM      2  C   UNL     1       3.715   4.931  17.525  0.00  0.00    +0.000 C 
ATOM      3  O   UNL     1       3.740   6.156  17.452  0.00  0.00    +0.000 OA
ATOM      4  H   UNL     1       4.417   3.060  17.077  0.00  0.00    +0.000 HD
ENDROOT
BRANCH   1   8
ATOM      5  C   UNL     1       7.310   4.784  12.891  0.00  0.00    +0.000 C 
ATOM      6  N   UNL     1       6.817   4.756  14.247  0.00  0.00    +0.000 N 
ATOM      7  C   UNL     1       5.607   4.289  14.658  0.00  0.00    +0.000 A 
ATOM      8  C   UNL     1       5.582   4.414  16.025  0.00  0.00    +0.000 A 
ATOM      9  C   UNL     1       6.834   4.991  16.339  0.00  0.00    +0.000 A 
ATOM     10  N   UNL     1       7.591   5.202  15.255  0.00  0.00    +0.000 NA
ENDBRANCH   1   8
BRANCH   2  11
ATOM     11  C   UNL     1       2.666   4.267  18.362  0.00  0.00    +0.000 A 
ATOM     12  C   UNL     1       2.406   4.754  19.639  0.00  0.00    +0.000 A 
ATOM     13  C   UNL     1       1.412   4.137  20.390  0.00  0.00    +0.000 A 
ATOM     14  C   UNL     1       0.718   3.062  19.844  0.00  0.00    +0.000 A 
ATOM     15  C   UNL     1       1.049   2.641  18.562  0.00  0.00    +0.000 A 
ATOM     16  N   UNL     1       2.008   3.214  17.800  0.00  0.00    +0.000 NA
ENDBRANCH   2  11
TORSDOF 2
ENDMDL
MODEL 5
REMARK VINA RESULT:      -6.3      0.999      1.111
REMARK  Name = 
REMARK  3 active torsions:
REMARK  status: ('A' for Active; 'I' for Inactive)
REMARK    1  A    between atoms: C_1  and  N_2
REMARK    2  A    between atoms: C_4  and  N_5
REMARK    3  A    between atoms: C_6  and  C_8
REMARK                            x       y       z     vdW  Elec       q    Type
REMARK                         _______ _______ _______ _____ _____    ______ ____
ROOT
ATOM      1  N   UNL     1       4.656   4.245  17.294  0.00  0.00    +0.000 N 
ATOM      2  C   UNL     1       3.737   5.135  17.818  0.00  0.00    +0.000 C 
ATOM      3  O   UNL     1       3.645   6.332  17.557  0.00  0.00    +0.000 OA
ATOM      4  H   UNL     1       4.600   3.288  17.631  0.00  0.00    +0.000 HD
ENDROOT
BRANCH   1   8
ATOM      5  C   UNL     1       7.168   4.646  13.099  0.00  0.00    +0.000 C 
ATOM      6  N   UNL     1       6.737   4.754  14.471  0.00  0.00    +0.000 N 
ATOM      7  C   UNL     1       5.577   4.272  14.995  0.00  0.00    +0.000 A 
ATOM      8  C   UNL     1       5.604   4.560  16.338  0.00  0.00    +0.000 A 
ATOM      9  C   UNL     1       6.830   5.239  16.518  0.00  0.00    +0.000 A 
ATOM     10  N   UNL     1       7.525   5.360  15.380  0.00  0.00    +0.000 NA
ENDBRANCH   1   8
BRANCH   2  11
ATOM     11  C   UNL     1       2.779   4.519  18.788  0.00  0.00    +0.000 A 
ATOM     12  C   UNL     1       1.863   3.575  18.333  0.00  0.00    +0.000 A 
ATOM     13  C   UNL     1       0.998   2.999  19.255  0.00  0.00    +0.000 A 
ATOM     14  C   UNL     1       1.076   3.382  20.590  0.00  0.00    +0.000 A 
ATOM     15  C   UNL     1       2.018   4.336  20.953  0.00  0.00    +0.000 A 
ATOM     16  N   UNL     1       2.878   4.920  20.088  0.00  0.00    +0.000 NA
ENDBRANCH   2  11
TORSDOF 2
ENDMDL
MODEL 6
REMARK VINA RESULT:      -6.3      0.805      1.276
REMARK  Name = 
REMARK  3 active torsions:
REMARK  status: ('A' for Active; 'I' for Inactive)
REMARK    1  A    between atoms: C_1  and  N_2
REMARK    2  A    between atoms: C_4  and  N_5
REMARK    3  A    between atoms: C_6  and  C_8
REMARK                            x       y       z     vdW  Elec       q    Type
REMARK                         _______ _______ _______ _____ _____    ______ ____
ROOT
ATOM      1  N   UNL     1       4.845   3.839  17.794  0.00  0.00    +0.000 N 
ATOM      2  C   UNL     1       3.787   4.632  18.196  0.00  0.00    +0.000 C 
ATOM      3  O   UNL     1       3.497   5.744  17.762  0.00  0.00    +0.000 OA
ATOM      4  H   UNL     1       4.948   2.947  18.271  0.00  0.00    +0.000 HD
ENDROOT
BRANCH   1   8
ATOM      5  C   UNL     1       6.980   4.489  13.425  0.00  0.00    +0.000 C 
ATOM      6  N   UNL     1       6.700   4.462  14.840  0.00  0.00    +0.000 N 
ATOM      7  C   UNL     1       5.539   4.064  15.428  0.00  0.00    +0.000 A 
ATOM      8  C   UNL     1       5.732   4.159  16.784  0.00  0.00    +0.000 A 
ATOM      9  C   UNL     1       7.053   4.646  16.907  0.00  0.00    +0.000 A 
ATOM     10  N   UNL     1       7.648   4.833  15.722  0.00  0.00    +0.000 NA
ENDBRANCH   1   8
BRANCH   2  11
ATOM     11  C   UNL     1       2.939   4.018  19.266  0.00  0.00    +0.000 A 
ATOM     12  C   UNL     1       3.521   3.138  20.173  0.00  0.00    +0.000 A 
ATOM     13  C   UNL     1       2.720   2.597  21.172  0.00  0.00    +0.000 A 
ATOM     14  C   UNL     1       1.376   2.951  21.230  0.00  0.00    +0.000 A 
ATOM     15  C   UNL     1       0.880   3.833  20.280  0.00  0.00    +0.000 A 
ATOM     16  N   UNL     1       1.625   4.381  19.293  0.00  0.00    +0.000 NA
ENDBRANCH   2  11
TORSDOF 2
ENDMDL
MODEL 7
REMARK VINA RESULT:      -6.3      1.239      1.257
REMARK  Name = 
REMARK  3 active torsions:
REMARK  status: ('A' for Active; 'I' for Inactive)
REMARK    1  A    between atoms: C_1  and  N_2
REMARK    2  A    between atoms: C_4  and  N_5
REMARK    3  A    between atoms: C_6  and  C_8
REMARK                            x       y       z     vdW  Elec       q    Type
REMARK                         _______ _______ _______ _____ _____    ______ ____
ROOT
ATOM      1  N   UNL     1       4.332   4.582  17.731  0.00  0.00    +0.000 N 
ATOM      2  C   UNL     1       4.548   3.872  18.897  0.00  0.00    +0.000 C 
ATOM      3  O   UNL     1       5.624   3.443  19.306  0.00  0.00    +0.000 OA
ATOM      4  H   UNL     1       3.371   4.850  17.537  0.00  0.00    +0.000 HD
ENDROOT
BRANCH   1   8
ATOM      5  C   UNL     1       7.348   4.915  13.877  0.00  0.00    +0.000 C 
ATOM      6  N   UNL     1       6.676   5.140  15.133  0.00  0.00    +0.000 N 
ATOM      7  C   UNL     1       5.597   4.458  15.607  0.00  0.00    +0.000 A 
ATOM      8  C   UNL     1       5.322   4.972  16.850  0.00  0.00    +0.000 A 
ATOM      9  C   UNL     1       6.295   5.983  17.024  0.00  0.00    +0.000 A 
ATOM     10  N   UNL     1       7.123   6.089  15.977  0.00  0.00    +0.000 NA
ENDBRANCH   1   8
BRANCH   2  11
ATOM     11  C   UNL     1       3.311   3.638  19.705  0.00  0.00    +0.000 A 
ATOM     12  C   UNL     1       2.115   4.225  19.302  0.00  0.00    +0.000 A 
ATOM     13  C   UNL     1       0.973   3.977  20.054  0.00  0.00    +0.000 A 
ATOM     14  C   UNL     1       1.063   3.158  21.175  0.00  0.00    +0.000 A 
ATOM     15  C   UNL     1       2.300   2.619  21.505  0.00  0.00    +0.000 A 
ATOM     16  N   UNL     1       3.434   2.836  20.800  0.00  0.00    +0.000 NA
ENDBRANCH   2  11
TORSDOF 2
ENDMDL
MODEL 8
REMARK VINA RESULT:      -6.2      1.333      1.678
REMARK  Name = 
REMARK  3 active torsions:
REMARK  status: ('A' for Active; 'I' for Inactive)
REMARK    1  A    between atoms: C_1  and  N_2
REMARK    2  A    between atoms: C_4  and  N_5
REMARK    3  A    between atoms: C_6  and  C_8
REMARK                            x       y       z     vdW  Elec       q    Type
REMARK                         _______ _______ _______ _____ _____    ______ ____
ROOT
ATOM      1  N   UNL     1       4.667   4.260  17.950  0.00  0.00    +0.000 N 
ATOM      2  C   UNL     1       3.923   3.107  18.120  0.00  0.00    +0.000 C 
ATOM      3  O   UNL     1       3.980   2.089  17.436  0.00  0.00    +0.000 OA
ATOM      4  H   UNL     1       4.481   5.017  18.602  0.00  0.00    +0.000 HD
ENDROOT
BRANCH   1   8
ATOM      5  C   UNL     1       7.071   4.768  13.704  0.00  0.00    +0.000 C 
ATOM      6  N   UNL     1       6.738   4.666  15.104  0.00  0.00    +0.000 N 
ATOM      7  C   UNL     1       5.490   4.540  15.632  0.00  0.00    +0.000 A 
ATOM      8  C   UNL     1       5.647   4.432  16.991  0.00  0.00    +0.000 A 
ATOM      9  C   UNL     1       7.045   4.523  17.182  0.00  0.00    +0.000 A 
ATOM     10  N   UNL     1       7.715   4.667  16.031  0.00  0.00    +0.000 NA
ENDBRANCH   1   8
BRANCH   2  11
ATOM     11  C   UNL     1       2.975   3.161  19.277  0.00  0.00    +0.000 A 
ATOM     12  C   UNL     1       3.353   2.602  20.493  0.00  0.00    +0.000 A 
ATOM     13  C   UNL     1       2.467   2.683  21.561  0.00  0.00    +0.000 A 
ATOM     14  C   UNL     1       1.241   3.315  21.378  0.00  0.00    +0.000 A 
ATOM     15  C   UNL     1       0.946   3.840  20.127  0.00  0.00    +0.000 A 
ATOM     16  N   UNL     1       1.780   3.782  19.064  0.00  0.00    +0.000 NA
ENDBRANCH   2  11
TORSDOF 2
ENDMDL
MODEL 9
REMARK VINA RESULT:      -6.2      1.281      1.430
REMARK  Name = 
REMARK  3 active torsions:
REMARK  status: ('A' for Active; 'I' for Inactive)
REMARK    1  A    between atoms: C_1  and  N_2
REMARK    2  A    between atoms: C_4  and  N_5
REMARK    3  A    between atoms: C_6  and  C_8
REMARK                            x       y       z     vdW  Elec       q    Type
REMARK                         _______ _______ _______ _____ _____    ______ ____
ROOT
ATOM      1  N   UNL     1       4.389   4.307  17.003  0.00  0.00    +0.000 N 
ATOM      2  C   UNL     1       4.504   3.942  18.332  0.00  0.00    +0.000 C 
ATOM      3  O   UNL     1       5.544   3.829  18.974  0.00  0.00    +0.000 OA
ATOM      4  H   UNL     1       3.446   4.338  16.624  0.00  0.00    +0.000 HD
ENDROOT
BRANCH   1   8
ATOM      5  C   UNL     1       7.440   4.802  13.194  0.00  0.00    +0.000 C 
ATOM      6  N   UNL     1       6.821   4.893  14.494  0.00  0.00    +0.000 N 
ATOM      7  C   UNL     1       5.617   4.370  14.854  0.00  0.00    +0.000 A 
ATOM      8  C   UNL     1       5.447   4.656  16.187  0.00  0.00    +0.000 A 
ATOM      9  C   UNL     1       6.613   5.377  16.532  0.00  0.00    +0.000 A 
ATOM     10  N   UNL     1       7.454   5.525  15.501  0.00  0.00    +0.000 NA
ENDBRANCH   1   8
BRANCH   2  11
ATOM     11  C   UNL     1       3.194   3.680  19.006  0.00  0.00    +0.000 A 
ATOM     12  C   UNL     1       2.223   2.938  18.339  0.00  0.00    +0.000 A 
ATOM     13  C   UNL     1       1.022   2.686  18.992  0.00  0.00    +0.000 A 
ATOM     14  C   UNL     1       0.833   3.181  20.278  0.00  0.00    +0.000 A 
ATOM     15  C   UNL     1       1.855   3.916  20.864  0.00  0.00    +0.000 A 
ATOM     16  N   UNL     1       3.037   4.182  20.263  0.00  0.00    +0.000 NA
ENDBRANCH   2  11
TORSDOF 2
ENDMDL
