MODEL 1
REMARK VINA RESULT:      -8.8      0.000      0.000
REMARK  Name = 
REMARK  4 active torsions:
REMARK  status: ('A' for Active; 'I' for Inactive)
REMARK    1  A    between atoms: C_1  and  C_2
REMARK    2  A    between atoms: C_5  and  S_6
REMARK    3  A    between atoms: S_6  and  N_9
REMARK    4  A    between atoms: C_11  and  C_12
REMARK                            x       y       z     vdW  Elec       q    Type
REMARK                         _______ _______ _______ _____ _____    ______ ____
ROOT
ATOM      1  N   UNL     1       4.764   5.845  18.240  0.00  0.00    +0.000 N 
ATOM      2  C   UNL     1       4.205   7.079  18.029  0.00  0.00    +0.000 A 
ATOM      3  C   UNL     1       2.892   6.997  18.426  0.00  0.00    +0.000 A 
ATOM      4  C   UNL     1       2.652   5.678  18.912  0.00  0.00    +0.000 A 
ATOM      5  C   UNL     1       1.520   5.022  19.437  0.00  0.00    +0.000 A 
ATOM      6  C   UNL     1       1.610   3.678  19.809  0.00  0.00    +0.000 A 
ATOM      7  C   UNL     1       2.808   2.985  19.671  0.00  0.00    +0.000 A 
ATOM      8  C   UNL     1       3.950   3.612  19.162  0.00  0.00    +0.000 A 
ATOM      9  C   UNL     1       3.853   4.962  18.784  0.00  0.00    +0.000 A 
ENDROOT
BRANCH   3  10
ATOM     10  C   UNL     1       1.961   8.069  18.312  0.00  0.00    +0.000 C 
ATOM     11  C   UNL     1       1.318   8.639  19.341  0.00  0.00    +0.000 C 
ATOM     12  S   UNL     1       1.455   8.236  21.017  0.00  0.00    +0.000 S 
ATOM     13  C   UNL     1       0.273   9.435  21.484  0.00  0.00    +0.000 C 
ATOM     14  S   UNL     1      -0.248   9.753  23.022  0.00  0.00    +0.000 S 
ATOM     15  N   UNL     1      -0.177  10.093  20.379  0.00  0.00    +0.000 N 
ATOM     16  C   UNL     1       0.335   9.737  19.163  0.00  0.00    +0.000 C 
ATOM     17  O   UNL     1       0.027  10.248  18.100  0.00  0.00    +0.000 OA
ATOM     18  H   UNL     1      -0.869  10.823  20.443  0.00  0.00    +0.000 HD
ENDBRANCH   3  10
BRANCH   1  19
ATOM     19  S   UNL     1       6.371   5.465  17.826  0.00  0.00    +0.000 S 
ATOM     20  O   UNL     1       6.715   4.337  18.670  0.00  0.00    +0.000 OA
ATOM     21  O   UNL     1       7.105   6.716  17.867  0.00  0.00    +0.000 OA
BRANCH  19  26
ATOM     22  C   UNL     1       6.249   3.413  12.116  0.00  0.00    +0.000 C 
ATOM     23  C   UNL     1       6.282   3.962  13.514  0.00  0.00    +0.000 A 
ATOM     24  C   UNL     1       7.377   4.710  13.967  0.00  0.00    +0.000 A 
ATOM     25  C   UNL     1       7.419   5.190  15.279  0.00  0.00    +0.000 A 
ATOM     26  C   UNL     1       6.352   4.922  16.141  0.00  0.00    +0.000 A 
ATOM     27  C   UNL     1       5.251   4.181  15.698  0.00  0.00    +0.000 A 
ATOM     28  C   UNL     1       5.219   3.703  14.388  0.00  0.00    +0.000 A 
ENDBRANCH  19  26
ENDBRANCH   1  19
TORSDOF 3
ENDMDL
MODEL 2
REMARK VINA RESULT:      -8.5      0.647      1.132
REMARK  Name = 
REMARK  4 active torsions:
REMARK  status: ('A' for Active; 'I' for Inactive)
REMARK    1  A    between atoms: C_1  and  C_2
REMARK    2  A    between atoms: C_5  and  S_6
REMARK    3  A    between atoms: S_6  and  N_9
REMARK    4  A    between atoms: C_11  and  C_12
REMARK                            x       y       z     vdW  Elec       q    Type
REMARK                         _______ _______ _______ _____ _____    ______ ____
ROOT
ATOM      1  N   UNL     1       4.465   5.722  18.842  0.00  0.00    +0.000 N 
ATOM      2  C   UNL     1       3.985   6.962  18.507  0.00  0.00    +0.000 A 
ATOM      3  C   UNL     1       2.661   6.991  18.873  0.00  0.00    +0.000 A 
ATOM      4  C   UNL     1       2.333   5.737  19.468  0.00  0.00    +0.000 A 
ATOM      5  C   UNL     1       1.152   5.196  20.018  0.00  0.00    +0.000 A 
ATOM      6  C   UNL     1       1.154   3.889  20.510  0.00  0.00    +0.000 A 
ATOM      7  C   UNL     1       2.312   3.119  20.467  0.00  0.00    +0.000 A 
ATOM      8  C   UNL     1       3.500   3.631  19.936  0.00  0.00    +0.000 A 
ATOM      9  C   UNL     1       3.491   4.945  19.436  0.00  0.00    +0.000 A 
ENDROOT
BRANCH   3  10
ATOM     10  C   UNL     1       1.798   8.099  18.639  0.00  0.00    +0.000 C 
ATOM     11  C   UNL     1       1.132   8.767  19.591  0.00  0.00    +0.000 C 
ATOM     12  S   UNL     1       1.155   8.469  21.294  0.00  0.00    +0.000 S 
ATOM     13  C   UNL     1       0.018   9.755  21.616  0.00  0.00    +0.000 C 
ATOM     14  S   UNL     1      -0.569  10.199  23.099  0.00  0.00    +0.000 S 
ATOM     15  N   UNL     1      -0.335  10.361  20.449  0.00  0.00    +0.000 N 
ATOM     16  C   UNL     1       0.222   9.901  19.289  0.00  0.00    +0.000 C 
ATOM     17  O   UNL     1       0.000  10.356  18.180  0.00  0.00    +0.000 OA
ATOM     18  H   UNL     1      -0.989  11.129  20.427  0.00  0.00    +0.000 HD
ENDBRANCH   3  10
BRANCH   1  19
ATOM     19  S   UNL     1       6.055   5.216  18.508  0.00  0.00    +0.000 S 
ATOM     20  O   UNL     1       6.257   4.049  19.345  0.00  0.00    +0.000 OA
ATOM     21  O   UNL     1       6.888   6.399  18.616  0.00  0.00    +0.000 OA
BRANCH  19  26
ATOM     22  C   UNL     1       6.201   3.663  12.643  0.00  0.00    +0.000 C 
ATOM     23  C   UNL     1       6.166   4.005  14.105  0.00  0.00    +0.000 A 
ATOM     24  C   UNL     1       5.118   3.560  14.922  0.00  0.00    +0.000 A 
ATOM     25  C   UNL     1       5.071   3.910  16.275  0.00  0.00    +0.000 A 
ATOM     26  C   UNL     1       6.086   4.705  16.812  0.00  0.00    +0.000 A 
ATOM     27  C   UNL     1       7.140   5.150  16.008  0.00  0.00    +0.000 A 
ATOM     28  C   UNL     1       7.178   4.801  14.657  0.00  0.00    +0.000 A 
ENDBRANCH  19  26
ENDBRANCH   1  19
TORSDOF 3
ENDMDL
MODEL 3
REMARK VINA RESULT:      -8.2      2.768      3.562
REMARK  Name = 
REMARK  4 active torsions:
REMARK  status: ('A' for Active; 'I' for Inactive)
REMARK    1  A    between atoms: C_1  and  C_2
REMARK    2  A    between atoms: C_5  and  S_6
REMARK    3  A    between atoms: S_6  and  N_9
REMARK    4  A    between atoms: C_11  and  C_12
REMARK                            x       y       z     vdW  Elec       q    Type
REMARK                         _______ _______ _______ _____ _____    ______ ____
ROOT
ATOM      1  N   UNL     1       3.974   4.822  18.668  0.00  0.00    +0.000 N 
ATOM      2  C   UNL     1       3.787   5.956  19.415  0.00  0.00    +0.000 A 
ATOM      3  C   UNL     1       2.567   5.832  20.034  0.00  0.00    +0.000 A 
ATOM      4  C   UNL     1       2.005   4.573  19.669  0.00  0.00    +0.000 A 
ATOM      5  C   UNL     1       0.800   3.913  19.986  0.00  0.00    +0.000 A 
ATOM      6  C   UNL     1       0.529   2.661  19.427  0.00  0.00    +0.000 A 
ATOM      7  C   UNL     1       1.441   2.060  18.565  0.00  0.00    +0.000 A 
ATOM      8  C   UNL     1       2.648   2.687  18.239  0.00  0.00    +0.000 A 
ATOM      9  C   UNL     1       2.913   3.948  18.799  0.00  0.00    +0.000 A 
ENDROOT
BRANCH   3  10
ATOM     10  C   UNL     1       1.991   6.838  20.861  0.00  0.00    +0.000 C 
ATOM     11  C   UNL     1       1.620   8.056  20.442  0.00  0.00    +0.000 C 
ATOM     12  S   UNL     1       1.737   8.695  18.840  0.00  0.00    +0.000 S 
ATOM     13  C   UNL     1       1.082  10.241  19.322  0.00  0.00    +0.000 C 
ATOM     14  S   UNL     1       0.831  11.550  18.341  0.00  0.00    +0.000 S 
ATOM     15  N   UNL     1       0.797  10.226  20.654  0.00  0.00    +0.000 N 
ATOM     16  C   UNL     1       1.048   9.079  21.354  0.00  0.00    +0.000 C 
ATOM     17  O   UNL     1       0.835   8.927  22.545  0.00  0.00    +0.000 OA
ATOM     18  H   UNL     1       0.412  11.031  21.123  0.00  0.00    +0.000 HD
ENDBRANCH   3  10
BRANCH   1  19
ATOM     19  S   UNL     1       5.332   4.572  17.674  0.00  0.00    +0.000 S 
ATOM     20  O   UNL     1       4.797   4.483  16.329  0.00  0.00    +0.000 OA
ATOM     21  O   UNL     1       6.084   3.490  18.281  0.00  0.00    +0.000 OA
BRANCH  19  26
ATOM     22  C   UNL     1       8.744   9.555  18.272  0.00  0.00    +0.000 C 
ATOM     23  C   UNL     1       7.908   8.322  18.081  0.00  0.00    +0.000 A 
ATOM     24  C   UNL     1       6.783   8.338  17.245  0.00  0.00    +0.000 A 
ATOM     25  C   UNL     1       5.988   7.198  17.098  0.00  0.00    +0.000 A 
ATOM     26  C   UNL     1       6.327   6.032  17.788  0.00  0.00    +0.000 A 
ATOM     27  C   UNL     1       7.451   6.002  18.620  0.00  0.00    +0.000 A 
ATOM     28  C   UNL     1       8.238   7.145  18.765  0.00  0.00    +0.000 A 
ENDBRANCH  19  26
ENDBRANCH   1  19
TORSDOF 3
ENDMDL
MODEL 4
REMARK VINA RESULT:      -8.0      3.760      9.768
REMARK  Name = 
REMARK  4 active torsions:
REMARK  status: ('A' for Active; 'I' for Inactive)
REMARK    1  A    between atoms: C_1  and  C_2
REMARK    2  A    between atoms: C_5  and  S_6
REMARK    3  A    between atoms: S_6  and  N_9
REMARK    4  A    between atoms: C_11  and  C_12
REMARK                            x       y       z     vdW  Elec       q    Type
REMARK                         _______ _______ _______ _____ _____    ______ ____
ROOT
ATOM      1  N   UNL     1       0.313  11.980  19.639  0.00  0.00    +0.000 N 
ATOM      2  C   UNL     1       1.451  11.271  19.354  0.00  0.00    +0.000 A 
ATOM      3  C   UNL     1       1.092  10.272  18.482  0.00  0.00    +0.000 A 
ATOM      4  C   UNL     1      -0.303  10.392  18.212  0.00  0.00    +0.000 A 
ATOM      5  C   UNL     1      -1.210   9.665  17.413  0.00  0.00    +0.000 A 
ATOM      6  C   UNL     1      -2.558  10.034  17.385  0.00  0.00    +0.000 A 
ATOM      7  C   UNL     1      -3.010  11.115  18.134  0.00  0.00    +0.000 A 
ATOM      8  C   UNL     1      -2.133  11.860  18.929  0.00  0.00    +0.000 A 
ATOM      9  C   UNL     1      -0.780  11.481  18.959  0.00  0.00    +0.000 A 
ENDROOT
BRANCH   3  10
ATOM     10  C   UNL     1       1.994   9.286  17.990  0.00  0.00    +0.000 C 
ATOM     11  C   UNL     1       2.208   8.091  18.558  0.00  0.00    +0.000 C 
ATOM     12  S   UNL     1       1.462   7.457  19.983  0.00  0.00    +0.000 S 
ATOM     13  C   UNL     1       2.381   5.974  19.902  0.00  0.00    +0.000 C 
ATOM     14  S   UNL     1       2.294   4.706  20.962  0.00  0.00    +0.000 S 
ATOM     15  N   UNL     1       3.206   6.001  18.818  0.00  0.00    +0.000 N 
ATOM     16  C   UNL     1       3.182   7.109  18.017  0.00  0.00    +0.000 C 
ATOM     17  O   UNL     1       3.860   7.260  17.016  0.00  0.00    +0.000 OA
ATOM     18  H   UNL     1       3.822   5.233  18.601  0.00  0.00    +0.000 HD
ENDBRANCH   3  10
BRANCH   1  19
ATOM     19  S   UNL     1       0.274  13.279  20.739  0.00  0.00    +0.000 S 
ATOM     20  O   UNL     1      -0.037  14.442  19.929  0.00  0.00    +0.000 OA
ATOM     21  O   UNL     1       1.493  13.184  21.520  0.00  0.00    +0.000 OA
BRANCH  19  26
ATOM     22  C   UNL     1      -4.339  12.444  24.592  0.00  0.00    +0.000 C 
ATOM     23  C   UNL     1      -3.211  12.614  23.616  0.00  0.00    +0.000 A 
ATOM     24  C   UNL     1      -2.248  11.611  23.446  0.00  0.00    +0.000 A 
ATOM     25  C   UNL     1      -1.180  11.789  22.562  0.00  0.00    +0.000 A 
ATOM     26  C   UNL     1      -1.081  12.980  21.839  0.00  0.00    +0.000 A 
ATOM     27  C   UNL     1      -2.039  13.987  21.995  0.00  0.00    +0.000 A 
ATOM     28  C   UNL     1      -3.100  13.803  22.883  0.00  0.00    +0.000 A 
ENDBRANCH  19  26
ENDBRANCH   1  19
TORSDOF 3
ENDMDL
MODEL 5
REMARK VINA RESULT:      -8.0      2.451      3.493
REMARK  Name = 
REMARK  4 active torsions:
REMARK  status: ('A' for Active; 'I' for Inactive)
REMARK    1  A    between atoms: C_1  and  C_2
REMARK    2  A    between atoms: C_5  and  S_6
REMARK    3  A    between atoms: S_6  and  N_9
REMARK    4  A    between atoms: C_11  and  C_12
REMARK                            x       y       z     vdW  Elec       q    Type
REMARK                         _______ _______ _______ _____ _____    ______ ____
ROOT
ATOM      1  N   UNL     1       4.834   5.688  17.663  0.00  0.00    +0.000 N 
ATOM      2  C   UNL     1       4.313   6.956  17.703  0.00  0.00    +0.000 A 
ATOM      3  C   UNL     1       2.953   6.826  17.843  0.00  0.00    +0.000 A 
ATOM      4  C   UNL     1       2.639   5.437  17.913  0.00  0.00    +0.000 A 
ATOM      5  C   UNL     1       1.438   4.712  18.050  0.00  0.00    +0.000 A 
ATOM      6  C   UNL     1       1.469   3.315  18.058  0.00  0.00    +0.000 A 
ATOM      7  C   UNL     1       2.676   2.635  17.937  0.00  0.00    +0.000 A 
ATOM      8  C   UNL     1       3.885   3.326  17.807  0.00  0.00    +0.000 A 
ATOM      9  C   UNL     1       3.847   4.731  17.794  0.00  0.00    +0.000 A 
ENDROOT
BRANCH   3  10
ATOM     10  C   UNL     1       2.050   7.927  17.871  0.00  0.00    +0.000 C 
ATOM     11  C   UNL     1       1.502   8.442  18.981  0.00  0.00    +0.000 C 
ATOM     12  S   UNL     1       1.747   7.922  20.611  0.00  0.00    +0.000 S 
ATOM     13  C   UNL     1       0.640   9.117  21.243  0.00  0.00    +0.000 C 
ATOM     14  S   UNL     1       0.242   9.342  22.834  0.00  0.00    +0.000 S 
ATOM     15  N   UNL     1       0.132   9.860  20.222  0.00  0.00    +0.000 N 
ATOM     16  C   UNL     1       0.543   9.576  18.950  0.00  0.00    +0.000 C 
ATOM     17  O   UNL     1       0.174  10.166  17.949  0.00  0.00    +0.000 OA
ATOM     18  H   UNL     1      -0.531  10.603  20.386  0.00  0.00    +0.000 HD
ENDBRANCH   3  10
BRANCH   1  19
ATOM     19  S   UNL     1       6.488   5.366  17.430  0.00  0.00    +0.000 S 
ATOM     20  O   UNL     1       6.624   5.132  16.005  0.00  0.00    +0.000 OA
ATOM     21  O   UNL     1       6.848   4.364  18.416  0.00  0.00    +0.000 OA
BRANCH  19  26
ATOM     22  C   UNL     1       9.430  10.421  19.046  0.00  0.00    +0.000 C 
ATOM     23  C   UNL     1       8.723   9.172  18.607  0.00  0.00    +0.000 A 
ATOM     24  C   UNL     1       7.887   9.175  17.482  0.00  0.00    +0.000 A 
ATOM     25  C   UNL     1       7.203   8.018  17.098  0.00  0.00    +0.000 A 
ATOM     26  C   UNL     1       7.364   6.848  17.843  0.00  0.00    +0.000 A 
ATOM     27  C   UNL     1       8.199   6.831  18.965  0.00  0.00    +0.000 A 
ATOM     28  C   UNL     1       8.876   7.991  19.345  0.00  0.00    +0.000 A 
ENDBRANCH  19  26
ENDBRANCH   1  19
TORSDOF 3
ENDMDL
MODEL 6
REMARK VINA RESULT:      -7.7      3.978      7.296
REMARK  Name = 
REMARK  4 active torsions:
REMARK  status: ('A' for Active; 'I' for Inactive)
REMARK    1  A    between atoms: C_1  and  C_2
REMARK    2  A    between atoms: C_5  and  S_6
REMARK    3  A    between atoms: S_6  and  N_9
REMARK    4  A    between atoms: C_11  and  C_12
REMARK                            x       y       z     vdW  Elec       q    Type
REMARK                         _______ _______ _______ _____ _____    ______ ____
ROOT
ATOM      1  N   UNL     1       0.114  10.028  20.055  0.00  0.00    +0.000 N 
ATOM      2  C   UNL     1      -0.788   9.656  19.092  0.00  0.00    +0.000 A 
ATOM      3  C   UNL     1      -1.108  10.789  18.384  0.00  0.00    +0.000 A 
ATOM      4  C   UNL     1      -0.361  11.879  18.921  0.00  0.00    +0.000 A 
ATOM      5  C   UNL     1      -0.277  13.253  18.611  0.00  0.00    +0.000 A 
ATOM      6  C   UNL     1       0.555  14.083  19.367  0.00  0.00    +0.000 A 
ATOM      7  C   UNL     1       1.306  13.564  20.416  0.00  0.00    +0.000 A 
ATOM      8  C   UNL     1       1.251  12.205  20.741  0.00  0.00    +0.000 A 
ATOM      9  C   UNL     1       0.407  11.375  19.983  0.00  0.00    +0.000 A 
ENDROOT
BRANCH   3  10
ATOM     10  C   UNL     1      -2.060  10.821  17.326  0.00  0.00    +0.000 C 
ATOM     11  C   UNL     1      -3.334  11.219  17.453  0.00  0.00    +0.000 C 
ATOM     12  S   UNL     1      -4.120  11.783  18.885  0.00  0.00    +0.000 S 
ATOM     13  C   UNL     1      -5.648  11.988  18.063  0.00  0.00    +0.000 C 
ATOM     14  S   UNL     1      -7.061  12.526  18.737  0.00  0.00    +0.000 S 
ATOM     15  N   UNL     1      -5.518  11.634  16.755  0.00  0.00    +0.000 N 
ATOM     16  C   UNL     1      -4.295  11.206  16.320  0.00  0.00    +0.000 C 
ATOM     17  O   UNL     1      -4.039  10.867  15.177  0.00  0.00    +0.000 OA
ATOM     18  H   UNL     1      -6.295  11.680  16.113  0.00  0.00    +0.000 HD
ENDBRANCH   3  10
BRANCH   1  19
ATOM     19  S   UNL     1       0.739   8.950  21.215  0.00  0.00    +0.000 S 
ATOM     20  O   UNL     1      -0.429   8.374  21.855  0.00  0.00    +0.000 OA
ATOM     21  O   UNL     1       1.741   9.691  21.957  0.00  0.00    +0.000 OA
BRANCH  19  26
ATOM     22  C   UNL     1       3.531   4.632  17.992  0.00  0.00    +0.000 C 
ATOM     23  C   UNL     1       2.867   5.692  18.823  0.00  0.00    +0.000 A 
ATOM     24  C   UNL     1       2.257   5.373  20.044  0.00  0.00    +0.000 A 
ATOM     25  C   UNL     1       1.610   6.357  20.797  0.00  0.00    +0.000 A 
ATOM     26  C   UNL     1       1.581   7.671  20.325  0.00  0.00    +0.000 A 
ATOM     27  C   UNL     1       2.192   8.003  19.112  0.00  0.00    +0.000 A 
ATOM     28  C   UNL     1       2.832   7.015  18.363  0.00  0.00    +0.000 A 
ENDBRANCH  19  26
ENDBRANCH   1  19
TORSDOF 3
ENDMDL
MODEL 7
REMARK VINA RESULT:      -7.6      4.056      7.552
REMARK  Name = 
REMARK  4 active torsions:
REMARK  status: ('A' for Active; 'I' for Inactive)
REMARK    1  A    between atoms: C_1  and  C_2
REMARK    2  A    between atoms: C_5  and  S_6
REMARK    3  A    between atoms: S_6  and  N_9
REMARK    4  A    between atoms: C_11  and  C_12
REMARK                            x       y       z     vdW  Elec       q    Type
REMARK                         _______ _______ _______ _____ _____    ______ ____
ROOT
ATOM      1  N   UNL     1      -0.108  10.457  20.452  0.00  0.00    +0.000 N 
ATOM      2  C   UNL     1      -1.377  10.321  19.951  0.00  0.00    +0.000 A 
ATOM      3  C   UNL     1      -1.697  11.511  19.343  0.00  0.00    +0.000 A 
ATOM      4  C   UNL     1      -0.580  12.389  19.460  0.00  0.00    +0.000 A 
ATOM      5  C   UNL     1      -0.330  13.712  19.041  0.00  0.00    +0.000 A 
ATOM      6  C   UNL     1       0.894  14.314  19.344  0.00  0.00    +0.000 A 
ATOM      7  C   UNL     1       1.869  13.617  20.050  0.00  0.00    +0.000 A 
ATOM      8  C   UNL     1       1.653  12.301  20.471  0.00  0.00    +0.000 A 
ATOM      9  C   UNL     1       0.418  11.702  20.169  0.00  0.00    +0.000 A 
ENDROOT
BRANCH   3  10
ATOM     10  C   UNL     1      -2.961  11.781  18.745  0.00  0.00    +0.000 C 
ATOM     11  C   UNL     1      -3.331  11.385  17.519  0.00  0.00    +0.000 C 
ATOM     12  S   UNL     1      -2.399  10.468  16.387  0.00  0.00    +0.000 S 
ATOM     13  C   UNL     1      -3.664  10.517  15.184  0.00  0.00    +0.000 C 
ATOM     14  S   UNL     1      -3.610   9.840  13.674  0.00  0.00    +0.000 S 
ATOM     15  N   UNL     1      -4.733  11.209  15.667  0.00  0.00    +0.000 N 
ATOM     16  C   UNL     1      -4.654  11.718  16.933  0.00  0.00    +0.000 C 
ATOM     17  O   UNL     1      -5.537  12.348  17.489  0.00  0.00    +0.000 OA
ATOM     18  H   UNL     1      -5.566  11.350  15.116  0.00  0.00    +0.000 HD
ENDBRANCH   3  10
BRANCH   1  19
ATOM     19  S   UNL     1       0.676   9.242  21.349  0.00  0.00    +0.000 S 
ATOM     20  O   UNL     1      -0.397   8.459  21.932  0.00  0.00    +0.000 OA
ATOM     21  O   UNL     1       1.670   9.917  22.162  0.00  0.00    +0.000 OA
BRANCH  19  26
ATOM     22  C   UNL     1       3.790   5.707  17.524  0.00  0.00    +0.000 C 
ATOM     23  C   UNL     1       2.988   6.586  18.440  0.00  0.00    +0.000 A 
ATOM     24  C   UNL     1       2.652   7.895  18.070  0.00  0.00    +0.000 A 
ATOM     25  C   UNL     1       1.935   8.721  18.941  0.00  0.00    +0.000 A 
ATOM     26  C   UNL     1       1.547   8.227  20.188  0.00  0.00    +0.000 A 
ATOM     27  C   UNL     1       1.870   6.920  20.567  0.00  0.00    +0.000 A 
ATOM     28  C   UNL     1       2.590   6.103  19.694  0.00  0.00    +0.000 A 
ENDBRANCH  19  26
ENDBRANCH   1  19
TORSDOF 3
ENDMDL
MODEL 8
REMARK VINA RESULT:      -7.5      1.714      1.962
REMARK  Name = 
REMARK  4 active torsions:
REMARK  status: ('A' for Active; 'I' for Inactive)
REMARK    1  A    between atoms: C_1  and  C_2
REMARK    2  A    between atoms: C_5  and  S_6
REMARK    3  A    between atoms: S_6  and  N_9
REMARK    4  A    between atoms: C_11  and  C_12
REMARK                            x       y       z     vdW  Elec       q    Type
REMARK                         _______ _______ _______ _____ _____    ______ ____
ROOT
ATOM      1  N   UNL     1       4.284   5.299  18.883  0.00  0.00    +0.000 N 
ATOM      2  C   UNL     1       3.692   6.277  19.640  0.00  0.00    +0.000 A 
ATOM      3  C   UNL     1       2.411   5.859  19.904  0.00  0.00    +0.000 A 
ATOM      4  C   UNL     1       2.225   4.577  19.307  0.00  0.00    +0.000 A 
ATOM      5  C   UNL     1       1.141   3.677  19.242  0.00  0.00    +0.000 A 
ATOM      6  C   UNL     1       1.277   2.480  18.535  0.00  0.00    +0.000 A 
ATOM      7  C   UNL     1       2.475   2.166  17.901  0.00  0.00    +0.000 A 
ATOM      8  C   UNL     1       3.570   3.035  17.955  0.00  0.00    +0.000 A 
ATOM      9  C   UNL     1       3.426   4.241  18.661  0.00  0.00    +0.000 A 
ENDROOT
BRANCH   3  10
ATOM     10  C   UNL     1       1.457   6.632  20.626  0.00  0.00    +0.000 C 
ATOM     11  C   UNL     1       1.139   7.905  20.355  0.00  0.00    +0.000 C 
ATOM     12  S   UNL     1       1.780   8.903  19.097  0.00  0.00    +0.000 S 
ATOM     13  C   UNL     1       0.823  10.279  19.589  0.00  0.00    +0.000 C 
ATOM     14  S   UNL     1       0.818  11.775  18.882  0.00  0.00    +0.000 S 
ATOM     15  N   UNL     1       0.060   9.947  20.667  0.00  0.00    +0.000 N 
ATOM     16  C   UNL     1       0.154   8.674  21.158  0.00  0.00    +0.000 C 
ATOM     17  O   UNL     1      -0.475   8.245  22.110  0.00  0.00    +0.000 OA
ATOM     18  H   UNL     1      -0.561  10.612  21.102  0.00  0.00    +0.000 HD
ENDBRANCH   3  10
BRANCH   1  19
ATOM     19  S   UNL     1       5.865   5.425  18.266  0.00  0.00    +0.000 S 
ATOM     20  O   UNL     1       6.625   4.418  18.982  0.00  0.00    +0.000 OA
ATOM     21  O   UNL     1       6.208   6.834  18.317  0.00  0.00    +0.000 OA
BRANCH  19  26
ATOM     22  C   UNL     1       5.800   3.785  12.424  0.00  0.00    +0.000 C 
ATOM     23  C   UNL     1       5.772   4.194  13.869  0.00  0.00    +0.000 A 
ATOM     24  C   UNL     1       5.244   5.433  14.255  0.00  0.00    +0.000 A 
ATOM     25  C   UNL     1       5.252   5.824  15.597  0.00  0.00    +0.000 A 
ATOM     26  C   UNL     1       5.788   4.964  16.558  0.00  0.00    +0.000 A 
ATOM     27  C   UNL     1       6.313   3.723  16.185  0.00  0.00    +0.000 A 
ATOM     28  C   UNL     1       6.305   3.341  14.843  0.00  0.00    +0.000 A 
ENDBRANCH  19  26
ENDBRANCH   1  19
TORSDOF 3
ENDMDL
MODEL 9
REMARK VINA RESULT:      -7.4      4.059      7.288
REMARK  Name = 
REMARK  4 active torsions:
REMARK  status: ('A' for Active; 'I' for Inactive)
REMARK    1  A    between atoms: C_1  and  C_2
REMARK    2  A    between atoms: C_5  and  S_6
REMARK    3  A    between atoms: S_6  and  N_9
REMARK    4  A    between atoms: C_11  and  C_12
REMARK                            x       y       z     vdW  Elec       q    Type
REMARK                         _______ _______ _______ _____ _____    ______ ____
ROOT
ATOM      1  N   UNL     1       0.183  10.563  20.403  0.00  0.00    +0.000 N 
ATOM      2  C   UNL     1       0.720  11.797  20.665  0.00  0.00    +0.000 A 
ATOM      3  C   UNL     1       0.187  12.669  19.747  0.00  0.00    +0.000 A 
ATOM      4  C   UNL     1      -0.718  11.946  18.915  0.00  0.00    +0.000 A 
ATOM      5  C   UNL     1      -1.538  12.302  17.824  0.00  0.00    +0.000 A 
ATOM      6  C   UNL     1      -2.310  11.324  17.191  0.00  0.00    +0.000 A 
ATOM      7  C   UNL     1      -2.281  10.005  17.633  0.00  0.00    +0.000 A 
ATOM      8  C   UNL     1      -1.485   9.625  18.718  0.00  0.00    +0.000 A 
ATOM      9  C   UNL     1      -0.705  10.610  19.347  0.00  0.00    +0.000 A 
ENDROOT
BRANCH   3  10
ATOM     10  C   UNL     1       0.543  14.045  19.660  0.00  0.00    +0.000 C 
ATOM     11  C   UNL     1       1.724  14.506  19.224  0.00  0.00    +0.000 C 
ATOM     12  S   UNL     1       3.072  13.578  18.667  0.00  0.00    +0.000 S 
ATOM     13  C   UNL     1       4.043  15.004  18.394  0.00  0.00    +0.000 C 
ATOM     14  S   UNL     1       5.597  15.039  17.825  0.00  0.00    +0.000 S 
ATOM     15  N   UNL     1       3.331  16.117  18.722  0.00  0.00    +0.000 N 
ATOM     16  C   UNL     1       2.053  15.953  19.180  0.00  0.00    +0.000 C 
ATOM     17  O   UNL     1       1.305  16.861  19.501  0.00  0.00    +0.000 OA
ATOM     18  H   UNL     1       3.723  17.042  18.636  0.00  0.00    +0.000 HD
ENDBRANCH   3  10
BRANCH   1  19
ATOM     19  S   UNL     1       0.613   9.157  21.259  0.00  0.00    +0.000 S 
ATOM     20  O   UNL     1      -0.648   8.513  21.576  0.00  0.00    +0.000 OA
ATOM     21  O   UNL     1       1.546   9.579  22.288  0.00  0.00    +0.000 OA
BRANCH  19  26
ATOM     22  C   UNL     1       3.800   5.559  17.554  0.00  0.00    +0.000 C 
ATOM     23  C   UNL     1       2.980   6.453  18.440  0.00  0.00    +0.000 A 
ATOM     24  C   UNL     1       2.646   7.753  18.039  0.00  0.00    +0.000 A 
ATOM     25  C   UNL     1       1.913   8.593  18.882  0.00  0.00    +0.000 A 
ATOM     26  C   UNL     1       1.506   8.123  20.133  0.00  0.00    +0.000 A 
ATOM     27  C   UNL     1       1.828   6.825  20.541  0.00  0.00    +0.000 A 
ATOM     28  C   UNL     1       2.564   5.993  19.696  0.00  0.00    +0.000 A 
ENDBRANCH  19  26
ENDBRANCH   1  19
TORSDOF 3
ENDMDL
