MODEL 1
REMARK VINA RESULT:      -7.0      0.000      0.000
REMARK  Name = 
REMARK  8 active torsions:
REMARK  status: ('A' for Active; 'I' for Inactive)
REMARK    1  A    between atoms: C_1  and  C_2
REMARK    2  A    between atoms: C_2  and  C_3
REMARK    3  A    between atoms: C_2  and  C_4
REMARK    4  A    between atoms: C_4  and  C_5
REMARK    5  A    between atoms: C_5  and  C_6
REMARK    6  A    between atoms: C_5  and  N_17
REMARK    7  A    between atoms: N_10  and  C_11
REMARK    8  A    between atoms: C_21  and  C_23
REMARK                            x       y       z     vdW  Elec       q    Type
REMARK                         _______ _______ _______ _____ _____    ______ ____
ROOT
ATOM      1  C   UNL     1       2.865   6.480  18.254  0.00  0.00    +0.000 C 
ENDROOT
BRANCH   1   2
ATOM      2  N   UNL     1       4.168   7.138  17.939  0.00  0.00    +0.000 NA
ATOM      3  C   UNL     1       5.421   6.688  18.586  0.00  0.00    +0.000 C 
ATOM      4  C   UNL     1       6.046   5.459  17.903  0.00  0.00    +0.000 C 
ATOM      5  N   UNL     1       6.152   5.625  16.450  0.00  0.00    +0.000 N 
ATOM      6  C   UNL     1       7.010   4.778  15.773  0.00  0.00    +0.000 C 
ATOM      7  O   UNL     1       7.704   3.989  16.404  0.00  0.00    +0.000 OA
ATOM      8  C   UNL     1       5.034   6.266  15.738  0.00  0.00    +0.000 C 
ATOM      9  C   UNL     1       4.424   7.438  16.519  0.00  0.00    +0.000 C 
BRANCH   6  10
ATOM     10  C   UNL     1       7.155   4.763  14.294  0.00  0.00    +0.000 A 
ATOM     11  C   UNL     1       6.516   3.893  13.429  0.00  0.00    +0.000 A 
ATOM     12  C   UNL     1       6.961   4.222  12.166  0.00  0.00    +0.000 A 
ATOM     13  C   UNL     1       7.855   5.255  12.332  0.00  0.00    +0.000 A 
ATOM     14  O   UNL     1       7.945   5.550  13.604  0.00  0.00    +0.000 OA
ENDBRANCH   6  10
ENDBRANCH   1   2
BRANCH   1  15
ATOM     15  C   UNL     1       2.132   7.286  19.311  0.00  0.00    +0.000 A 
ATOM     16  N   UNL     1       2.021   6.871  20.591  0.00  0.00    +0.000 NA
ATOM     17  N   UNL     1       1.344   7.811  21.224  0.00  0.00    +0.000 NA
ATOM     18  N   UNL     1       1.035   8.782  20.381  0.00  0.00    +0.000 NA
ATOM     19  N   UNL     1       1.506   8.490  19.177  0.00  0.00    +0.000 N 
BRANCH  19  20
ATOM     20  C   UNL     1       1.339   9.358  17.985  0.00  0.00    +0.000 C 
ATOM     21  C   UNL     1      -0.152   9.631  17.683  0.00  0.00    +0.000 C 
ATOM     22  C   UNL     1      -0.810  10.545  18.737  0.00  0.00    +0.000 C 
ATOM     23  C   UNL     1      -0.046  11.874  18.845  0.00  0.00    +0.000 C 
ATOM     24  C   UNL     1       1.441  11.645  19.163  0.00  0.00    +0.000 C 
ATOM     25  C   UNL     1       2.083  10.712  18.120  0.00  0.00    +0.000 C 
ENDBRANCH  19  20
ENDBRANCH   1  15
BRANCH   1  26
ATOM     26  C   UNL     1       3.046   5.010  18.703  0.00  0.00    +0.000 C 
BRANCH  26  28
ATOM     27  C   UNL     1       3.572   2.713  17.716  0.00  0.00    +0.000 C 
ATOM     28  C   UNL     1       2.567   3.873  17.779  0.00  0.00    +0.000 C 
ATOM     29  C   UNL     1       1.235   3.354  18.362  0.00  0.00    +0.000 C 
ENDBRANCH  26  28
ENDBRANCH   1  26
TORSDOF 6
ENDMDL
MODEL 2
REMARK VINA RESULT:      -6.3      3.556      6.483
REMARK  Name = 
REMARK  8 active torsions:
REMARK  status: ('A' for Active; 'I' for Inactive)
REMARK    1  A    between atoms: C_1  and  C_2
REMARK    2  A    between atoms: C_2  and  C_3
REMARK    3  A    between atoms: C_2  and  C_4
REMARK    4  A    between atoms: C_4  and  C_5
REMARK    5  A    between atoms: C_5  and  C_6
REMARK    6  A    between atoms: C_5  and  N_17
REMARK    7  A    between atoms: N_10  and  C_11
REMARK    8  A    between atoms: C_21  and  C_23
REMARK                            x       y       z     vdW  Elec       q    Type
REMARK                         _______ _______ _______ _____ _____    ______ ____
ROOT
ATOM      1  C   UNL     1      -0.523  11.473  18.610  0.00  0.00    +0.000 C 
ENDROOT
BRANCH   1   2
ATOM      2  N   UNL     1       0.855  11.242  19.136  0.00  0.00    +0.000 NA
ATOM      3  C   UNL     1       1.068  10.728  20.507  0.00  0.00    +0.000 C 
ATOM      4  C   UNL     1       0.933   9.198  20.608  0.00  0.00    +0.000 C 
ATOM      5  N   UNL     1       1.717   8.503  19.583  0.00  0.00    +0.000 N 
ATOM      6  C   UNL     1       1.978   7.160  19.782  0.00  0.00    +0.000 C 
ATOM      7  O   UNL     1       1.625   6.624  20.826  0.00  0.00    +0.000 OA
ATOM      8  C   UNL     1       1.743   9.066  18.223  0.00  0.00    +0.000 C 
ATOM      9  C   UNL     1       1.809  10.599  18.213  0.00  0.00    +0.000 C 
BRANCH   6  10
ATOM     10  C   UNL     1       2.679   6.301  18.791  0.00  0.00    +0.000 A 
ATOM     11  C   UNL     1       2.228   5.083  18.316  0.00  0.00    +0.000 A 
ATOM     12  C   UNL     1       3.197   4.636  17.445  0.00  0.00    +0.000 A 
ATOM     13  C   UNL     1       4.189   5.590  17.452  0.00  0.00    +0.000 A 
ATOM     14  O   UNL     1       3.849   6.562  18.258  0.00  0.00    +0.000 OA
ENDBRANCH   6  10
ENDBRANCH   1   2
BRANCH   1  15
ATOM     15  C   UNL     1      -1.220  12.521  19.459  0.00  0.00    +0.000 A 
ATOM     16  N   UNL     1      -2.204  12.212  20.329  0.00  0.00    +0.000 NA
ATOM     17  N   UNL     1      -2.564  13.349  20.896  0.00  0.00    +0.000 NA
ATOM     18  N   UNL     1      -1.839  14.340  20.405  0.00  0.00    +0.000 NA
ATOM     19  N   UNL     1      -0.993  13.865  19.503  0.00  0.00    +0.000 N 
BRANCH  19  20
ATOM     20  C   UNL     1      -0.028  14.701  18.745  0.00  0.00    +0.000 C 
ATOM     21  C   UNL     1      -0.413  16.197  18.789  0.00  0.00    +0.000 C 
ATOM     22  C   UNL     1      -0.219  16.817  20.187  0.00  0.00    +0.000 C 
ATOM     23  C   UNL     1       1.235  16.637  20.655  0.00  0.00    +0.000 C 
ATOM     24  C   UNL     1       1.651  15.156  20.644  0.00  0.00    +0.000 C 
ATOM     25  C   UNL     1       1.430  14.540  19.250  0.00  0.00    +0.000 C 
ENDBRANCH  19  20
ENDBRANCH   1  15
BRANCH   1  26
ATOM     26  C   UNL     1      -1.352  10.168  18.550  0.00  0.00    +0.000 C 
BRANCH  26  28
ATOM     27  C   UNL     1      -3.733   9.662  17.771  0.00  0.00    +0.000 C 
ATOM     28  C   UNL     1      -2.278   9.917  17.344  0.00  0.00    +0.000 C 
ATOM     29  C   UNL     1      -2.228  11.186  16.467  0.00  0.00    +0.000 C 
ENDBRANCH  26  28
ENDBRANCH   1  26
TORSDOF 6
ENDMDL
MODEL 3
REMARK VINA RESULT:      -6.2      3.437      6.699
REMARK  Name = 
REMARK  8 active torsions:
REMARK  status: ('A' for Active; 'I' for Inactive)
REMARK    1  A    between atoms: C_1  and  C_2
REMARK    2  A    between atoms: C_2  and  C_3
REMARK    3  A    between atoms: C_2  and  C_4
REMARK    4  A    between atoms: C_4  and  C_5
REMARK    5  A    between atoms: C_5  and  C_6
REMARK    6  A    between atoms: C_5  and  N_17
REMARK    7  A    between atoms: N_10  and  C_11
REMARK    8  A    between atoms: C_21  and  C_23
REMARK                            x       y       z     vdW  Elec       q    Type
REMARK                         _______ _______ _______ _____ _____    ______ ____
ROOT
ATOM      1  C   UNL     1      -0.580  10.532  20.582  0.00  0.00    +0.000 C 
ENDROOT
BRANCH   1   2
ATOM      2  N   UNL     1       0.871  10.239  20.778  0.00  0.00    +0.000 NA
ATOM      3  C   UNL     1       1.335   9.446  21.938  0.00  0.00    +0.000 C 
ATOM      4  C   UNL     1       1.209   7.928  21.723  0.00  0.00    +0.000 C 
ATOM      5  N   UNL     1       1.781   7.500  20.443  0.00  0.00    +0.000 N 
ATOM      6  C   UNL     1       2.063   6.155  20.289  0.00  0.00    +0.000 C 
ATOM      7  O   UNL     1       1.910   5.393  21.237  0.00  0.00    +0.000 OA
ATOM      8  C   UNL     1       1.554   8.346  19.260  0.00  0.00    +0.000 C 
ATOM      9  C   UNL     1       1.628   9.846  19.576  0.00  0.00    +0.000 C 
BRANCH   6  10
ATOM     10  C   UNL     1       2.558   5.557  19.021  0.00  0.00    +0.000 A 
ATOM     11  C   UNL     1       1.911   4.584  18.281  0.00  0.00    +0.000 A 
ATOM     12  C   UNL     1       2.735   4.315  17.210  0.00  0.00    +0.000 A 
ATOM     13  C   UNL     1       3.842   5.118  17.366  0.00  0.00    +0.000 A 
ATOM     14  O   UNL     1       3.702   5.841  18.447  0.00  0.00    +0.000 OA
ENDBRANCH   6  10
ENDBRANCH   1   2
BRANCH   1  15
ATOM     15  C   UNL     1      -0.752  11.467  19.398  0.00  0.00    +0.000 A 
ATOM     16  N   UNL     1      -0.108  12.650  19.309  0.00  0.00    +0.000 NA
ATOM     17  N   UNL     1      -0.478  13.183  18.160  0.00  0.00    +0.000 NA
ATOM     18  N   UNL     1      -1.325  12.374  17.545  0.00  0.00    +0.000 NA
ATOM     19  N   UNL     1      -1.524  11.295  18.287  0.00  0.00    +0.000 N 
BRANCH  19  20
ATOM     20  C   UNL     1      -2.421  10.176  17.905  0.00  0.00    +0.000 C 
ATOM     21  C   UNL     1      -3.901  10.503  18.209  0.00  0.00    +0.000 C 
ATOM     22  C   UNL     1      -4.469  11.592  17.278  0.00  0.00    +0.000 C 
ATOM     23  C   UNL     1      -4.318  11.171  15.807  0.00  0.00    +0.000 C 
ATOM     24  C   UNL     1      -2.854  10.855  15.459  0.00  0.00    +0.000 C 
ATOM     25  C   UNL     1      -2.288   9.784  16.411  0.00  0.00    +0.000 C 
ENDBRANCH  19  20
ENDBRANCH   1  15
BRANCH   1  26
ATOM     26  C   UNL     1      -1.234  11.122  21.855  0.00  0.00    +0.000 C 
BRANCH  26  28
ATOM     27  C   UNL     1      -3.341  12.543  22.121  0.00  0.00    +0.000 C 
ATOM     28  C   UNL     1      -1.837  12.540  21.806  0.00  0.00    +0.000 C 
ATOM     29  C   UNL     1      -1.099  13.377  22.872  0.00  0.00    +0.000 C 
ENDBRANCH  26  28
ENDBRANCH   1  26
TORSDOF 6
ENDMDL
MODEL 4
REMARK VINA RESULT:      -6.2      3.246      6.181
REMARK  Name = 
REMARK  8 active torsions:
REMARK  status: ('A' for Active; 'I' for Inactive)
REMARK    1  A    between atoms: C_1  and  C_2
REMARK    2  A    between atoms: C_2  and  C_3
REMARK    3  A    between atoms: C_2  and  C_4
REMARK    4  A    between atoms: C_4  and  C_5
REMARK    5  A    between atoms: C_5  and  C_6
REMARK    6  A    between atoms: C_5  and  N_17
REMARK    7  A    between atoms: N_10  and  C_11
REMARK    8  A    between atoms: C_21  and  C_23
REMARK                            x       y       z     vdW  Elec       q    Type
REMARK                         _______ _______ _______ _____ _____    ______ ____
ROOT
ATOM      1  C   UNL     1       1.245  10.684  20.320  0.00  0.00    +0.000 C 
ENDROOT
BRANCH   1   2
ATOM      2  N   UNL     1       0.709   9.623  19.416  0.00  0.00    +0.000 NA
ATOM      3  C   UNL     1       1.047   9.612  17.975  0.00  0.00    +0.000 C 
ATOM      4  C   UNL     1       2.412   8.968  17.679  0.00  0.00    +0.000 C 
ATOM      5  N   UNL     1       2.566   7.666  18.336  0.00  0.00    +0.000 N 
ATOM      6  C   UNL     1       3.563   6.830  17.869  0.00  0.00    +0.000 C 
ATOM      7  O   UNL     1       4.219   7.161  16.888  0.00  0.00    +0.000 OA
ATOM      8  C   UNL     1       2.059   7.514  19.710  0.00  0.00    +0.000 C 
ATOM      9  C   UNL     1       0.729   8.245  19.939  0.00  0.00    +0.000 C 
BRANCH   6  10
ATOM     10  C   UNL     1       3.901   5.523  18.491  0.00  0.00    +0.000 A 
ATOM     11  C   UNL     1       5.145   5.152  18.968  0.00  0.00    +0.000 A 
ATOM     12  C   UNL     1       5.003   3.861  19.430  0.00  0.00    +0.000 A 
ATOM     13  C   UNL     1       3.693   3.511  19.192  0.00  0.00    +0.000 A 
ATOM     14  O   UNL     1       3.069   4.519  18.637  0.00  0.00    +0.000 OA
ENDBRANCH   6  10
ENDBRANCH   1   2
BRANCH   1  15
ATOM     15  C   UNL     1       0.570  10.581  21.676  0.00  0.00    +0.000 A 
ATOM     16  N   UNL     1       0.935   9.666  22.599  0.00  0.00    +0.000 NA
ATOM     17  N   UNL     1       0.158   9.871  23.646  0.00  0.00    +0.000 NA
ATOM     18  N   UNL     1      -0.669  10.873  23.398  0.00  0.00    +0.000 NA
ATOM     19  N   UNL     1      -0.446  11.339  22.178  0.00  0.00    +0.000 N 
BRANCH  19  20
ATOM     20  C   UNL     1      -1.196  12.465  21.567  0.00  0.00    +0.000 C 
ATOM     21  C   UNL     1      -2.722  12.294  21.741  0.00  0.00    +0.000 C 
ATOM     22  C   UNL     1      -3.173  12.473  23.205  0.00  0.00    +0.000 C 
ATOM     23  C   UNL     1      -2.738  13.849  23.734  0.00  0.00    +0.000 C 
ATOM     24  C   UNL     1      -1.219  14.051  23.595  0.00  0.00    +0.000 C 
ATOM     25  C   UNL     1      -0.775  13.845  22.135  0.00  0.00    +0.000 C 
ENDBRANCH  19  20
ENDBRANCH   1  15
BRANCH   1  26
ATOM     26  C   UNL     1       1.076  12.102  19.722  0.00  0.00    +0.000 C 
BRANCH  26  28
ATOM     27  C   UNL     1       2.086  14.013  18.360  0.00  0.00    +0.000 C 
ATOM     28  C   UNL     1       2.326  12.962  19.456  0.00  0.00    +0.000 C 
ATOM     29  C   UNL     1       2.664  13.684  20.778  0.00  0.00    +0.000 C 
ENDBRANCH  26  28
ENDBRANCH   1  26
TORSDOF 6
ENDMDL
MODEL 5
REMARK VINA RESULT:      -6.2      3.894      7.537
REMARK  Name = 
REMARK  8 active torsions:
REMARK  status: ('A' for Active; 'I' for Inactive)
REMARK    1  A    between atoms: C_1  and  C_2
REMARK    2  A    between atoms: C_2  and  C_3
REMARK    3  A    between atoms: C_2  and  C_4
REMARK    4  A    between atoms: C_4  and  C_5
REMARK    5  A    between atoms: C_5  and  C_6
REMARK    6  A    between atoms: C_5  and  N_17
REMARK    7  A    between atoms: N_10  and  C_11
REMARK    8  A    between atoms: C_21  and  C_23
REMARK                            x       y       z     vdW  Elec       q    Type
REMARK                         _______ _______ _______ _____ _____    ______ ____
ROOT
ATOM      1  C   UNL     1      -1.464  11.587  21.124  0.00  0.00    +0.000 C 
ENDROOT
BRANCH   1   2
ATOM      2  N   UNL     1      -0.161  11.195  21.740  0.00  0.00    +0.000 NA
ATOM      3  C   UNL     1      -0.084  10.077  22.707  0.00  0.00    +0.000 C 
ATOM      4  C   UNL     1      -0.010   8.697  22.031  0.00  0.00    +0.000 C 
ATOM      5  N   UNL     1       1.011   8.647  20.981  0.00  0.00    +0.000 N 
ATOM      6  C   UNL     1       1.431   7.399  20.558  0.00  0.00    +0.000 C 
ATOM      7  O   UNL     1       1.006   6.396  21.120  0.00  0.00    +0.000 OA
ATOM      8  C   UNL     1       1.159   9.814  20.095  0.00  0.00    +0.000 C 
ATOM      9  C   UNL     1       1.003  11.149  20.836  0.00  0.00    +0.000 C 
BRANCH   6  10
ATOM     10  C   UNL     1       2.389   7.186  19.441  0.00  0.00    +0.000 A 
ATOM     11  C   UNL     1       2.412   7.891  18.252  0.00  0.00    +0.000 A 
ATOM     12  C   UNL     1       3.439   7.346  17.511  0.00  0.00    +0.000 A 
ATOM     13  C   UNL     1       3.969   6.333  18.277  0.00  0.00    +0.000 A 
ATOM     14  O   UNL     1       3.324   6.267  19.413  0.00  0.00    +0.000 OA
ENDBRANCH   6  10
ENDBRANCH   1   2
BRANCH   1  15
ATOM     15  C   UNL     1      -1.217  12.168  19.744  0.00  0.00    +0.000 A 
ATOM     16  N   UNL     1      -0.555  13.330  19.555  0.00  0.00    +0.000 NA
ATOM     17  N   UNL     1      -0.514  13.520  18.249  0.00  0.00    +0.000 NA
ATOM     18  N   UNL     1      -1.127  12.523  17.634  0.00  0.00    +0.000 NA
ATOM     19  N   UNL     1      -1.583  11.662  18.532  0.00  0.00    +0.000 N 
BRANCH  19  20
ATOM     20  C   UNL     1      -2.327  10.423  18.194  0.00  0.00    +0.000 C 
ATOM     21  C   UNL     1      -3.851  10.607  18.373  0.00  0.00    +0.000 C 
ATOM     22  C   UNL     1      -4.461  11.547  17.315  0.00  0.00    +0.000 C 
ATOM     23  C   UNL     1      -4.160  11.027  15.900  0.00  0.00    +0.000 C 
ATOM     24  C   UNL     1      -2.649  10.848  15.675  0.00  0.00    +0.000 C 
ATOM     25  C   UNL     1      -2.044   9.928  16.752  0.00  0.00    +0.000 C 
ENDBRANCH  19  20
ENDBRANCH   1  15
BRANCH   1  26
ATOM     26  C   UNL     1      -2.255  12.578  22.011  0.00  0.00    +0.000 C 
BRANCH  26  28
ATOM     27  C   UNL     1      -4.487  12.916  23.209  0.00  0.00    +0.000 C 
ATOM     28  C   UNL     1      -3.786  12.667  21.863  0.00  0.00    +0.000 C 
ATOM     29  C   UNL     1      -4.077  13.853  20.919  0.00  0.00    +0.000 C 
ENDBRANCH  26  28
ENDBRANCH   1  26
TORSDOF 6
ENDMDL
MODEL 6
REMARK VINA RESULT:      -6.2      8.444     10.542
REMARK  Name = 
REMARK  8 active torsions:
REMARK  status: ('A' for Active; 'I' for Inactive)
REMARK    1  A    between atoms: C_1  and  C_2
REMARK    2  A    between atoms: C_2  and  C_3
REMARK    3  A    between atoms: C_2  and  C_4
REMARK    4  A    between atoms: C_4  and  C_5
REMARK    5  A    between atoms: C_5  and  C_6
REMARK    6  A    between atoms: C_5  and  N_17
REMARK    7  A    between atoms: N_10  and  C_11
REMARK    8  A    between atoms: C_21  and  C_23
REMARK                            x       y       z     vdW  Elec       q    Type
REMARK                         _______ _______ _______ _____ _____    ______ ____
ROOT
ATOM      1  C   UNL     1      -1.042  14.654  21.306  0.00  0.00    +0.000 C 
ENDROOT
BRANCH   1   2
ATOM      2  N   UNL     1      -1.496  13.238  21.451  0.00  0.00    +0.000 NA
ATOM      3  C   UNL     1      -2.907  12.922  21.764  0.00  0.00    +0.000 C 
ATOM      4  C   UNL     1      -3.818  12.932  20.524  0.00  0.00    +0.000 C 
ATOM      5  N   UNL     1      -3.262  12.143  19.420  0.00  0.00    +0.000 N 
ATOM      6  C   UNL     1      -4.124  11.769  18.407  0.00  0.00    +0.000 C 
ATOM      7  O   UNL     1      -5.318  12.030  18.501  0.00  0.00    +0.000 OA
ATOM      8  C   UNL     1      -1.814  12.225  19.165  0.00  0.00    +0.000 C 
ATOM      9  C   UNL     1      -0.983  12.281  20.454  0.00  0.00    +0.000 C 
BRANCH   6  10
ATOM     10  C   UNL     1      -3.691  11.050  17.180  0.00  0.00    +0.000 A 
ATOM     11  C   UNL     1      -3.124   9.789  17.141  0.00  0.00    +0.000 A 
ATOM     12  C   UNL     1      -2.861   9.535  15.811  0.00  0.00    +0.000 A 
ATOM     13  C   UNL     1      -3.262  10.655  15.120  0.00  0.00    +0.000 A 
ATOM     14  O   UNL     1      -3.749  11.531  15.961  0.00  0.00    +0.000 OA
ENDBRANCH   6  10
ENDBRANCH   1   2
BRANCH   1  15
ATOM     15  C   UNL     1       0.472  14.712  21.394  0.00  0.00    +0.000 A 
ATOM     16  N   UNL     1       1.129  14.738  22.574  0.00  0.00    +0.000 NA
ATOM     17  N   UNL     1       2.415  14.773  22.276  0.00  0.00    +0.000 NA
ATOM     18  N   UNL     1       2.569  14.771  20.963  0.00  0.00    +0.000 NA
ATOM     19  N   UNL     1       1.381  14.738  20.378  0.00  0.00    +0.000 N 
BRANCH  19  20
ATOM     20  C   UNL     1       1.177  14.731  18.908  0.00  0.00    +0.000 C 
ATOM     21  C   UNL     1       0.694  16.105  18.392  0.00  0.00    +0.000 C 
ATOM     22  C   UNL     1       1.791  17.186  18.475  0.00  0.00    +0.000 C 
ATOM     23  C   UNL     1       3.039  16.744  17.694  0.00  0.00    +0.000 C 
ATOM     24  C   UNL     1       3.562  15.385  18.191  0.00  0.00    +0.000 C 
ATOM     25  C   UNL     1       2.452  14.319  18.128  0.00  0.00    +0.000 C 
ENDBRANCH  19  20
ENDBRANCH   1  15
BRANCH   1  26
ATOM     26  C   UNL     1      -1.695  15.587  22.354  0.00  0.00    +0.000 C 
BRANCH  26  28
ATOM     27  C   UNL     1      -2.549  16.922  20.350  0.00  0.00    +0.000 C 
ATOM     28  C   UNL     1      -2.582  16.754  21.878  0.00  0.00    +0.000 C 
ATOM     29  C   UNL     1      -4.025  16.428  22.316  0.00  0.00    +0.000 C 
ENDBRANCH  26  28
ENDBRANCH   1  26
TORSDOF 6
ENDMDL
MODEL 7
REMARK VINA RESULT:      -6.2      8.077     11.727
REMARK  Name = 
REMARK  8 active torsions:
REMARK  status: ('A' for Active; 'I' for Inactive)
REMARK    1  A    between atoms: C_1  and  C_2
REMARK    2  A    between atoms: C_2  and  C_3
REMARK    3  A    between atoms: C_2  and  C_4
REMARK    4  A    between atoms: C_4  and  C_5
REMARK    5  A    between atoms: C_5  and  C_6
REMARK    6  A    between atoms: C_5  and  N_17
REMARK    7  A    between atoms: N_10  and  C_11
REMARK    8  A    between atoms: C_21  and  C_23
REMARK                            x       y       z     vdW  Elec       q    Type
REMARK                         _______ _______ _______ _____ _____    ______ ____
ROOT
ATOM      1  C   UNL     1       7.541  15.230  19.254  0.00  0.00    +0.000 C 
ENDROOT
BRANCH   1   2
ATOM      2  N   UNL     1       6.520  15.942  20.080  0.00  0.00    +0.000 NA
ATOM      3  C   UNL     1       5.883  17.186  19.592  0.00  0.00    +0.000 C 
ATOM      4  C   UNL     1       4.710  16.929  18.630  0.00  0.00    +0.000 C 
ATOM      5  N   UNL     1       3.763  15.944  19.161  0.00  0.00    +0.000 N 
ATOM      6  C   UNL     1       2.506  15.895  18.588  0.00  0.00    +0.000 C 
ATOM      7  O   UNL     1       2.201  16.715  17.728  0.00  0.00    +0.000 OA
ATOM      8  C   UNL     1       4.300  14.766  19.862  0.00  0.00    +0.000 C 
ATOM      9  C   UNL     1       5.511  15.098  20.745  0.00  0.00    +0.000 C 
BRANCH   6  10
ATOM     10  C   UNL     1       1.472  14.892  18.954  0.00  0.00    +0.000 A 
ATOM     11  C   UNL     1       0.532  15.031  19.958  0.00  0.00    +0.000 A 
ATOM     12  C   UNL     1      -0.197  13.861  19.958  0.00  0.00    +0.000 A 
ATOM     13  C   UNL     1       0.349  13.070  18.973  0.00  0.00    +0.000 A 
ATOM     14  O   UNL     1       1.333  13.712  18.398  0.00  0.00    +0.000 OA
ENDBRANCH   6  10
ENDBRANCH   1   2
BRANCH   1  15
ATOM     15  C   UNL     1       8.671  14.752  20.148  0.00  0.00    +0.000 A 
ATOM     16  N   UNL     1       9.173  15.508  21.147  0.00  0.00    +0.000 NA
ATOM     17  N   UNL     1      10.119  14.784  21.715  0.00  0.00    +0.000 NA
ATOM     18  N   UNL     1      10.216  13.617  21.101  0.00  0.00    +0.000 NA
ATOM     19  N   UNL     1       9.333  13.560  20.115  0.00  0.00    +0.000 N 
BRANCH  19  20
ATOM     20  C   UNL     1       9.166  12.395  19.212  0.00  0.00    +0.000 C 
ATOM     21  C   UNL     1       9.429  12.775  17.737  0.00  0.00    +0.000 C 
ATOM     22  C   UNL     1      10.915  13.080  17.461  0.00  0.00    +0.000 C 
ATOM     23  C   UNL     1      11.791  11.879  17.855  0.00  0.00    +0.000 C 
ATOM     24  C   UNL     1      11.571  11.481  19.325  0.00  0.00    +0.000 C 
ATOM     25  C   UNL     1      10.081  11.203  19.596  0.00  0.00    +0.000 C 
ENDBRANCH  19  20
ENDBRANCH   1  15
BRANCH   1  26
ATOM     26  C   UNL     1       8.079  16.111  18.102  0.00  0.00    +0.000 C 
BRANCH  26  28
ATOM     27  C   UNL     1      10.317  16.582  16.962  0.00  0.00    +0.000 C 
ATOM     28  C   UNL     1       9.471  16.759  18.233  0.00  0.00    +0.000 C 
ATOM     29  C   UNL     1       9.243  18.266  18.479  0.00  0.00    +0.000 C 
ENDBRANCH  26  28
ENDBRANCH   1  26
TORSDOF 6
ENDMDL
MODEL 8
REMARK VINA RESULT:      -6.1      7.966     11.714
REMARK  Name = 
REMARK  8 active torsions:
REMARK  status: ('A' for Active; 'I' for Inactive)
REMARK    1  A    between atoms: C_1  and  C_2
REMARK    2  A    between atoms: C_2  and  C_3
REMARK    3  A    between atoms: C_2  and  C_4
REMARK    4  A    between atoms: C_4  and  C_5
REMARK    5  A    between atoms: C_5  and  C_6
REMARK    6  A    between atoms: C_5  and  N_17
REMARK    7  A    between atoms: N_10  and  C_11
REMARK    8  A    between atoms: C_21  and  C_23
REMARK                            x       y       z     vdW  Elec       q    Type
REMARK                         _______ _______ _______ _____ _____    ______ ____
ROOT
ATOM      1  C   UNL     1      -0.267  12.910  21.537  0.00  0.00    +0.000 C 
ENDROOT
BRANCH   1   2
ATOM      2  N   UNL     1      -0.923  12.905  22.879  0.00  0.00    +0.000 NA
ATOM      3  C   UNL     1      -1.215  14.172  23.585  0.00  0.00    +0.000 C 
ATOM      4  C   UNL     1      -2.519  14.840  23.115  0.00  0.00    +0.000 C 
ATOM      5  N   UNL     1      -3.645  13.900  23.086  0.00  0.00    +0.000 N 
ATOM      6  C   UNL     1      -4.919  14.434  23.042  0.00  0.00    +0.000 C 
ATOM      7  O   UNL     1      -5.069  15.648  23.112  0.00  0.00    +0.000 OA
ATOM      8  C   UNL     1      -3.400  12.533  22.597  0.00  0.00    +0.000 C 
ATOM      9  C   UNL     1      -2.048  11.969  23.055  0.00  0.00    +0.000 C 
BRANCH   6  10
ATOM     10  C   UNL     1      -6.152  13.613  22.916  0.00  0.00    +0.000 A 
ATOM     11  C   UNL     1      -6.822  12.997  23.957  0.00  0.00    +0.000 A 
ATOM     12  C   UNL     1      -7.883  12.331  23.382  0.00  0.00    +0.000 A 
ATOM     13  C   UNL     1      -7.791  12.560  22.028  0.00  0.00    +0.000 A 
ATOM     14  O   UNL     1      -6.755  13.323  21.788  0.00  0.00    +0.000 OA
ENDBRANCH   6  10
ENDBRANCH   1   2
BRANCH   1  15
ATOM     15  C   UNL     1       0.134  11.494  21.164  0.00  0.00    +0.000 A 
ATOM     16  N   UNL     1       0.566  10.599  22.078  0.00  0.00    +0.000 NA
ATOM     17  N   UNL     1       0.808   9.484  21.413  0.00  0.00    +0.000 NA
ATOM     18  N   UNL     1       0.544   9.664  20.130  0.00  0.00    +0.000 NA
ATOM     19  N   UNL     1       0.125  10.906  19.934  0.00  0.00    +0.000 N 
BRANCH  19  20
ATOM     20  C   UNL     1      -0.257  11.457  18.610  0.00  0.00    +0.000 C 
ATOM     21  C   UNL     1      -0.735  10.346  17.647  0.00  0.00    +0.000 C 
ATOM     22  C   UNL     1      -2.097   9.752  18.061  0.00  0.00    +0.000 C 
ATOM     23  C   UNL     1      -3.159  10.859  18.150  0.00  0.00    +0.000 C 
ATOM     24  C   UNL     1      -2.728  11.977  19.115  0.00  0.00    +0.000 C 
ATOM     25  C   UNL     1      -1.356  12.547  18.708  0.00  0.00    +0.000 C 
ENDBRANCH  19  20
ENDBRANCH   1  15
BRANCH   1  26
ATOM     26  C   UNL     1       0.952  13.863  21.486  0.00  0.00    +0.000 C 
BRANCH  26  28
ATOM     27  C   UNL     1       1.980  14.277  19.183  0.00  0.00    +0.000 C 
ATOM     28  C   UNL     1       2.118  13.547  20.529  0.00  0.00    +0.000 C 
ATOM     29  C   UNL     1       3.411  14.019  21.226  0.00  0.00    +0.000 C 
ENDBRANCH  26  28
ENDBRANCH   1  26
TORSDOF 6
ENDMDL
MODEL 9
REMARK VINA RESULT:      -6.1      3.644      8.074
REMARK  Name = 
REMARK  8 active torsions:
REMARK  status: ('A' for Active; 'I' for Inactive)
REMARK    1  A    between atoms: C_1  and  C_2
REMARK    2  A    between atoms: C_2  and  C_3
REMARK    3  A    between atoms: C_2  and  C_4
REMARK    4  A    between atoms: C_4  and  C_5
REMARK    5  A    between atoms: C_5  and  C_6
REMARK    6  A    between atoms: C_5  and  N_17
REMARK    7  A    between atoms: N_10  and  C_11
REMARK    8  A    between atoms: C_21  and  C_23
REMARK                            x       y       z     vdW  Elec       q    Type
REMARK                         _______ _______ _______ _____ _____    ______ ____
ROOT
ATOM      1  C   UNL     1       2.507   5.670  19.077  0.00  0.00    +0.000 C 
ENDROOT
BRANCH   1   2
ATOM      2  N   UNL     1       2.920   7.105  19.111  0.00  0.00    +0.000 NA
ATOM      3  C   UNL     1       2.518   8.036  18.033  0.00  0.00    +0.000 C 
ATOM      4  C   UNL     1       1.096   8.594  18.214  0.00  0.00    +0.000 C 
ATOM      5  N   UNL     1       0.873   9.117  19.566  0.00  0.00    +0.000 N 
ATOM      6  C   UNL     1      -0.205   9.962  19.752  0.00  0.00    +0.000 C 
ATOM      7  O   UNL     1      -0.877  10.308  18.787  0.00  0.00    +0.000 OA
ATOM      8  C   UNL     1       1.427   8.366  20.704  0.00  0.00    +0.000 C 
ATOM      9  C   UNL     1       2.818   7.785  20.416  0.00  0.00    +0.000 C 
BRANCH   6  10
ATOM     10  C   UNL     1      -0.613  10.497  21.078  0.00  0.00    +0.000 A 
ATOM     11  C   UNL     1      -0.877  11.823  21.368  0.00  0.00    +0.000 A 
ATOM     12  C   UNL     1      -1.192  11.860  22.710  0.00  0.00    +0.000 A 
ATOM     13  C   UNL     1      -1.083  10.566  23.165  0.00  0.00    +0.000 A 
ATOM     14  O   UNL     1      -0.741   9.785  22.173  0.00  0.00    +0.000 OA
ENDBRANCH   6  10
ENDBRANCH   1   2
BRANCH   1  15
ATOM     15  C   UNL     1       3.722   4.788  19.301  0.00  0.00    +0.000 A 
ATOM     16  N   UNL     1       3.695   3.711  20.114  0.00  0.00    +0.000 NA
ATOM     17  N   UNL     1       4.903   3.181  20.060  0.00  0.00    +0.000 NA
ATOM     18  N   UNL     1       5.667   3.893  19.249  0.00  0.00    +0.000 NA
ATOM     19  N   UNL     1       4.968   4.907  18.760  0.00  0.00    +0.000 N 
BRANCH  19  20
ATOM     20  C   UNL     1       5.512   5.915  17.816  0.00  0.00    +0.000 C 
ATOM     21  C   UNL     1       7.055   5.864  17.755  0.00  0.00    +0.000 C 
ATOM     22  C   UNL     1       7.578   4.587  17.067  0.00  0.00    +0.000 C 
ATOM     23  C   UNL     1       6.995   4.466  15.650  0.00  0.00    +0.000 C 
ATOM     24  C   UNL     1       5.457   4.494  15.669  0.00  0.00    +0.000 C 
ATOM     25  C   UNL     1       4.945   5.760  16.381  0.00  0.00    +0.000 C 
ENDBRANCH  19  20
ENDBRANCH   1  15
BRANCH   1  26
ATOM     26  C   UNL     1       1.788   5.300  17.757  0.00  0.00    +0.000 C 
BRANCH  26  28
ATOM     27  C   UNL     1       2.419   2.908  17.115  0.00  0.00    +0.000 C 
ATOM     28  C   UNL     1       1.289   3.857  17.548  0.00  0.00    +0.000 C 
ATOM     29  C   UNL     1       0.721   3.378  18.901  0.00  0.00    +0.000 C 
ENDBRANCH  26  28
ENDBRANCH   1  26
TORSDOF 6
ENDMDL
