MODEL 1
REMARK VINA RESULT:      -8.1      0.000      0.000
REMARK  Name = 
REMARK  4 active torsions:
REMARK  status: ('A' for Active; 'I' for Inactive)
REMARK    1  A    between atoms: C_2  and  C_3
REMARK    2  A    between atoms: N_8  and  C_9
REMARK    3  A    between atoms: N_8  and  C_17
REMARK    4  A    between atoms: C_9  and  C_10
REMARK                            x       y       z     vdW  Elec       q    Type
REMARK                         _______ _______ _______ _____ _____    ______ ____
ROOT
ATOM      1  O   UNL     1       2.783   2.729  17.093  0.00  0.00    +0.000 OA
ATOM      2  C   UNL     1       2.873   3.622  17.932  0.00  0.00    +0.000 C 
ATOM      3  N   UNL     1       3.440   4.889  17.568  0.00  0.00    +0.000 N 
ENDROOT
BRANCH   3   4
ATOM      4  C   UNL     1       4.306   4.957  16.337  0.00  0.00    +0.000 C 
ATOM      5  C   UNL     1       5.375   3.838  16.258  0.00  0.00    +0.000 C 
ATOM      6  C   UNL     1       6.527   4.284  17.149  0.00  0.00    +0.000 C 
ATOM      7  S   UNL     1       6.729   6.007  16.778  0.00  0.00    +0.000 S 
ATOM      8  O   UNL     1       7.750   6.132  15.759  0.00  0.00    +0.000 OA
ATOM      9  O   UNL     1       6.785   6.748  18.020  0.00  0.00    +0.000 OA
ATOM     10  C   UNL     1       5.137   6.223  16.006  0.00  0.00    +0.000 C 
ENDBRANCH   3   4
BRANCH   2  11
ATOM     11  C   UNL     1       2.395   3.362  19.296  0.00  0.00    +0.000 A 
ATOM     12  C   UNL     1       1.192   3.645  19.926  0.00  0.00    +0.000 A 
ATOM     13  C   UNL     1       1.122   3.122  21.249  0.00  0.00    +0.000 A 
ATOM     14  C   UNL     1       2.337   2.634  21.666  0.00  0.00    +0.000 A 
ATOM     15  S   UNL     1       3.520   2.727  20.437  0.00  0.00    +0.000 S 
ENDBRANCH   2  11
BRANCH   3  16
ATOM     16  C   UNL     1       3.715   5.889  18.615  0.00  0.00    +0.000 C 
BRANCH  16  17
ATOM     17  C   UNL     1       2.727   7.001  18.866  0.00  0.00    +0.000 A 
ATOM     18  C   UNL     1       2.578   7.983  17.864  0.00  0.00    +0.000 A 
ATOM     19  C   UNL     1       1.829   9.142  18.097  0.00  0.00    +0.000 A 
ATOM     20  C   UNL     1       1.222   9.327  19.330  0.00  0.00    +0.000 A 
ATOM     21  C   UNL     1       1.361   8.362  20.318  0.00  0.00    +0.000 A 
ATOM     22  F   UNL     1       0.779   8.555  21.509  0.00  0.00    +0.000 F 
ATOM     23  C   UNL     1       2.121   7.211  20.105  0.00  0.00    +0.000 A 
ENDBRANCH  16  17
ENDBRANCH   3  16
TORSDOF 4
ENDMDL
MODEL 2
REMARK VINA RESULT:      -8.1      1.282      1.524
REMARK  Name = 
REMARK  4 active torsions:
REMARK  status: ('A' for Active; 'I' for Inactive)
REMARK    1  A    between atoms: C_2  and  C_3
REMARK    2  A    between atoms: N_8  and  C_9
REMARK    3  A    between atoms: N_8  and  C_17
REMARK    4  A    between atoms: C_9  and  C_10
REMARK                            x       y       z     vdW  Elec       q    Type
REMARK                         _______ _______ _______ _____ _____    ______ ____
ROOT
ATOM      1  O   UNL     1       3.816   2.011  17.544  0.00  0.00    +0.000 OA
ATOM      2  C   UNL     1       3.701   3.014  18.244  0.00  0.00    +0.000 C 
ATOM      3  N   UNL     1       4.610   4.111  18.074  0.00  0.00    +0.000 N 
ENDROOT
BRANCH   3   4
ATOM      4  C   UNL     1       5.926   3.850  17.388  0.00  0.00    +0.000 C 
ATOM      5  C   UNL     1       7.075   4.778  17.858  0.00  0.00    +0.000 C 
ATOM      6  C   UNL     1       6.894   6.093  17.112  0.00  0.00    +0.000 C 
ATOM      7  S   UNL     1       6.502   5.606  15.452  0.00  0.00    +0.000 S 
ATOM      8  O   UNL     1       7.731   5.586  14.685  0.00  0.00    +0.000 OA
ATOM      9  O   UNL     1       5.334   6.339  15.013  0.00  0.00    +0.000 OA
ATOM     10  C   UNL     1       6.060   3.924  15.846  0.00  0.00    +0.000 C 
ENDBRANCH   3   4
BRANCH   2  11
ATOM     11  C   UNL     1       2.628   3.058  19.245  0.00  0.00    +0.000 A 
ATOM     12  C   UNL     1       1.303   3.459  19.165  0.00  0.00    +0.000 A 
ATOM     13  C   UNL     1       0.584   3.243  20.376  0.00  0.00    +0.000 A 
ATOM     14  C   UNL     1       1.420   2.875  21.403  0.00  0.00    +0.000 A 
ATOM     15  S   UNL     1       3.039   2.708  20.883  0.00  0.00    +0.000 S 
ENDBRANCH   2  11
BRANCH   3  16
ATOM     16  C   UNL     1       4.587   5.229  19.034  0.00  0.00    +0.000 C 
BRANCH  16  17
ATOM     17  C   UNL     1       3.513   6.283  18.928  0.00  0.00    +0.000 A 
ATOM     18  C   UNL     1       3.514   7.106  17.781  0.00  0.00    +0.000 A 
ATOM     19  C   UNL     1       2.676   8.223  17.696  0.00  0.00    +0.000 A 
ATOM     20  C   UNL     1       1.831   8.526  18.752  0.00  0.00    +0.000 A 
ATOM     21  C   UNL     1       1.822   7.718  19.881  0.00  0.00    +0.000 A 
ATOM     22  F   UNL     1       1.009   8.025  20.901  0.00  0.00    +0.000 F 
ATOM     23  C   UNL     1       2.666   6.612  19.987  0.00  0.00    +0.000 A 
ENDBRANCH  16  17
ENDBRANCH   3  16
TORSDOF 4
ENDMDL
MODEL 3
REMARK VINA RESULT:      -7.9      1.744      2.285
REMARK  Name = 
REMARK  4 active torsions:
REMARK  status: ('A' for Active; 'I' for Inactive)
REMARK    1  A    between atoms: C_2  and  C_3
REMARK    2  A    between atoms: N_8  and  C_9
REMARK    3  A    between atoms: N_8  and  C_17
REMARK    4  A    between atoms: C_9  and  C_10
REMARK                            x       y       z     vdW  Elec       q    Type
REMARK                         _______ _______ _______ _____ _____    ______ ____
ROOT
ATOM      1  O   UNL     1       5.399   3.578  19.391  0.00  0.00    +0.000 OA
ATOM      2  C   UNL     1       4.284   3.989  19.081  0.00  0.00    +0.000 C 
ATOM      3  N   UNL     1       4.148   4.962  18.036  0.00  0.00    +0.000 N 
ENDROOT
BRANCH   3   4
ATOM      4  C   UNL     1       5.356   5.780  17.657  0.00  0.00    +0.000 C 
ATOM      5  C   UNL     1       5.113   6.746  16.470  0.00  0.00    +0.000 C 
ATOM      6  C   UNL     1       5.229   5.905  15.205  0.00  0.00    +0.000 C 
ATOM      7  S   UNL     1       6.641   4.870  15.492  0.00  0.00    +0.000 S 
ATOM      8  O   UNL     1       7.800   5.517  14.913  0.00  0.00    +0.000 OA
ATOM      9  O   UNL     1       6.287   3.502  15.182  0.00  0.00    +0.000 OA
ATOM     10  C   UNL     1       6.692   5.106  17.259  0.00  0.00    +0.000 C 
ENDBRANCH   3   4
BRANCH   2  11
ATOM     11  C   UNL     1       3.113   3.470  19.799  0.00  0.00    +0.000 A 
ATOM     12  C   UNL     1       2.698   3.607  21.116  0.00  0.00    +0.000 A 
ATOM     13  C   UNL     1       1.432   3.003  21.364  0.00  0.00    +0.000 A 
ATOM     14  C   UNL     1       1.009   2.254  20.293  0.00  0.00    +0.000 A 
ATOM     15  S   UNL     1       2.091   2.354  18.974  0.00  0.00    +0.000 S 
ENDBRANCH   2  11
BRANCH   3  16
ATOM     16  C   UNL     1       2.835   5.588  17.792  0.00  0.00    +0.000 C 
BRANCH  16  17
ATOM     17  C   UNL     1       2.470   6.865  18.506  0.00  0.00    +0.000 A 
ATOM     18  C   UNL     1       2.169   6.781  19.882  0.00  0.00    +0.000 A 
ATOM     19  C   UNL     1       1.639   7.879  20.571  0.00  0.00    +0.000 A 
ATOM     20  C   UNL     1       1.410   9.066  19.893  0.00  0.00    +0.000 A 
ATOM     21  C   UNL     1       1.710   9.155  18.540  0.00  0.00    +0.000 A 
ATOM     22  F   UNL     1       1.476  10.304  17.891  0.00  0.00    +0.000 F 
ATOM     23  C   UNL     1       2.219   8.063  17.837  0.00  0.00    +0.000 A 
ENDBRANCH  16  17
ENDBRANCH   3  16
TORSDOF 4
ENDMDL
MODEL 4
REMARK VINA RESULT:      -7.8      0.930      1.367
REMARK  Name = 
REMARK  4 active torsions:
REMARK  status: ('A' for Active; 'I' for Inactive)
REMARK    1  A    between atoms: C_2  and  C_3
REMARK    2  A    between atoms: N_8  and  C_9
REMARK    3  A    between atoms: N_8  and  C_17
REMARK    4  A    between atoms: C_9  and  C_10
REMARK                            x       y       z     vdW  Elec       q    Type
REMARK                         _______ _______ _______ _____ _____    ______ ____
ROOT
ATOM      1  O   UNL     1       2.587   2.818  16.981  0.00  0.00    +0.000 OA
ATOM      2  C   UNL     1       2.774   3.637  17.876  0.00  0.00    +0.000 C 
ATOM      3  N   UNL     1       3.448   4.870  17.586  0.00  0.00    +0.000 N 
ENDROOT
BRANCH   3   4
ATOM      4  C   UNL     1       4.293   4.948  16.340  0.00  0.00    +0.000 C 
ATOM      5  C   UNL     1       5.353   3.823  16.230  0.00  0.00    +0.000 C 
ATOM      6  C   UNL     1       6.523   4.251  17.106  0.00  0.00    +0.000 C 
ATOM      7  S   UNL     1       6.730   5.977  16.751  0.00  0.00    +0.000 S 
ATOM      8  O   UNL     1       7.733   6.107  15.715  0.00  0.00    +0.000 OA
ATOM      9  O   UNL     1       6.813   6.704  17.999  0.00  0.00    +0.000 OA
ATOM     10  C   UNL     1       5.126   6.211  16.009  0.00  0.00    +0.000 C 
ENDBRANCH   3   4
BRANCH   2  11
ATOM     11  C   UNL     1       2.301   3.325  19.231  0.00  0.00    +0.000 A 
ATOM     12  C   UNL     1       1.101   3.586  19.876  0.00  0.00    +0.000 A 
ATOM     13  C   UNL     1       1.035   3.012  21.178  0.00  0.00    +0.000 A 
ATOM     14  C   UNL     1       2.250   2.505  21.571  0.00  0.00    +0.000 A 
ATOM     15  S   UNL     1       3.430   2.644  20.342  0.00  0.00    +0.000 S 
ENDBRANCH   2  11
BRANCH   3  16
ATOM     16  C   UNL     1       3.834   5.765  18.691  0.00  0.00    +0.000 C 
BRANCH  16  17
ATOM     17  C   UNL     1       2.997   6.982  18.997  0.00  0.00    +0.000 A 
ATOM     18  C   UNL     1       2.322   7.019  20.235  0.00  0.00    +0.000 A 
ATOM     19  C   UNL     1       1.381   8.016  20.513  0.00  0.00    +0.000 A 
ATOM     20  C   UNL     1       1.108   8.984  19.559  0.00  0.00    +0.000 A 
ATOM     21  C   UNL     1       1.773   8.956  18.340  0.00  0.00    +0.000 A 
ATOM     22  F   UNL     1       1.495   9.890  17.421  0.00  0.00    +0.000 F 
ATOM     23  C   UNL     1       2.699   7.956  18.043  0.00  0.00    +0.000 A 
ENDBRANCH  16  17
ENDBRANCH   3  16
TORSDOF 4
ENDMDL
MODEL 5
REMARK VINA RESULT:      -7.5      1.560      1.917
REMARK  Name = 
REMARK  4 active torsions:
REMARK  status: ('A' for Active; 'I' for Inactive)
REMARK    1  A    between atoms: C_2  and  C_3
REMARK    2  A    between atoms: N_8  and  C_9
REMARK    3  A    between atoms: N_8  and  C_17
REMARK    4  A    between atoms: C_9  and  C_10
REMARK                            x       y       z     vdW  Elec       q    Type
REMARK                         _______ _______ _______ _____ _____    ______ ____
ROOT
ATOM      1  O   UNL     1       5.414   3.630  19.600  0.00  0.00    +0.000 OA
ATOM      2  C   UNL     1       4.308   3.951  19.174  0.00  0.00    +0.000 C 
ATOM      3  N   UNL     1       4.206   4.838  18.051  0.00  0.00    +0.000 N 
ENDROOT
BRANCH   3   4
ATOM      4  C   UNL     1       5.395   5.698  17.708  0.00  0.00    +0.000 C 
ATOM      5  C   UNL     1       5.123   6.724  16.580  0.00  0.00    +0.000 C 
ATOM      6  C   UNL     1       5.241   5.959  15.268  0.00  0.00    +0.000 C 
ATOM      7  S   UNL     1       6.674   4.935  15.483  0.00  0.00    +0.000 S 
ATOM      8  O   UNL     1       7.815   5.635  14.931  0.00  0.00    +0.000 OA
ATOM      9  O   UNL     1       6.342   3.580  15.099  0.00  0.00    +0.000 OA
ATOM     10  C   UNL     1       6.739   5.072  17.260  0.00  0.00    +0.000 C 
ENDBRANCH   3   4
BRANCH   2  11
ATOM     11  C   UNL     1       3.111   3.414  19.835  0.00  0.00    +0.000 A 
ATOM     12  C   UNL     1       2.633   3.542  21.131  0.00  0.00    +0.000 A 
ATOM     13  C   UNL     1       1.364   2.921  21.318  0.00  0.00    +0.000 A 
ATOM     14  C   UNL     1       1.003   2.169  20.226  0.00  0.00    +0.000 A 
ATOM     15  S   UNL     1       2.144   2.287  18.960  0.00  0.00    +0.000 S 
ENDBRANCH   2  11
BRANCH   3  16
ATOM     16  C   UNL     1       2.886   5.366  17.659  0.00  0.00    +0.000 C 
BRANCH  16  17
ATOM     17  C   UNL     1       2.332   6.586  18.352  0.00  0.00    +0.000 A 
ATOM     18  C   UNL     1       2.214   7.771  17.596  0.00  0.00    +0.000 A 
ATOM     19  C   UNL     1       1.891   8.987  18.208  0.00  0.00    +0.000 A 
ATOM     20  C   UNL     1       1.681   9.027  19.578  0.00  0.00    +0.000 A 
ATOM     21  C   UNL     1       1.790   7.863  20.327  0.00  0.00    +0.000 A 
ATOM     22  F   UNL     1       1.595   7.915  21.651  0.00  0.00    +0.000 F 
ATOM     23  C   UNL     1       2.131   6.649  19.731  0.00  0.00    +0.000 A 
ENDBRANCH  16  17
ENDBRANCH   3  16
TORSDOF 4
ENDMDL
MODEL 6
REMARK VINA RESULT:      -7.4      1.783      2.286
REMARK  Name = 
REMARK  4 active torsions:
REMARK  status: ('A' for Active; 'I' for Inactive)
REMARK    1  A    between atoms: C_2  and  C_3
REMARK    2  A    between atoms: N_8  and  C_9
REMARK    3  A    between atoms: N_8  and  C_17
REMARK    4  A    between atoms: C_9  and  C_10
REMARK                            x       y       z     vdW  Elec       q    Type
REMARK                         _______ _______ _______ _____ _____    ______ ____
ROOT
ATOM      1  O   UNL     1       3.847   1.961  17.439  0.00  0.00    +0.000 OA
ATOM      2  C   UNL     1       3.840   2.913  18.214  0.00  0.00    +0.000 C 
ATOM      3  N   UNL     1       4.773   3.988  18.031  0.00  0.00    +0.000 N 
ENDROOT
BRANCH   3   4
ATOM      4  C   UNL     1       6.006   3.733  17.203  0.00  0.00    +0.000 C 
ATOM      5  C   UNL     1       7.228   4.589  17.616  0.00  0.00    +0.000 C 
ATOM      6  C   UNL     1       7.027   5.958  16.978  0.00  0.00    +0.000 C 
ATOM      7  S   UNL     1       6.458   5.598  15.337  0.00  0.00    +0.000 S 
ATOM      8  O   UNL     1       7.605   5.591  14.453  0.00  0.00    +0.000 OA
ATOM      9  O   UNL     1       5.281   6.395  15.065  0.00  0.00    +0.000 OA
ATOM     10  C   UNL     1       5.992   3.908  15.664  0.00  0.00    +0.000 C 
ENDBRANCH   3   4
BRANCH   2  11
ATOM     11  C   UNL     1       2.871   2.921  19.317  0.00  0.00    +0.000 A 
ATOM     12  C   UNL     1       2.996   2.610  20.663  0.00  0.00    +0.000 A 
ATOM     13  C   UNL     1       1.802   2.851  21.402  0.00  0.00    +0.000 A 
ATOM     14  C   UNL     1       0.745   3.145  20.574  0.00  0.00    +0.000 A 
ATOM     15  S   UNL     1       1.216   3.214  18.933  0.00  0.00    +0.000 S 
ENDBRANCH   2  11
BRANCH   3  16
ATOM     16  C   UNL     1       4.887   5.034  19.064  0.00  0.00    +0.000 C 
BRANCH  16  17
ATOM     17  C   UNL     1       3.892   6.167  19.094  0.00  0.00    +0.000 A 
ATOM     18  C   UNL     1       2.997   6.223  20.183  0.00  0.00    +0.000 A 
ATOM     19  C   UNL     1       1.927   7.125  20.190  0.00  0.00    +0.000 A 
ATOM     20  C   UNL     1       1.744   7.977  19.112  0.00  0.00    +0.000 A 
ATOM     21  C   UNL     1       2.624   7.930  18.040  0.00  0.00    +0.000 A 
ATOM     22  F   UNL     1       2.433   8.750  16.998  0.00  0.00    +0.000 F 
ATOM     23  C   UNL     1       3.683   7.022  18.011  0.00  0.00    +0.000 A 
ENDBRANCH  16  17
ENDBRANCH   3  16
TORSDOF 4
ENDMDL
MODEL 7
REMARK VINA RESULT:      -7.4      1.346      1.777
REMARK  Name = 
REMARK  4 active torsions:
REMARK  status: ('A' for Active; 'I' for Inactive)
REMARK    1  A    between atoms: C_2  and  C_3
REMARK    2  A    between atoms: N_8  and  C_9
REMARK    3  A    between atoms: N_8  and  C_17
REMARK    4  A    between atoms: C_9  and  C_10
REMARK                            x       y       z     vdW  Elec       q    Type
REMARK                         _______ _______ _______ _____ _____    ______ ____
ROOT
ATOM      1  O   UNL     1       4.431   3.016  17.202  0.00  0.00    +0.000 OA
ATOM      2  C   UNL     1       3.948   3.788  18.025  0.00  0.00    +0.000 C 
ATOM      3  N   UNL     1       4.555   5.070  18.243  0.00  0.00    +0.000 N 
ENDROOT
BRANCH   3   4
ATOM      4  C   UNL     1       5.987   5.266  17.814  0.00  0.00    +0.000 C 
ATOM      5  C   UNL     1       6.286   6.678  17.252  0.00  0.00    +0.000 C 
ATOM      6  C   UNL     1       5.805   6.674  15.807  0.00  0.00    +0.000 C 
ATOM      7  S   UNL     1       6.352   5.112  15.167  0.00  0.00    +0.000 S 
ATOM      8  O   UNL     1       7.630   5.313  14.517  0.00  0.00    +0.000 OA
ATOM      9  O   UNL     1       5.242   4.467  14.499  0.00  0.00    +0.000 OA
ATOM     10  C   UNL     1       6.642   4.349  16.752  0.00  0.00    +0.000 C 
ENDBRANCH   3   4
BRANCH   2  11
ATOM     11  C   UNL     1       2.754   3.371  18.771  0.00  0.00    +0.000 A 
ATOM     12  C   UNL     1       1.401   3.467  18.481  0.00  0.00    +0.000 A 
ATOM     13  C   UNL     1       0.578   2.838  19.460  0.00  0.00    +0.000 A 
ATOM     14  C   UNL     1       1.304   2.459  20.564  0.00  0.00    +0.000 A 
ATOM     15  S   UNL     1       2.972   2.780  20.376  0.00  0.00    +0.000 S 
ENDBRANCH   2  11
BRANCH   3  16
ATOM     16  C   UNL     1       4.087   5.915  19.356  0.00  0.00    +0.000 C 
BRANCH  16  17
ATOM     17  C   UNL     1       3.006   6.938  19.115  0.00  0.00    +0.000 A 
ATOM     18  C   UNL     1       3.019   7.627  17.884  0.00  0.00    +0.000 A 
ATOM     19  C   UNL     1       2.172   8.718  17.660  0.00  0.00    +0.000 A 
ATOM     20  C   UNL     1       1.305   9.127  18.661  0.00  0.00    +0.000 A 
ATOM     21  C   UNL     1       1.284   8.450  19.873  0.00  0.00    +0.000 A 
ATOM     22  F   UNL     1       0.449   8.860  20.838  0.00  0.00    +0.000 F 
ATOM     23  C   UNL     1       2.137   7.374  20.116  0.00  0.00    +0.000 A 
ENDBRANCH  16  17
ENDBRANCH   3  16
TORSDOF 4
ENDMDL
MODEL 8
REMARK VINA RESULT:      -7.2      1.463      1.859
REMARK  Name = 
REMARK  4 active torsions:
REMARK  status: ('A' for Active; 'I' for Inactive)
REMARK    1  A    between atoms: C_2  and  C_3
REMARK    2  A    between atoms: N_8  and  C_9
REMARK    3  A    between atoms: N_8  and  C_17
REMARK    4  A    between atoms: C_9  and  C_10
REMARK                            x       y       z     vdW  Elec       q    Type
REMARK                         _______ _______ _______ _____ _____    ______ ____
ROOT
ATOM      1  O   UNL     1       4.331   2.381  17.714  0.00  0.00    +0.000 OA
ATOM      2  C   UNL     1       3.983   3.316  18.429  0.00  0.00    +0.000 C 
ATOM      3  N   UNL     1       4.758   4.524  18.452  0.00  0.00    +0.000 N 
ENDROOT
BRANCH   3   4
ATOM      4  C   UNL     1       6.185   4.468  17.971  0.00  0.00    +0.000 C 
ATOM      5  C   UNL     1       6.939   5.817  18.083  0.00  0.00    +0.000 C 
ATOM      6  C   UNL     1       6.516   6.643  16.876  0.00  0.00    +0.000 C 
ATOM      7  S   UNL     1       6.542   5.494  15.525  0.00  0.00    +0.000 S 
ATOM      8  O   UNL     1       7.832   5.591  14.873  0.00  0.00    +0.000 OA
ATOM      9  O   UNL     1       5.299   5.606  14.792  0.00  0.00    +0.000 OA
ATOM     10  C   UNL     1       6.532   4.021  16.529  0.00  0.00    +0.000 C 
ENDBRANCH   3   4
BRANCH   2  11
ATOM     11  C   UNL     1       2.774   3.168  19.250  0.00  0.00    +0.000 A 
ATOM     12  C   UNL     1       2.586   2.716  20.548  0.00  0.00    +0.000 A 
ATOM     13  C   UNL     1       1.234   2.831  20.985  0.00  0.00    +0.000 A 
ATOM     14  C   UNL     1       0.396   3.176  19.952  0.00  0.00    +0.000 A 
ATOM     15  S   UNL     1       1.249   3.443  18.496  0.00  0.00    +0.000 S 
ENDBRANCH   2  11
BRANCH   3  16
ATOM     16  C   UNL     1       4.445   5.570  19.442  0.00  0.00    +0.000 C 
BRANCH  16  17
ATOM     17  C   UNL     1       3.334   6.553  19.168  0.00  0.00    +0.000 A 
ATOM     18  C   UNL     1       3.287   7.146  17.888  0.00  0.00    +0.000 A 
ATOM     19  C   UNL     1       2.410   8.202  17.616  0.00  0.00    +0.000 A 
ATOM     20  C   UNL     1       1.574   8.671  18.617  0.00  0.00    +0.000 A 
ATOM     21  C   UNL     1       1.612   8.088  19.877  0.00  0.00    +0.000 A 
ATOM     22  F   UNL     1       0.807   8.556  20.840  0.00  0.00    +0.000 F 
ATOM     23  C   UNL     1       2.495   7.048  20.167  0.00  0.00    +0.000 A 
ENDBRANCH  16  17
ENDBRANCH   3  16
TORSDOF 4
ENDMDL
MODEL 9
REMARK VINA RESULT:      -7.1      2.359      5.051
REMARK  Name = 
REMARK  4 active torsions:
REMARK  status: ('A' for Active; 'I' for Inactive)
REMARK    1  A    between atoms: C_2  and  C_3
REMARK    2  A    between atoms: N_8  and  C_9
REMARK    3  A    between atoms: N_8  and  C_17
REMARK    4  A    between atoms: C_9  and  C_10
REMARK                            x       y       z     vdW  Elec       q    Type
REMARK                         _______ _______ _______ _____ _____    ______ ____
ROOT
ATOM      1  O   UNL     1       5.591   3.675  19.462  0.00  0.00    +0.000 OA
ATOM      2  C   UNL     1       5.108   4.655  18.901  0.00  0.00    +0.000 C 
ATOM      3  N   UNL     1       3.685   4.762  18.751  0.00  0.00    +0.000 N 
ENDROOT
BRANCH   3   4
ATOM      4  C   UNL     1       2.857   3.508  18.866  0.00  0.00    +0.000 C 
ATOM      5  C   UNL     1       1.329   3.764  18.879  0.00  0.00    +0.000 C 
ATOM      6  C   UNL     1       0.978   4.181  20.301  0.00  0.00    +0.000 C 
ATOM      7  S   UNL     1       1.901   3.066  21.327  0.00  0.00    +0.000 S 
ATOM      8  O   UNL     1       1.043   1.951  21.669  0.00  0.00    +0.000 OA
ATOM      9  O   UNL     1       2.606   3.831  22.333  0.00  0.00    +0.000 OA
ATOM     10  C   UNL     1       3.033   2.533  20.056  0.00  0.00    +0.000 C 
ENDBRANCH   3   4
BRANCH   2  11
ATOM     11  C   UNL     1       6.011   5.696  18.394  0.00  0.00    +0.000 A 
ATOM     12  C   UNL     1       5.925   6.543  17.298  0.00  0.00    +0.000 A 
ATOM     13  C   UNL     1       6.998   7.477  17.234  0.00  0.00    +0.000 A 
ATOM     14  C   UNL     1       7.975   7.192  18.158  0.00  0.00    +0.000 A 
ATOM     15  S   UNL     1       7.552   5.864  19.147  0.00  0.00    +0.000 S 
ENDBRANCH   2  11
BRANCH   3  16
ATOM     16  C   UNL     1       3.121   5.842  17.921  0.00  0.00    +0.000 C 
BRANCH  16  17
ATOM     17  C   UNL     1       2.577   7.085  18.578  0.00  0.00    +0.000 A 
ATOM     18  C   UNL     1       2.298   7.027  19.960  0.00  0.00    +0.000 A 
ATOM     19  C   UNL     1       1.617   8.067  20.602  0.00  0.00    +0.000 A 
ATOM     20  C   UNL     1       1.213   9.173  19.870  0.00  0.00    +0.000 A 
ATOM     21  C   UNL     1       1.490   9.239  18.511  0.00  0.00    +0.000 A 
ATOM     22  F   UNL     1       1.086  10.308  17.812  0.00  0.00    +0.000 F 
ATOM     23  C   UNL     1       2.150   8.200  17.856  0.00  0.00    +0.000 A 
ENDBRANCH  16  17
ENDBRANCH   3  16
TORSDOF 4
ENDMDL
