MODEL 1
REMARK VINA RESULT:      -8.2      0.000      0.000
REMARK  Name = 
REMARK  3 active torsions:
REMARK  status: ('A' for Active; 'I' for Inactive)
REMARK    1  A    between atoms: C_2  and  C_4
REMARK    2  A    between atoms: N_15  and  C_16
REMARK    3  A    between atoms: C_16  and  C_17
REMARK                            x       y       z     vdW  Elec       q    Type
REMARK                         _______ _______ _______ _____ _____    ______ ____
ROOT
ATOM      1  C   UNL     1       1.966   4.937  20.337  0.00  0.00    +0.000 A 
ATOM      2  C   UNL     1       1.552   6.104  20.858  0.00  0.00    +0.000 A 
ATOM      3  C   UNL     1       1.615   7.325  20.074  0.00  0.00    +0.000 A 
ATOM      4  C   UNL     1       1.179   8.550  20.584  0.00  0.00    +0.000 A 
ATOM      5  C   UNL     1       1.216   9.685  19.771  0.00  0.00    +0.000 A 
ATOM      6 BR   UNL     1       0.591  11.337  20.448  0.00  0.00    +0.000 Br
ATOM      7  C   UNL     1       1.695   9.613  18.462  0.00  0.00    +0.000 A 
ATOM      8  C   UNL     1       2.150   8.394  17.958  0.00  0.00    +0.000 A 
ATOM      9  C   UNL     1       2.100   7.264  18.770  0.00  0.00    +0.000 A 
ATOM     10  O   UNL     1       2.540   6.047  18.221  0.00  0.00    +0.000 OA
ATOM     11  C   UNL     1       2.493   4.869  18.952  0.00  0.00    +0.000 A 
ATOM     12  N   UNL     1       2.881   3.752  18.446  0.00  0.00    +0.000 NA
ENDROOT
BRANCH   1  14
ATOM     13  N   UNL     1       0.844   2.848  20.847  0.00  0.00    +0.000 N 
ATOM     14  C   UNL     1       1.815   3.734  21.203  0.00  0.00    +0.000 C 
ATOM     15  O   UNL     1       2.516   3.530  22.191  0.00  0.00    +0.000 OA
ATOM     16  H   UNL     1       0.631   2.093  21.481  0.00  0.00    +0.000 HD
ATOM     17  H   UNL     1       0.136   3.117  20.164  0.00  0.00    +0.000 HD
ENDBRANCH   1  14
BRANCH  12  18
ATOM     18  C   UNL     1       3.286   3.692  17.048  0.00  0.00    +0.000 C 
BRANCH  18  19
ATOM     19  C   UNL     1       4.764   4.001  16.957  0.00  0.00    +0.000 A 
ATOM     20  C   UNL     1       5.495   4.280  18.124  0.00  0.00    +0.000 A 
ATOM     21  C   UNL     1       6.839   4.651  18.051  0.00  0.00    +0.000 A 
ATOM     22  C   UNL     1       7.470   4.733  16.812  0.00  0.00    +0.000 A 
ATOM     23  C   UNL     1       6.763   4.432  15.649  0.00  0.00    +0.000 A 
ATOM     24  C   UNL     1       5.416   4.068  15.719  0.00  0.00    +0.000 A 
ENDBRANCH  18  19
ENDBRANCH  12  18
TORSDOF 3
ENDMDL
MODEL 2
REMARK VINA RESULT:      -8.2      0.058      1.030
REMARK  Name = 
REMARK  3 active torsions:
REMARK  status: ('A' for Active; 'I' for Inactive)
REMARK    1  A    between atoms: C_2  and  C_4
REMARK    2  A    between atoms: N_15  and  C_16
REMARK    3  A    between atoms: C_16  and  C_17
REMARK                            x       y       z     vdW  Elec       q    Type
REMARK                         _______ _______ _______ _____ _____    ______ ____
ROOT
ATOM      1  C   UNL     1       1.981   4.947  20.350  0.00  0.00    +0.000 A 
ATOM      2  C   UNL     1       1.564   6.116  20.865  0.00  0.00    +0.000 A 
ATOM      3  C   UNL     1       1.621   7.331  20.072  0.00  0.00    +0.000 A 
ATOM      4  C   UNL     1       1.182   8.559  20.575  0.00  0.00    +0.000 A 
ATOM      5  C   UNL     1       1.213   9.688  19.754  0.00  0.00    +0.000 A 
ATOM      6 BR   UNL     1       0.584  11.342  20.422  0.00  0.00    +0.000 Br
ATOM      7  C   UNL     1       1.690   9.609  18.444  0.00  0.00    +0.000 A 
ATOM      8  C   UNL     1       2.147   8.388  17.948  0.00  0.00    +0.000 A 
ATOM      9  C   UNL     1       2.102   7.263  18.768  0.00  0.00    +0.000 A 
ATOM     10  O   UNL     1       2.546   6.044  18.226  0.00  0.00    +0.000 OA
ATOM     11  C   UNL     1       2.504   4.871  18.965  0.00  0.00    +0.000 A 
ATOM     12  N   UNL     1       2.894   3.752  18.465  0.00  0.00    +0.000 NA
ENDROOT
BRANCH   1  14
ATOM     13  N   UNL     1       0.855   2.866  20.887  0.00  0.00    +0.000 N 
ATOM     14  C   UNL     1       1.835   3.749  21.225  0.00  0.00    +0.000 C 
ATOM     15  O   UNL     1       2.549   3.547  22.204  0.00  0.00    +0.000 OA
ATOM     16  H   UNL     1       0.647   2.116  21.528  0.00  0.00    +0.000 HD
ATOM     17  H   UNL     1       0.139   3.134  20.213  0.00  0.00    +0.000 HD
ENDBRANCH   1  14
BRANCH  12  18
ATOM     18  C   UNL     1       3.296   3.684  17.067  0.00  0.00    +0.000 C 
BRANCH  18  19
ATOM     19  C   UNL     1       4.749   4.091  16.959  0.00  0.00    +0.000 A 
ATOM     20  C   UNL     1       5.353   4.209  15.696  0.00  0.00    +0.000 A 
ATOM     21  C   UNL     1       6.713   4.500  15.581  0.00  0.00    +0.000 A 
ATOM     22  C   UNL     1       7.481   4.691  16.727  0.00  0.00    +0.000 A 
ATOM     23  C   UNL     1       6.888   4.604  17.985  0.00  0.00    +0.000 A 
ATOM     24  C   UNL     1       5.529   4.305  18.103  0.00  0.00    +0.000 A 
ENDBRANCH  18  19
ENDBRANCH  12  18
TORSDOF 3
ENDMDL
MODEL 3
REMARK VINA RESULT:      -8.0      1.258      1.464
REMARK  Name = 
REMARK  3 active torsions:
REMARK  status: ('A' for Active; 'I' for Inactive)
REMARK    1  A    between atoms: C_2  and  C_4
REMARK    2  A    between atoms: N_15  and  C_16
REMARK    3  A    between atoms: C_16  and  C_17
REMARK                            x       y       z     vdW  Elec       q    Type
REMARK                         _______ _______ _______ _____ _____    ______ ____
ROOT
ATOM      1  C   UNL     1       2.320   4.678  20.359  0.00  0.00    +0.000 A 
ATOM      2  C   UNL     1       1.573   5.596  20.995  0.00  0.00    +0.000 A 
ATOM      3  C   UNL     1       1.496   6.957  20.494  0.00  0.00    +0.000 A 
ATOM      4  C   UNL     1       0.718   7.930  21.125  0.00  0.00    +0.000 A 
ATOM      5  C   UNL     1       0.640   9.211  20.574  0.00  0.00    +0.000 A 
ATOM      6 BR   UNL     1      -0.444  10.519  21.407  0.00  0.00    +0.000 Br
ATOM      7  C   UNL     1       1.341   9.535  19.411  0.00  0.00    +0.000 A 
ATOM      8  C   UNL     1       2.134   8.570  18.791  0.00  0.00    +0.000 A 
ATOM      9  C   UNL     1       2.199   7.291  19.339  0.00  0.00    +0.000 A 
ATOM     10  O   UNL     1       2.987   6.336  18.673  0.00  0.00    +0.000 OA
ATOM     11  C   UNL     1       3.078   5.031  19.135  0.00  0.00    +0.000 A 
ATOM     12  N   UNL     1       3.786   4.152  18.518  0.00  0.00    +0.000 NA
ENDROOT
BRANCH   1  14
ATOM     13  N   UNL     1       1.925   2.302  20.071  0.00  0.00    +0.000 N 
ATOM     14  C   UNL     1       2.294   3.298  20.923  0.00  0.00    +0.000 C 
ATOM     15  O   UNL     1       2.585   3.047  22.090  0.00  0.00    +0.000 OA
ATOM     16  H   UNL     1       1.773   1.380  20.452  0.00  0.00    +0.000 HD
ATOM     17  H   UNL     1       1.487   2.530  19.179  0.00  0.00    +0.000 HD
ENDBRANCH   1  14
BRANCH  12  18
ATOM     18  C   UNL     1       4.428   4.494  17.256  0.00  0.00    +0.000 C 
BRANCH  18  19
ATOM     19  C   UNL     1       5.662   5.319  17.548  0.00  0.00    +0.000 A 
ATOM     20  C   UNL     1       6.598   4.871  18.494  0.00  0.00    +0.000 A 
ATOM     21  C   UNL     1       7.697   5.660  18.838  0.00  0.00    +0.000 A 
ATOM     22  C   UNL     1       7.879   6.899  18.229  0.00  0.00    +0.000 A 
ATOM     23  C   UNL     1       6.972   7.343  17.268  0.00  0.00    +0.000 A 
ATOM     24  C   UNL     1       5.868   6.559  16.928  0.00  0.00    +0.000 A 
ENDBRANCH  18  19
ENDBRANCH  12  18
TORSDOF 3
ENDMDL
MODEL 4
REMARK VINA RESULT:      -7.9      3.120      6.676
REMARK  Name = 
REMARK  3 active torsions:
REMARK  status: ('A' for Active; 'I' for Inactive)
REMARK    1  A    between atoms: C_2  and  C_4
REMARK    2  A    between atoms: N_15  and  C_16
REMARK    3  A    between atoms: C_16  and  C_17
REMARK                            x       y       z     vdW  Elec       q    Type
REMARK                         _______ _______ _______ _____ _____    ______ ____
ROOT
ATOM      1  C   UNL     1       2.439   5.111  19.510  0.00  0.00    +0.000 A 
ATOM      2  C   UNL     1       3.132   4.364  18.636  0.00  0.00    +0.000 A 
ATOM      3  C   UNL     1       3.864   4.992  17.549  0.00  0.00    +0.000 A 
ATOM      4  C   UNL     1       4.606   4.243  16.632  0.00  0.00    +0.000 A 
ATOM      5  C   UNL     1       5.330   4.899  15.635  0.00  0.00    +0.000 A 
ATOM      6 BR   UNL     1       6.365   3.889  14.416  0.00  0.00    +0.000 Br
ATOM      7  C   UNL     1       5.311   6.293  15.535  0.00  0.00    +0.000 A 
ATOM      8  C   UNL     1       4.555   7.040  16.437  0.00  0.00    +0.000 A 
ATOM      9  C   UNL     1       3.844   6.380  17.436  0.00  0.00    +0.000 A 
ATOM     10  O   UNL     1       3.114   7.166  18.345  0.00  0.00    +0.000 OA
ATOM     11  C   UNL     1       2.406   6.588  19.388  0.00  0.00    +0.000 A 
ATOM     12  N   UNL     1       1.751   7.307  20.230  0.00  0.00    +0.000 NA
ENDROOT
BRANCH   1  14
ATOM     13  N   UNL     1       0.547   3.836  20.334  0.00  0.00    +0.000 N 
ATOM     14  C   UNL     1       1.764   4.377  20.618  0.00  0.00    +0.000 C 
ATOM     15  O   UNL     1       2.257   4.254  21.736  0.00  0.00    +0.000 OA
ATOM     16  H   UNL     1       0.009   3.446  21.092  0.00  0.00    +0.000 HD
ATOM     17  H   UNL     1       0.051   4.114  19.487  0.00  0.00    +0.000 HD
ENDBRANCH   1  14
BRANCH  12  18
ATOM     18  C   UNL     1       1.828   8.760  20.157  0.00  0.00    +0.000 C 
BRANCH  18  19
ATOM     19  C   UNL     1       0.836   9.349  21.136  0.00  0.00    +0.000 A 
ATOM     20  C   UNL     1      -0.008  10.398  20.735  0.00  0.00    +0.000 A 
ATOM     21  C   UNL     1      -0.868  11.009  21.649  0.00  0.00    +0.000 A 
ATOM     22  C   UNL     1      -0.903  10.570  22.970  0.00  0.00    +0.000 A 
ATOM     23  C   UNL     1      -0.090   9.512  23.374  0.00  0.00    +0.000 A 
ATOM     24  C   UNL     1       0.776   8.903  22.463  0.00  0.00    +0.000 A 
ENDBRANCH  18  19
ENDBRANCH  12  18
TORSDOF 3
ENDMDL
MODEL 5
REMARK VINA RESULT:      -7.9      1.313      1.738
REMARK  Name = 
REMARK  3 active torsions:
REMARK  status: ('A' for Active; 'I' for Inactive)
REMARK    1  A    between atoms: C_2  and  C_4
REMARK    2  A    between atoms: N_15  and  C_16
REMARK    3  A    between atoms: C_16  and  C_17
REMARK                            x       y       z     vdW  Elec       q    Type
REMARK                         _______ _______ _______ _____ _____    ______ ____
ROOT
ATOM      1  C   UNL     1       2.261   4.853  20.402  0.00  0.00    +0.000 A 
ATOM      2  C   UNL     1       1.481   5.780  20.982  0.00  0.00    +0.000 A 
ATOM      3  C   UNL     1       1.428   7.132  20.455  0.00  0.00    +0.000 A 
ATOM      4  C   UNL     1       0.616   8.113  21.028  0.00  0.00    +0.000 A 
ATOM      5  C   UNL     1       0.563   9.385  20.453  0.00  0.00    +0.000 A 
ATOM      6 BR   UNL     1      -0.564  10.703  21.206  0.00  0.00    +0.000 Br
ATOM      7  C   UNL     1       1.323   9.690  19.321  0.00  0.00    +0.000 A 
ATOM      8  C   UNL     1       2.149   8.717  18.760  0.00  0.00    +0.000 A 
ATOM      9  C   UNL     1       2.187   7.448  19.332  0.00  0.00    +0.000 A 
ATOM     10  O   UNL     1       3.011   6.484  18.724  0.00  0.00    +0.000 OA
ATOM     11  C   UNL     1       3.081   5.188  19.212  0.00  0.00    +0.000 A 
ATOM     12  N   UNL     1       3.821   4.300  18.648  0.00  0.00    +0.000 NA
ENDROOT
BRANCH   1  14
ATOM     13  N   UNL     1       1.955   2.463  20.121  0.00  0.00    +0.000 N 
ATOM     14  C   UNL     1       2.209   3.483  20.987  0.00  0.00    +0.000 C 
ATOM     15  O   UNL     1       2.382   3.260  22.183  0.00  0.00    +0.000 OA
ATOM     16  H   UNL     1       1.787   1.545  20.503  0.00  0.00    +0.000 HD
ATOM     17  H   UNL     1       1.608   2.665  19.184  0.00  0.00    +0.000 HD
ENDBRANCH   1  14
BRANCH  12  18
ATOM     18  C   UNL     1       4.526   4.622  17.415  0.00  0.00    +0.000 C 
BRANCH  18  19
ATOM     19  C   UNL     1       5.714   5.498  17.750  0.00  0.00    +0.000 A 
ATOM     20  C   UNL     1       5.908   6.709  17.064  0.00  0.00    +0.000 A 
ATOM     21  C   UNL     1       7.042   7.487  17.300  0.00  0.00    +0.000 A 
ATOM     22  C   UNL     1       7.988   7.070  18.233  0.00  0.00    +0.000 A 
ATOM     23  C   UNL     1       7.794   5.884  18.939  0.00  0.00    +0.000 A 
ATOM     24  C   UNL     1       6.663   5.100  18.700  0.00  0.00    +0.000 A 
ENDBRANCH  18  19
ENDBRANCH  12  18
TORSDOF 3
ENDMDL
MODEL 6
REMARK VINA RESULT:      -7.8      2.950      6.206
REMARK  Name = 
REMARK  3 active torsions:
REMARK  status: ('A' for Active; 'I' for Inactive)
REMARK    1  A    between atoms: C_2  and  C_4
REMARK    2  A    between atoms: N_15  and  C_16
REMARK    3  A    between atoms: C_16  and  C_17
REMARK                            x       y       z     vdW  Elec       q    Type
REMARK                         _______ _______ _______ _____ _____    ______ ____
ROOT
ATOM      1  C   UNL     1       1.990   4.204  18.985  0.00  0.00    +0.000 A 
ATOM      2  C   UNL     1       2.653   3.706  17.928  0.00  0.00    +0.000 A 
ATOM      3  C   UNL     1       3.688   4.487  17.274  0.00  0.00    +0.000 A 
ATOM      4  C   UNL     1       4.405   3.992  16.182  0.00  0.00    +0.000 A 
ATOM      5  C   UNL     1       5.424   4.764  15.621  0.00  0.00    +0.000 A 
ATOM      6 BR   UNL     1       6.419   4.078  14.166  0.00  0.00    +0.000 Br
ATOM      7  C   UNL     1       5.725   6.030  16.128  0.00  0.00    +0.000 A 
ATOM      8  C   UNL     1       4.997   6.534  17.205  0.00  0.00    +0.000 A 
ATOM      9  C   UNL     1       3.990   5.754  17.768  0.00  0.00    +0.000 A 
ATOM     10  O   UNL     1       3.295   6.282  18.870  0.00  0.00    +0.000 OA
ATOM     11  C   UNL     1       2.300   5.556  19.508  0.00  0.00    +0.000 A 
ATOM     12  N   UNL     1       1.674   6.032  20.526  0.00  0.00    +0.000 NA
ENDROOT
BRANCH   1  14
ATOM     13  N   UNL     1       0.994   3.241  20.976  0.00  0.00    +0.000 N 
ATOM     14  C   UNL     1       0.981   3.306  19.616  0.00  0.00    +0.000 C 
ATOM     15  O   UNL     1       0.172   2.649  18.966  0.00  0.00    +0.000 OA
ATOM     16  H   UNL     1       0.414   2.550  21.426  0.00  0.00    +0.000 HD
ATOM     17  H   UNL     1       1.787   3.614  21.496  0.00  0.00    +0.000 HD
ENDBRANCH   1  14
BRANCH  12  18
ATOM     18  C   UNL     1       2.076   7.313  21.090  0.00  0.00    +0.000 C 
BRANCH  18  19
ATOM     19  C   UNL     1       1.140   8.385  20.574  0.00  0.00    +0.000 A 
ATOM     20  C   UNL     1       1.350   8.948  19.304  0.00  0.00    +0.000 A 
ATOM     21  C   UNL     1       0.549   9.996  18.848  0.00  0.00    +0.000 A 
ATOM     22  C   UNL     1      -0.479  10.484  19.652  0.00  0.00    +0.000 A 
ATOM     23  C   UNL     1      -0.715   9.915  20.903  0.00  0.00    +0.000 A 
ATOM     24  C   UNL     1       0.090   8.871  21.364  0.00  0.00    +0.000 A 
ENDBRANCH  18  19
ENDBRANCH  12  18
TORSDOF 3
ENDMDL
MODEL 7
REMARK VINA RESULT:      -7.8      3.133      6.628
REMARK  Name = 
REMARK  3 active torsions:
REMARK  status: ('A' for Active; 'I' for Inactive)
REMARK    1  A    between atoms: C_2  and  C_4
REMARK    2  A    between atoms: N_15  and  C_16
REMARK    3  A    between atoms: C_16  and  C_17
REMARK                            x       y       z     vdW  Elec       q    Type
REMARK                         _______ _______ _______ _____ _____    ______ ____
ROOT
ATOM      1  C   UNL     1       2.470   5.217  19.509  0.00  0.00    +0.000 A 
ATOM      2  C   UNL     1       3.186   4.458  18.664  0.00  0.00    +0.000 A 
ATOM      3  C   UNL     1       3.902   5.065  17.555  0.00  0.00    +0.000 A 
ATOM      4  C   UNL     1       4.665   4.303  16.668  0.00  0.00    +0.000 A 
ATOM      5  C   UNL     1       5.374   4.942  15.648  0.00  0.00    +0.000 A 
ATOM      6 BR   UNL     1       6.438   3.915  14.468  0.00  0.00    +0.000 Br
ATOM      7  C   UNL     1       5.318   6.329  15.496  0.00  0.00    +0.000 A 
ATOM      8  C   UNL     1       4.540   7.088  16.370  0.00  0.00    +0.000 A 
ATOM      9  C   UNL     1       3.845   6.446  17.392  0.00  0.00    +0.000 A 
ATOM     10  O   UNL     1       3.092   7.245  18.270  0.00  0.00    +0.000 OA
ATOM     11  C   UNL     1       2.397   6.687  19.333  0.00  0.00    +0.000 A 
ATOM     12  N   UNL     1       1.721   7.419  20.147  0.00  0.00    +0.000 NA
ENDROOT
BRANCH   1  14
ATOM     13  N   UNL     1       0.513   4.142  20.458  0.00  0.00    +0.000 N 
ATOM     14  C   UNL     1       1.813   4.506  20.643  0.00  0.00    +0.000 C 
ATOM     15  O   UNL     1       2.390   4.251  21.696  0.00  0.00    +0.000 OA
ATOM     16  H   UNL     1       0.004   3.777  21.248  0.00  0.00    +0.000 HD
ATOM     17  H   UNL     1      -0.020   4.533  19.682  0.00  0.00    +0.000 HD
ENDBRANCH   1  14
BRANCH  12  18
ATOM     18  C   UNL     1       1.759   8.869  20.021  0.00  0.00    +0.000 C 
BRANCH  18  19
ATOM     19  C   UNL     1       0.869   9.473  21.085  0.00  0.00    +0.000 A 
ATOM     20  C   UNL     1       0.888   8.956  22.391  0.00  0.00    +0.000 A 
ATOM     21  C   UNL     1       0.013   9.443  23.363  0.00  0.00    +0.000 A 
ATOM     22  C   UNL     1      -0.882  10.462  23.043  0.00  0.00    +0.000 A 
ATOM     23  C   UNL     1      -0.892  11.002  21.758  0.00  0.00    +0.000 A 
ATOM     24  C   UNL     1      -0.022  10.511  20.782  0.00  0.00    +0.000 A 
ENDBRANCH  18  19
ENDBRANCH  12  18
TORSDOF 3
ENDMDL
MODEL 8
REMARK VINA RESULT:      -7.8      4.285      5.823
REMARK  Name = 
REMARK  3 active torsions:
REMARK  status: ('A' for Active; 'I' for Inactive)
REMARK    1  A    between atoms: C_2  and  C_4
REMARK    2  A    between atoms: N_15  and  C_16
REMARK    3  A    between atoms: C_16  and  C_17
REMARK                            x       y       z     vdW  Elec       q    Type
REMARK                         _______ _______ _______ _____ _____    ______ ____
ROOT
ATOM      1  C   UNL     1       6.006   4.513  17.219  0.00  0.00    +0.000 A 
ATOM      2  C   UNL     1       5.488   4.270  18.434  0.00  0.00    +0.000 A 
ATOM      3  C   UNL     1       4.104   3.851  18.574  0.00  0.00    +0.000 A 
ATOM      4  C   UNL     1       3.541   3.577  19.823  0.00  0.00    +0.000 A 
ATOM      5  C   UNL     1       2.221   3.131  19.898  0.00  0.00    +0.000 A 
ATOM      6 BR   UNL     1       1.469   2.724  21.586  0.00  0.00    +0.000 Br
ATOM      7  C   UNL     1       1.453   2.968  18.743  0.00  0.00    +0.000 A 
ATOM      8  C   UNL     1       2.007   3.260  17.498  0.00  0.00    +0.000 A 
ATOM      9  C   UNL     1       3.329   3.694  17.429  0.00  0.00    +0.000 A 
ATOM     10  O   UNL     1       3.864   3.953  16.154  0.00  0.00    +0.000 OA
ATOM     11  C   UNL     1       5.181   4.358  15.997  0.00  0.00    +0.000 A 
ATOM     12  N   UNL     1       5.678   4.580  14.831  0.00  0.00    +0.000 NA
ENDROOT
BRANCH   1  14
ATOM     13  N   UNL     1       7.746   6.087  16.601  0.00  0.00    +0.000 N 
ATOM     14  C   UNL     1       7.448   4.890  17.178  0.00  0.00    +0.000 C 
ATOM     15  O   UNL     1       8.338   4.176  17.632  0.00  0.00    +0.000 OA
ATOM     16  H   UNL     1       8.716   6.311  16.442  0.00  0.00    +0.000 HD
ATOM     17  H   UNL     1       7.043   6.573  16.044  0.00  0.00    +0.000 HD
ENDBRANCH   1  14
BRANCH  12  18
ATOM     18  C   UNL     1       4.882   4.309  13.642  0.00  0.00    +0.000 C 
BRANCH  18  19
ATOM     19  C   UNL     1       5.725   3.522  12.662  0.00  0.00    +0.000 A 
ATOM     20  C   UNL     1       5.175   2.416  11.994  0.00  0.00    +0.000 A 
ATOM     21  C   UNL     1       5.962   1.628  11.153  0.00  0.00    +0.000 A 
ATOM     22  C   UNL     1       7.305   1.945  10.961  0.00  0.00    +0.000 A 
ATOM     23  C   UNL     1       7.856   3.056  11.598  0.00  0.00    +0.000 A 
ATOM     24  C   UNL     1       7.072   3.842  12.445  0.00  0.00    +0.000 A 
ENDBRANCH  18  19
ENDBRANCH  12  18
TORSDOF 3
ENDMDL
MODEL 9
REMARK VINA RESULT:      -7.8      2.946      6.062
REMARK  Name = 
REMARK  3 active torsions:
REMARK  status: ('A' for Active; 'I' for Inactive)
REMARK    1  A    between atoms: C_2  and  C_4
REMARK    2  A    between atoms: N_15  and  C_16
REMARK    3  A    between atoms: C_16  and  C_17
REMARK                            x       y       z     vdW  Elec       q    Type
REMARK                         _______ _______ _______ _____ _____    ______ ____
ROOT
ATOM      1  C   UNL     1       1.979   4.267  18.979  0.00  0.00    +0.000 A 
ATOM      2  C   UNL     1       2.649   3.746  17.938  0.00  0.00    +0.000 A 
ATOM      3  C   UNL     1       3.678   4.518  17.264  0.00  0.00    +0.000 A 
ATOM      4  C   UNL     1       4.401   3.999  16.188  0.00  0.00    +0.000 A 
ATOM      5  C   UNL     1       5.414   4.764  15.607  0.00  0.00    +0.000 A 
ATOM      6 BR   UNL     1       6.419   4.047  14.174  0.00  0.00    +0.000 Br
ATOM      7  C   UNL     1       5.703   6.047  16.078  0.00  0.00    +0.000 A 
ATOM      8  C   UNL     1       4.968   6.575  17.139  0.00  0.00    +0.000 A 
ATOM      9  C   UNL     1       3.967   5.801  17.722  0.00  0.00    +0.000 A 
ATOM     10  O   UNL     1       3.264   6.354  18.808  0.00  0.00    +0.000 OA
ATOM     11  C   UNL     1       2.275   5.637  19.464  0.00  0.00    +0.000 A 
ATOM     12  N   UNL     1       1.643   6.135  20.467  0.00  0.00    +0.000 NA
ENDROOT
BRANCH   1  14
ATOM     13  N   UNL     1       0.994   3.345  20.995  0.00  0.00    +0.000 N 
ATOM     14  C   UNL     1       0.978   3.378  19.634  0.00  0.00    +0.000 C 
ATOM     15  O   UNL     1       0.171   2.701  19.002  0.00  0.00    +0.000 OA
ATOM     16  H   UNL     1       0.419   2.661  21.463  0.00  0.00    +0.000 HD
ATOM     17  H   UNL     1       1.786   3.736  21.504  0.00  0.00    +0.000 HD
ENDBRANCH   1  14
BRANCH  12  18
ATOM     18  C   UNL     1       2.031   7.436  20.995  0.00  0.00    +0.000 C 
BRANCH  18  19
ATOM     19  C   UNL     1       1.207   8.503  20.310  0.00  0.00    +0.000 A 
ATOM     20  C   UNL     1       0.089   9.052  20.961  0.00  0.00    +0.000 A 
ATOM     21  C   UNL     1      -0.731   9.975  20.310  0.00  0.00    +0.000 A 
ATOM     22  C   UNL     1      -0.437  10.369  19.007  0.00  0.00    +0.000 A 
ATOM     23  C   UNL     1       0.685   9.852  18.360  0.00  0.00    +0.000 A 
ATOM     24  C   UNL     1       1.504   8.923  19.006  0.00  0.00    +0.000 A 
ENDBRANCH  18  19
ENDBRANCH  12  18
TORSDOF 3
ENDMDL
