MODEL 1
REMARK VINA RESULT:      -8.4      0.000      0.000
REMARK  Name = 
REMARK  7 active torsions:
REMARK  status: ('A' for Active; 'I' for Inactive)
REMARK    1  A    between atoms: N_1  and  C_2
REMARK    2  A    between atoms: C_2  and  C_3
REMARK    3  A    between atoms: C_2  and  C_10
REMARK    4  A    between atoms: C_3  and  C_4
REMARK    5  A    between atoms: N_14  and  C_15
REMARK    6  A    between atoms: C_18  and  C_19
REMARK    7  A    between atoms: C_19  and  C_21
REMARK                            x       y       z     vdW  Elec       q    Type
REMARK                         _______ _______ _______ _____ _____    ______ ____
ROOT
ATOM      1  C   UNL     1      -2.264  11.667  18.315  0.00  0.00    +0.000 A 
ATOM      2  C   UNL     1      -2.559  12.398  19.454  0.00  0.00    +0.000 A 
ATOM      3  S   UNL     1      -1.224  12.406  20.521  0.00  0.00    +0.000 S 
ATOM      4  C   UNL     1      -0.364  11.369  19.448  0.00  0.00    +0.000 A 
ATOM      5  N   UNL     1       0.888  10.953  19.755  0.00  0.00    +0.000 N 
ATOM      6  N   UNL     1      -1.018  11.062  18.349  0.00  0.00    +0.000 NA
ATOM      7  H   UNL     1       1.315  11.332  20.589  0.00  0.00    +0.000 HD
ENDROOT
BRANCH   5   8
ATOM      8  C   UNL     1       1.417   9.700  19.387  0.00  0.00    +0.000 A 
ATOM      9  C   UNL     1       1.920   9.529  18.090  0.00  0.00    +0.000 A 
ATOM     10  C   UNL     1       2.439   8.295  17.682  0.00  0.00    +0.000 A 
ATOM     11  C   UNL     1       2.470   7.214  18.570  0.00  0.00    +0.000 A 
ATOM     12  C   UNL     1       1.993   7.381  19.872  0.00  0.00    +0.000 A 
ATOM     13  C   UNL     1       1.452   8.609  20.262  0.00  0.00    +0.000 A 
BRANCH  11  14
ATOM     14  C   UNL     1       3.071   5.933  18.113  0.00  0.00    +0.000 C 
ATOM     15  O   UNL     1       3.994   5.965  17.303  0.00  0.00    +0.000 OA
BRANCH  14  16
ATOM     16  C   UNL     1       2.608   4.618  18.626  0.00  0.00    +0.000 A 
ATOM     17  C   UNL     1       3.305   4.038  19.693  0.00  0.00    +0.000 A 
ATOM     18  C   UNL     1       2.898   2.808  20.212  0.00  0.00    +0.000 A 
ATOM     19  C   UNL     1       1.798   2.151  19.661  0.00  0.00    +0.000 A 
ATOM     20  C   UNL     1       1.115   2.712  18.582  0.00  0.00    +0.000 A 
ATOM     21  C   UNL     1       1.525   3.937  18.055  0.00  0.00    +0.000 A 
ENDBRANCH  14  16
ENDBRANCH  11  14
ENDBRANCH   5   8
BRANCH   1  22
ATOM     22  C   UNL     1      -3.157  11.451  17.111  0.00  0.00    +0.000 C 
BRANCH  22  23
ATOM     23  N   UNL     1      -2.351  10.818  16.047  0.00  0.00    +0.000 NA
ATOM     24  H   UNL     1      -2.983  10.544  15.293  0.00  0.00    +0.000 HD
ATOM     25  H   UNL     1      -1.976   9.942  16.410  0.00  0.00    +0.000 HD
ENDBRANCH  22  23
BRANCH  22  26
ATOM     26  C   UNL     1      -4.422  10.610  17.444  0.00  0.00    +0.000 C 
BRANCH  26  27
ATOM     27  C   UNL     1      -5.619  11.449  17.852  0.00  0.00    +0.000 A 
ATOM     28  C   UNL     1      -5.947  12.609  17.137  0.00  0.00    +0.000 A 
ATOM     29  C   UNL     1      -7.001  13.424  17.555  0.00  0.00    +0.000 A 
ATOM     30  C   UNL     1      -7.743  13.083  18.685  0.00  0.00    +0.000 A 
ATOM     31  C   UNL     1      -7.448  11.913  19.381  0.00  0.00    +0.000 A 
ATOM     32  C   UNL     1      -6.400  11.094  18.961  0.00  0.00    +0.000 A 
ENDBRANCH  26  27
ENDBRANCH  22  26
ENDBRANCH   1  22
TORSDOF 7
ENDMDL
MODEL 2
REMARK VINA RESULT:      -8.3      1.621      2.511
REMARK  Name = 
REMARK  7 active torsions:
REMARK  status: ('A' for Active; 'I' for Inactive)
REMARK    1  A    between atoms: N_1  and  C_2
REMARK    2  A    between atoms: C_2  and  C_3
REMARK    3  A    between atoms: C_2  and  C_10
REMARK    4  A    between atoms: C_3  and  C_4
REMARK    5  A    between atoms: N_14  and  C_15
REMARK    6  A    between atoms: C_18  and  C_19
REMARK    7  A    between atoms: C_19  and  C_21
REMARK                            x       y       z     vdW  Elec       q    Type
REMARK                         _______ _______ _______ _____ _____    ______ ____
ROOT
ATOM      1  C   UNL     1      -2.030  11.401  18.520  0.00  0.00    +0.000 A 
ATOM      2  C   UNL     1      -2.299  12.024  19.727  0.00  0.00    +0.000 A 
ATOM      3  S   UNL     1      -0.959  11.890  20.781  0.00  0.00    +0.000 S 
ATOM      4  C   UNL     1      -0.134  10.940  19.603  0.00  0.00    +0.000 A 
ATOM      5  N   UNL     1       1.107  10.461  19.859  0.00  0.00    +0.000 N 
ATOM      6  N   UNL     1      -0.802  10.762  18.484  0.00  0.00    +0.000 NA
ATOM      7  H   UNL     1       1.550  10.745  20.723  0.00  0.00    +0.000 HD
ENDROOT
BRANCH   5   8
ATOM      8  C   UNL     1       1.599   9.237  19.364  0.00  0.00    +0.000 A 
ATOM      9  C   UNL     1       1.639   8.125  20.217  0.00  0.00    +0.000 A 
ATOM     10  C   UNL     1       2.136   6.898  19.766  0.00  0.00    +0.000 A 
ATOM     11  C   UNL     1       2.594   6.761  18.451  0.00  0.00    +0.000 A 
ATOM     12  C   UNL     1       2.537   7.856  17.587  0.00  0.00    +0.000 A 
ATOM     13  C   UNL     1       2.065   9.086  18.053  0.00  0.00    +0.000 A 
BRANCH  11  14
ATOM     14  C   UNL     1       3.072   5.428  17.998  0.00  0.00    +0.000 C 
ATOM     15  O   UNL     1       2.252   4.529  17.827  0.00  0.00    +0.000 OA
BRANCH  14  16
ATOM     16  C   UNL     1       4.507   5.158  17.721  0.00  0.00    +0.000 A 
ATOM     17  C   UNL     1       5.445   5.470  18.712  0.00  0.00    +0.000 A 
ATOM     18  C   UNL     1       6.802   5.224  18.497  0.00  0.00    +0.000 A 
ATOM     19  C   UNL     1       7.226   4.675  17.288  0.00  0.00    +0.000 A 
ATOM     20  C   UNL     1       6.298   4.385  16.286  0.00  0.00    +0.000 A 
ATOM     21  C   UNL     1       4.942   4.638  16.495  0.00  0.00    +0.000 A 
ENDBRANCH  14  16
ENDBRANCH  11  14
ENDBRANCH   5   8
BRANCH   1  22
ATOM     22  C   UNL     1      -2.935  11.330  17.308  0.00  0.00    +0.000 C 
BRANCH  22  23
ATOM     23  N   UNL     1      -2.166  10.739  16.193  0.00  0.00    +0.000 NA
ATOM     24  H   UNL     1      -2.736  10.004  15.772  0.00  0.00    +0.000 HD
ATOM     25  H   UNL     1      -1.358  10.257  16.585  0.00  0.00    +0.000 HD
ENDBRANCH  22  23
BRANCH  22  26
ATOM     26  C   UNL     1      -4.244  10.537  17.580  0.00  0.00    +0.000 C 
BRANCH  26  27
ATOM     27  C   UNL     1      -5.434  11.421  17.907  0.00  0.00    +0.000 A 
ATOM     28  C   UNL     1      -6.215  11.164  19.042  0.00  0.00    +0.000 A 
ATOM     29  C   UNL     1      -7.355  11.928  19.304  0.00  0.00    +0.000 A 
ATOM     30  C   UNL     1      -7.719  12.959  18.442  0.00  0.00    +0.000 A 
ATOM     31  C   UNL     1      -6.928  13.246  17.331  0.00  0.00    +0.000 A 
ATOM     32  C   UNL     1      -5.786  12.489  17.070  0.00  0.00    +0.000 A 
ENDBRANCH  26  27
ENDBRANCH  22  26
ENDBRANCH   1  22
TORSDOF 7
ENDMDL
MODEL 3
REMARK VINA RESULT:      -8.3      1.662      2.511
REMARK  Name = 
REMARK  7 active torsions:
REMARK  status: ('A' for Active; 'I' for Inactive)
REMARK    1  A    between atoms: N_1  and  C_2
REMARK    2  A    between atoms: C_2  and  C_3
REMARK    3  A    between atoms: C_2  and  C_10
REMARK    4  A    between atoms: C_3  and  C_4
REMARK    5  A    between atoms: N_14  and  C_15
REMARK    6  A    between atoms: C_18  and  C_19
REMARK    7  A    between atoms: C_19  and  C_21
REMARK                            x       y       z     vdW  Elec       q    Type
REMARK                         _______ _______ _______ _____ _____    ______ ____
ROOT
ATOM      1  C   UNL     1      -2.020  11.298  18.485  0.00  0.00    +0.000 A 
ATOM      2  C   UNL     1      -2.259  11.975  19.669  0.00  0.00    +0.000 A 
ATOM      3  S   UNL     1      -0.882  11.915  20.681  0.00  0.00    +0.000 S 
ATOM      4  C   UNL     1      -0.080  10.921  19.523  0.00  0.00    +0.000 A 
ATOM      5  N   UNL     1       1.177  10.476  19.759  0.00  0.00    +0.000 N 
ATOM      6  N   UNL     1      -0.782  10.677  18.439  0.00  0.00    +0.000 NA
ATOM      7  H   UNL     1       1.643  10.809  20.593  0.00  0.00    +0.000 HD
ENDROOT
BRANCH   5   8
ATOM      8  C   UNL     1       1.673   9.237  19.309  0.00  0.00    +0.000 A 
ATOM      9  C   UNL     1       1.646   8.136  20.177  0.00  0.00    +0.000 A 
ATOM     10  C   UNL     1       2.146   6.894  19.771  0.00  0.00    +0.000 A 
ATOM     11  C   UNL     1       2.673   6.731  18.485  0.00  0.00    +0.000 A 
ATOM     12  C   UNL     1       2.684   7.815  17.604  0.00  0.00    +0.000 A 
ATOM     13  C   UNL     1       2.208   9.059  18.027  0.00  0.00    +0.000 A 
BRANCH  11  14
ATOM     14  C   UNL     1       3.152   5.384  18.076  0.00  0.00    +0.000 C 
ATOM     15  O   UNL     1       2.341   4.465  17.994  0.00  0.00    +0.000 OA
BRANCH  14  16
ATOM     16  C   UNL     1       4.576   5.123  17.739  0.00  0.00    +0.000 A 
ATOM     17  C   UNL     1       4.881   4.675  16.448  0.00  0.00    +0.000 A 
ATOM     18  C   UNL     1       6.205   4.427  16.086  0.00  0.00    +0.000 A 
ATOM     19  C   UNL     1       7.227   4.617  17.016  0.00  0.00    +0.000 A 
ATOM     20  C   UNL     1       6.927   5.038  18.311  0.00  0.00    +0.000 A 
ATOM     21  C   UNL     1       5.602   5.279  18.679  0.00  0.00    +0.000 A 
ENDBRANCH  14  16
ENDBRANCH  11  14
ENDBRANCH   5   8
BRANCH   1  22
ATOM     22  C   UNL     1      -2.964  11.151  17.310  0.00  0.00    +0.000 C 
BRANCH  22  23
ATOM     23  N   UNL     1      -2.221  10.523  16.198  0.00  0.00    +0.000 NA
ATOM     24  H   UNL     1      -2.073   9.540  16.433  0.00  0.00    +0.000 HD
ATOM     25  H   UNL     1      -1.288  10.932  16.167  0.00  0.00    +0.000 HD
ENDBRANCH  22  23
BRANCH  22  26
ATOM     26  C   UNL     1      -4.246  10.347  17.664  0.00  0.00    +0.000 C 
BRANCH  26  27
ATOM     27  C   UNL     1      -5.447  11.222  17.971  0.00  0.00    +0.000 A 
ATOM     28  C   UNL     1      -5.692  12.378  17.216  0.00  0.00    +0.000 A 
ATOM     29  C   UNL     1      -6.752  13.226  17.544  0.00  0.00    +0.000 A 
ATOM     30  C   UNL     1      -7.582  12.924  18.621  0.00  0.00    +0.000 A 
ATOM     31  C   UNL     1      -7.370  11.759  19.355  0.00  0.00    +0.000 A 
ATOM     32  C   UNL     1      -6.315  10.907  19.026  0.00  0.00    +0.000 A 
ENDBRANCH  26  27
ENDBRANCH  22  26
ENDBRANCH   1  22
TORSDOF 7
ENDMDL
MODEL 4
REMARK VINA RESULT:      -8.2      1.600      2.449
REMARK  Name = 
REMARK  7 active torsions:
REMARK  status: ('A' for Active; 'I' for Inactive)
REMARK    1  A    between atoms: N_1  and  C_2
REMARK    2  A    between atoms: C_2  and  C_3
REMARK    3  A    between atoms: C_2  and  C_10
REMARK    4  A    between atoms: C_3  and  C_4
REMARK    5  A    between atoms: N_14  and  C_15
REMARK    6  A    between atoms: C_18  and  C_19
REMARK    7  A    between atoms: C_19  and  C_21
REMARK                            x       y       z     vdW  Elec       q    Type
REMARK                         _______ _______ _______ _____ _____    ______ ____
ROOT
ATOM      1  C   UNL     1      -2.011  11.425  18.719  0.00  0.00    +0.000 A 
ATOM      2  C   UNL     1      -2.288  12.053  19.921  0.00  0.00    +0.000 A 
ATOM      3  S   UNL     1      -0.980  11.871  21.006  0.00  0.00    +0.000 S 
ATOM      4  C   UNL     1      -0.159  10.896  19.847  0.00  0.00    +0.000 A 
ATOM      5  N   UNL     1       1.058  10.374  20.131  0.00  0.00    +0.000 N 
ATOM      6  N   UNL     1      -0.805  10.744  18.711  0.00  0.00    +0.000 NA
ATOM      7  H   UNL     1       1.488  10.640  21.007  0.00  0.00    +0.000 HD
ENDROOT
BRANCH   5   8
ATOM      8  C   UNL     1       1.519   9.135  19.645  0.00  0.00    +0.000 A 
ATOM      9  C   UNL     1       1.928   9.038  18.308  0.00  0.00    +0.000 A 
ATOM     10  C   UNL     1       2.377   7.820  17.785  0.00  0.00    +0.000 A 
ATOM     11  C   UNL     1       2.432   6.681  18.596  0.00  0.00    +0.000 A 
ATOM     12  C   UNL     1       2.050   6.773  19.936  0.00  0.00    +0.000 A 
ATOM     13  C   UNL     1       1.576   7.986  20.443  0.00  0.00    +0.000 A 
BRANCH  11  14
ATOM     14  C   UNL     1       2.959   5.417  18.015  0.00  0.00    +0.000 C 
ATOM     15  O   UNL     1       2.164   4.552  17.656  0.00  0.00    +0.000 OA
BRANCH  14  16
ATOM     16  C   UNL     1       4.414   5.182  17.831  0.00  0.00    +0.000 A 
ATOM     17  C   UNL     1       4.848   4.608  16.629  0.00  0.00    +0.000 A 
ATOM     18  C   UNL     1       6.207   4.378  16.412  0.00  0.00    +0.000 A 
ATOM     19  C   UNL     1       7.135   4.712  17.397  0.00  0.00    +0.000 A 
ATOM     20  C   UNL     1       6.707   5.261  18.606  0.00  0.00    +0.000 A 
ATOM     21  C   UNL     1       5.348   5.484  18.831  0.00  0.00    +0.000 A 
ENDBRANCH  14  16
ENDBRANCH  11  14
ENDBRANCH   5   8
BRANCH   1  22
ATOM     22  C   UNL     1      -2.888  11.387  17.484  0.00  0.00    +0.000 C 
BRANCH  22  23
ATOM     23  N   UNL     1      -2.092  10.831  16.371  0.00  0.00    +0.000 NA
ATOM     24  H   UNL     1      -1.261  11.413  16.256  0.00  0.00    +0.000 HD
ATOM     25  H   UNL     1      -2.623  10.953  15.509  0.00  0.00    +0.000 HD
ENDBRANCH  22  23
BRANCH  22  26
ATOM     26  C   UNL     1      -4.201  10.584  17.703  0.00  0.00    +0.000 C 
BRANCH  26  27
ATOM     27  C   UNL     1      -5.412  11.459  17.967  0.00  0.00    +0.000 A 
ATOM     28  C   UNL     1      -6.205  11.245  19.103  0.00  0.00    +0.000 A 
ATOM     29  C   UNL     1      -7.364  11.997  19.310  0.00  0.00    +0.000 A 
ATOM     30  C   UNL     1      -7.735  12.976  18.391  0.00  0.00    +0.000 A 
ATOM     31  C   UNL     1      -6.933  13.223  17.278  0.00  0.00    +0.000 A 
ATOM     32  C   UNL     1      -5.773  12.476  17.072  0.00  0.00    +0.000 A 
ENDBRANCH  26  27
ENDBRANCH  22  26
ENDBRANCH   1  22
TORSDOF 7
ENDMDL
MODEL 5
REMARK VINA RESULT:      -8.1      2.479      4.132
REMARK  Name = 
REMARK  7 active torsions:
REMARK  status: ('A' for Active; 'I' for Inactive)
REMARK    1  A    between atoms: N_1  and  C_2
REMARK    2  A    between atoms: C_2  and  C_3
REMARK    3  A    between atoms: C_2  and  C_10
REMARK    4  A    between atoms: C_3  and  C_4
REMARK    5  A    between atoms: N_14  and  C_15
REMARK    6  A    between atoms: C_18  and  C_19
REMARK    7  A    between atoms: C_19  and  C_21
REMARK                            x       y       z     vdW  Elec       q    Type
REMARK                         _______ _______ _______ _____ _____    ______ ____
ROOT
ATOM      1  C   UNL     1       0.257  10.985  20.767  0.00  0.00    +0.000 A 
ATOM      2  C   UNL     1      -0.608  10.922  21.846  0.00  0.00    +0.000 A 
ATOM      3  S   UNL     1      -0.367   9.474  22.722  0.00  0.00    +0.000 S 
ATOM      4  C   UNL     1       0.813   8.977  21.567  0.00  0.00    +0.000 A 
ATOM      5  N   UNL     1       1.439   7.784  21.700  0.00  0.00    +0.000 N 
ATOM      6  N   UNL     1       1.035   9.849  20.609  0.00  0.00    +0.000 NA
ATOM      7  H   UNL     1       1.245   7.243  22.533  0.00  0.00    +0.000 HD
ENDROOT
BRANCH   5   8
ATOM      8  C   UNL     1       1.870   6.992  20.618  0.00  0.00    +0.000 A 
ATOM      9  C   UNL     1       1.915   5.599  20.769  0.00  0.00    +0.000 A 
ATOM     10  C   UNL     1       2.353   4.782  19.721  0.00  0.00    +0.000 A 
ATOM     11  C   UNL     1       2.745   5.345  18.501  0.00  0.00    +0.000 A 
ATOM     12  C   UNL     1       2.681   6.730  18.333  0.00  0.00    +0.000 A 
ATOM     13  C   UNL     1       2.268   7.541  19.393  0.00  0.00    +0.000 A 
BRANCH  11  14
ATOM     14  C   UNL     1       3.160   4.438  17.398  0.00  0.00    +0.000 C 
ATOM     15  O   UNL     1       2.331   3.670  16.916  0.00  0.00    +0.000 OA
BRANCH  14  16
ATOM     16  C   UNL     1       4.539   4.453  16.844  0.00  0.00    +0.000 A 
ATOM     17  C   UNL     1       5.611   4.587  17.734  0.00  0.00    +0.000 A 
ATOM     18  C   UNL     1       6.922   4.596  17.256  0.00  0.00    +0.000 A 
ATOM     19  C   UNL     1       7.165   4.479  15.888  0.00  0.00    +0.000 A 
ATOM     20  C   UNL     1       6.099   4.370  14.994  0.00  0.00    +0.000 A 
ATOM     21  C   UNL     1       4.787   4.370  15.467  0.00  0.00    +0.000 A 
ENDBRANCH  14  16
ENDBRANCH  11  14
ENDBRANCH   5   8
BRANCH   1  22
ATOM     22  C   UNL     1       0.393  12.116  19.769  0.00  0.00    +0.000 C 
BRANCH  22  23
ATOM     23  N   UNL     1       1.773  12.636  19.847  0.00  0.00    +0.000 NA
ATOM     24  H   UNL     1       2.411  11.878  19.598  0.00  0.00    +0.000 HD
ATOM     25  H   UNL     1       1.979  12.848  20.822  0.00  0.00    +0.000 HD
ENDBRANCH  22  23
BRANCH  22  26
ATOM     26  C   UNL     1       0.026  11.688  18.320  0.00  0.00    +0.000 C 
BRANCH  26  27
ATOM     27  C   UNL     1      -1.417  11.245  18.164  0.00  0.00    +0.000 A 
ATOM     28  C   UNL     1      -1.722  10.051  17.497  0.00  0.00    +0.000 A 
ATOM     29  C   UNL     1      -3.052   9.678  17.284  0.00  0.00    +0.000 A 
ATOM     30  C   UNL     1      -4.087  10.489  17.745  0.00  0.00    +0.000 A 
ATOM     31  C   UNL     1      -3.794  11.659  18.442  0.00  0.00    +0.000 A 
ATOM     32  C   UNL     1      -2.468  12.030  18.660  0.00  0.00    +0.000 A 
ENDBRANCH  26  27
ENDBRANCH  22  26
ENDBRANCH   1  22
TORSDOF 7
ENDMDL
MODEL 6
REMARK VINA RESULT:      -8.0      2.440      3.983
REMARK  Name = 
REMARK  7 active torsions:
REMARK  status: ('A' for Active; 'I' for Inactive)
REMARK    1  A    between atoms: N_1  and  C_2
REMARK    2  A    between atoms: C_2  and  C_3
REMARK    3  A    between atoms: C_2  and  C_10
REMARK    4  A    between atoms: C_3  and  C_4
REMARK    5  A    between atoms: N_14  and  C_15
REMARK    6  A    between atoms: C_18  and  C_19
REMARK    7  A    between atoms: C_19  and  C_21
REMARK                            x       y       z     vdW  Elec       q    Type
REMARK                         _______ _______ _______ _____ _____    ______ ____
ROOT
ATOM      1  C   UNL     1      -0.198  10.587  20.379  0.00  0.00    +0.000 A 
ATOM      2  C   UNL     1      -0.911  10.510  21.563  0.00  0.00    +0.000 A 
ATOM      3  S   UNL     1      -0.324   9.230  22.533  0.00  0.00    +0.000 S 
ATOM      4  C   UNL     1       0.786   8.800  21.286  0.00  0.00    +0.000 A 
ATOM      5  N   UNL     1       1.622   7.747  21.448  0.00  0.00    +0.000 N 
ATOM      6  N   UNL     1       0.743   9.581  20.229  0.00  0.00    +0.000 NA
ATOM      7  H   UNL     1       1.619   7.282  22.346  0.00  0.00    +0.000 HD
ENDROOT
BRANCH   5   8
ATOM      8  C   UNL     1       2.059   6.916  20.398  0.00  0.00    +0.000 A 
ATOM      9  C   UNL     1       1.999   5.525  20.561  0.00  0.00    +0.000 A 
ATOM     10  C   UNL     1       2.439   4.668  19.547  0.00  0.00    +0.000 A 
ATOM     11  C   UNL     1       2.939   5.190  18.348  0.00  0.00    +0.000 A 
ATOM     12  C   UNL     1       2.981   6.574  18.167  0.00  0.00    +0.000 A 
ATOM     13  C   UNL     1       2.565   7.424  19.196  0.00  0.00    +0.000 A 
BRANCH  11  14
ATOM     14  C   UNL     1       3.354   4.245  17.278  0.00  0.00    +0.000 C 
ATOM     15  O   UNL     1       2.567   3.374  16.916  0.00  0.00    +0.000 OA
BRANCH  14  16
ATOM     16  C   UNL     1       4.681   4.341  16.614  0.00  0.00    +0.000 A 
ATOM     17  C   UNL     1       4.724   4.349  15.215  0.00  0.00    +0.000 A 
ATOM     18  C   UNL     1       5.948   4.446  14.551  0.00  0.00    +0.000 A 
ATOM     19  C   UNL     1       7.132   4.527  15.284  0.00  0.00    +0.000 A 
ATOM     20  C   UNL     1       7.096   4.493  16.678  0.00  0.00    +0.000 A 
ATOM     21  C   UNL     1       5.875   4.387  17.345  0.00  0.00    +0.000 A 
ENDBRANCH  14  16
ENDBRANCH  11  14
ENDBRANCH   5   8
BRANCH   1  22
ATOM     22  C   UNL     1      -0.375  11.603  19.270  0.00  0.00    +0.000 C 
BRANCH  22  23
ATOM     23  N   UNL     1       0.871  12.389  19.162  0.00  0.00    +0.000 NA
ATOM     24  H   UNL     1       1.541  11.844  18.617  0.00  0.00    +0.000 HD
ATOM     25  H   UNL     1       1.283  12.463  20.092  0.00  0.00    +0.000 HD
ENDBRANCH  22  23
BRANCH  22  26
ATOM     26  C   UNL     1      -0.757  10.951  17.912  0.00  0.00    +0.000 C 
BRANCH  26  27
ATOM     27  C   UNL     1      -2.226  11.096  17.559  0.00  0.00    +0.000 A 
ATOM     28  C   UNL     1      -2.671  10.827  16.258  0.00  0.00    +0.000 A 
ATOM     29  C   UNL     1      -4.008  11.033  15.910  0.00  0.00    +0.000 A 
ATOM     30  C   UNL     1      -4.914  11.499  16.860  0.00  0.00    +0.000 A 
ATOM     31  C   UNL     1      -4.489  11.735  18.166  0.00  0.00    +0.000 A 
ATOM     32  C   UNL     1      -3.156  11.524  18.517  0.00  0.00    +0.000 A 
ENDBRANCH  26  27
ENDBRANCH  22  26
ENDBRANCH   1  22
TORSDOF 7
ENDMDL
MODEL 7
REMARK VINA RESULT:      -8.0      0.752      1.613
REMARK  Name = 
REMARK  7 active torsions:
REMARK  status: ('A' for Active; 'I' for Inactive)
REMARK    1  A    between atoms: N_1  and  C_2
REMARK    2  A    between atoms: C_2  and  C_3
REMARK    3  A    between atoms: C_2  and  C_10
REMARK    4  A    between atoms: C_3  and  C_4
REMARK    5  A    between atoms: N_14  and  C_15
REMARK    6  A    between atoms: C_18  and  C_19
REMARK    7  A    between atoms: C_19  and  C_21
REMARK                            x       y       z     vdW  Elec       q    Type
REMARK                         _______ _______ _______ _____ _____    ______ ____
ROOT
ATOM      1  C   UNL     1      -2.674  11.680  18.466  0.00  0.00    +0.000 A 
ATOM      2  C   UNL     1      -2.940  12.461  19.578  0.00  0.00    +0.000 A 
ATOM      3  S   UNL     1      -1.542  12.615  20.550  0.00  0.00    +0.000 S 
ATOM      4  C   UNL     1      -0.689  11.565  19.482  0.00  0.00    +0.000 A 
ATOM      5  N   UNL     1       0.603  11.243  19.727  0.00  0.00    +0.000 N 
ATOM      6  N   UNL     1      -1.393  11.153  18.450  0.00  0.00    +0.000 NA
ATOM      7  H   UNL     1       1.059  11.698  20.506  0.00  0.00    +0.000 HD
ENDROOT
BRANCH   5   8
ATOM      8  C   UNL     1       1.185  10.003  19.396  0.00  0.00    +0.000 A 
ATOM      9  C   UNL     1       1.294   9.016  20.385  0.00  0.00    +0.000 A 
ATOM     10  C   UNL     1       1.882   7.780  20.098  0.00  0.00    +0.000 A 
ATOM     11  C   UNL     1       2.362   7.507  18.812  0.00  0.00    +0.000 A 
ATOM     12  C   UNL     1       2.237   8.475  17.813  0.00  0.00    +0.000 A 
ATOM     13  C   UNL     1       1.674   9.718  18.115  0.00  0.00    +0.000 A 
BRANCH  11  14
ATOM     14  C   UNL     1       2.937   6.164  18.536  0.00  0.00    +0.000 C 
ATOM     15  O   UNL     1       4.029   6.088  17.978  0.00  0.00    +0.000 OA
BRANCH  14  16
ATOM     16  C   UNL     1       2.244   4.912  18.939  0.00  0.00    +0.000 A 
ATOM     17  C   UNL     1       2.127   3.885  17.995  0.00  0.00    +0.000 A 
ATOM     18  C   UNL     1       1.492   2.689  18.335  0.00  0.00    +0.000 A 
ATOM     19  C   UNL     1       0.965   2.521  19.615  0.00  0.00    +0.000 A 
ATOM     20  C   UNL     1       1.057   3.551  20.552  0.00  0.00    +0.000 A 
ATOM     21  C   UNL     1       1.683   4.751  20.213  0.00  0.00    +0.000 A 
ENDBRANCH  14  16
ENDBRANCH  11  14
ENDBRANCH   5   8
BRANCH   1  22
ATOM     22  C   UNL     1      -3.627  11.337  17.341  0.00  0.00    +0.000 C 
BRANCH  22  23
ATOM     23  N   UNL     1      -2.993  10.304  16.498  0.00  0.00    +0.000 NA
ATOM     24  H   UNL     1      -3.137   9.398  16.948  0.00  0.00    +0.000 HD
ATOM     25  H   UNL     1      -1.985  10.452  16.517  0.00  0.00    +0.000 HD
ENDBRANCH  22  23
BRANCH  22  26
ATOM     26  C   UNL     1      -5.022  10.878  17.852  0.00  0.00    +0.000 C 
BRANCH  26  27
ATOM     27  C   UNL     1      -5.989  12.024  18.091  0.00  0.00    +0.000 A 
ATOM     28  C   UNL     1      -6.673  12.130  19.309  0.00  0.00    +0.000 A 
ATOM     29  C   UNL     1      -7.621  13.138  19.504  0.00  0.00    +0.000 A 
ATOM     30  C   UNL     1      -7.886  14.053  18.488  0.00  0.00    +0.000 A 
ATOM     31  C   UNL     1      -7.185  13.978  17.286  0.00  0.00    +0.000 A 
ATOM     32  C   UNL     1      -6.234  12.977  17.092  0.00  0.00    +0.000 A 
ENDBRANCH  26  27
ENDBRANCH  22  26
ENDBRANCH   1  22
TORSDOF 7
ENDMDL
MODEL 8
REMARK VINA RESULT:      -7.9      2.366      3.622
REMARK  Name = 
REMARK  7 active torsions:
REMARK  status: ('A' for Active; 'I' for Inactive)
REMARK    1  A    between atoms: N_1  and  C_2
REMARK    2  A    between atoms: C_2  and  C_3
REMARK    3  A    between atoms: C_2  and  C_10
REMARK    4  A    between atoms: C_3  and  C_4
REMARK    5  A    between atoms: N_14  and  C_15
REMARK    6  A    between atoms: C_18  and  C_19
REMARK    7  A    between atoms: C_19  and  C_21
REMARK                            x       y       z     vdW  Elec       q    Type
REMARK                         _______ _______ _______ _____ _____    ______ ____
ROOT
ATOM      1  C   UNL     1      -0.550  10.623  20.239  0.00  0.00    +0.000 A 
ATOM      2  C   UNL     1      -1.132  10.604  21.496  0.00  0.00    +0.000 A 
ATOM      3  S   UNL     1      -0.331   9.486  22.510  0.00  0.00    +0.000 S 
ATOM      4  C   UNL     1       0.687   9.030  21.196  0.00  0.00    +0.000 A 
ATOM      5  N   UNL     1       1.634   8.077  21.364  0.00  0.00    +0.000 N 
ATOM      6  N   UNL     1       0.465   9.693  20.082  0.00  0.00    +0.000 NA
ATOM      7  H   UNL     1       1.766   7.706  22.296  0.00  0.00    +0.000 HD
ENDROOT
BRANCH   5   8
ATOM      8  C   UNL     1       2.044   7.184  20.354  0.00  0.00    +0.000 A 
ATOM      9  C   UNL     1       1.967   5.805  20.591  0.00  0.00    +0.000 A 
ATOM     10  C   UNL     1       2.381   4.889  19.618  0.00  0.00    +0.000 A 
ATOM     11  C   UNL     1       2.871   5.338  18.387  0.00  0.00    +0.000 A 
ATOM     12  C   UNL     1       2.930   6.710  18.132  0.00  0.00    +0.000 A 
ATOM     13  C   UNL     1       2.541   7.619  19.119  0.00  0.00    +0.000 A 
BRANCH  11  14
ATOM     14  C   UNL     1       3.257   4.332  17.363  0.00  0.00    +0.000 C 
ATOM     15  O   UNL     1       2.445   3.467  17.043  0.00  0.00    +0.000 OA
BRANCH  14  16
ATOM     16  C   UNL     1       4.585   4.356  16.696  0.00  0.00    +0.000 A 
ATOM     17  C   UNL     1       4.629   4.267  15.300  0.00  0.00    +0.000 A 
ATOM     18  C   UNL     1       5.854   4.295  14.633  0.00  0.00    +0.000 A 
ATOM     19  C   UNL     1       7.039   4.405  15.360  0.00  0.00    +0.000 A 
ATOM     20  C   UNL     1       7.003   4.470  16.753  0.00  0.00    +0.000 A 
ATOM     21  C   UNL     1       5.780   4.432  17.423  0.00  0.00    +0.000 A 
ENDBRANCH  14  16
ENDBRANCH  11  14
ENDBRANCH   5   8
BRANCH   1  22
ATOM     22  C   UNL     1      -0.934  11.501  19.067  0.00  0.00    +0.000 C 
BRANCH  22  23
ATOM     23  N   UNL     1       0.299  11.870  18.344  0.00  0.00    +0.000 NA
ATOM     24  H   UNL     1       0.077  11.924  17.348  0.00  0.00    +0.000 HD
ATOM     25  H   UNL     1       0.960  11.097  18.427  0.00  0.00    +0.000 HD
ENDBRANCH  22  23
BRANCH  22  26
ATOM     26  C   UNL     1      -1.968  10.827  18.123  0.00  0.00    +0.000 C 
BRANCH  26  27
ATOM     27  C   UNL     1      -3.335  11.486  18.147  0.00  0.00    +0.000 A 
ATOM     28  C   UNL     1      -3.824  12.058  19.330  0.00  0.00    +0.000 A 
ATOM     29  C   UNL     1      -5.111  12.598  19.376  0.00  0.00    +0.000 A 
ATOM     30  C   UNL     1      -5.918  12.580  18.240  0.00  0.00    +0.000 A 
ATOM     31  C   UNL     1      -5.428  12.047  17.050  0.00  0.00    +0.000 A 
ATOM     32  C   UNL     1      -4.140  11.513  17.000  0.00  0.00    +0.000 A 
ENDBRANCH  26  27
ENDBRANCH  22  26
ENDBRANCH   1  22
TORSDOF 7
ENDMDL
MODEL 9
REMARK VINA RESULT:      -7.9      3.537      5.386
REMARK  Name = 
REMARK  7 active torsions:
REMARK  status: ('A' for Active; 'I' for Inactive)
REMARK    1  A    between atoms: N_1  and  C_2
REMARK    2  A    between atoms: C_2  and  C_3
REMARK    3  A    between atoms: C_2  and  C_10
REMARK    4  A    between atoms: C_3  and  C_4
REMARK    5  A    between atoms: N_14  and  C_15
REMARK    6  A    between atoms: C_18  and  C_19
REMARK    7  A    between atoms: C_19  and  C_21
REMARK                            x       y       z     vdW  Elec       q    Type
REMARK                         _______ _______ _______ _____ _____    ______ ____
ROOT
ATOM      1  C   UNL     1      -0.003  10.812  19.907  0.00  0.00    +0.000 A 
ATOM      2  C   UNL     1      -0.761  10.892  21.063  0.00  0.00    +0.000 A 
ATOM      3  S   UNL     1      -0.305   9.667  22.164  0.00  0.00    +0.000 S 
ATOM      4  C   UNL     1       0.813   9.050  21.007  0.00  0.00    +0.000 A 
ATOM      5  N   UNL     1       1.563   7.959  21.296  0.00  0.00    +0.000 N 
ATOM      6  N   UNL     1       0.866   9.733  19.885  0.00  0.00    +0.000 NA
ATOM      7  H   UNL     1       1.495   7.578  22.230  0.00  0.00    +0.000 HD
ENDROOT
BRANCH   5   8
ATOM      8  C   UNL     1       1.974   7.008  20.341  0.00  0.00    +0.000 A 
ATOM      9  C   UNL     1       2.531   7.451  19.134  0.00  0.00    +0.000 A 
ATOM     10  C   UNL     1       2.935   6.536  18.156  0.00  0.00    +0.000 A 
ATOM     11  C   UNL     1       2.796   5.161  18.374  0.00  0.00    +0.000 A 
ATOM     12  C   UNL     1       2.263   4.708  19.583  0.00  0.00    +0.000 A 
ATOM     13  C   UNL     1       1.837   5.629  20.544  0.00  0.00    +0.000 A 
BRANCH  11  14
ATOM     14  C   UNL     1       3.280   4.221  17.329  0.00  0.00    +0.000 C 
ATOM     15  O   UNL     1       2.526   3.338  16.928  0.00  0.00    +0.000 OA
BRANCH  14  16
ATOM     16  C   UNL     1       4.638   4.334  16.736  0.00  0.00    +0.000 A 
ATOM     17  C   UNL     1       4.756   4.326  15.341  0.00  0.00    +0.000 A 
ATOM     18  C   UNL     1       6.012   4.439  14.742  0.00  0.00    +0.000 A 
ATOM     19  C   UNL     1       7.153   4.552  15.536  0.00  0.00    +0.000 A 
ATOM     20  C   UNL     1       7.043   4.535  16.927  0.00  0.00    +0.000 A 
ATOM     21  C   UNL     1       5.790   4.413  17.528  0.00  0.00    +0.000 A 
ENDBRANCH  14  16
ENDBRANCH  11  14
ENDBRANCH   5   8
BRANCH   1  22
ATOM     22  C   UNL     1      -0.065  11.734  18.707  0.00  0.00    +0.000 C 
BRANCH  22  23
ATOM     23  N   UNL     1      -1.090  11.215  17.780  0.00  0.00    +0.000 NA
ATOM     24  H   UNL     1      -1.549  12.013  17.337  0.00  0.00    +0.000 HD
ATOM     25  H   UNL     1      -1.819  10.763  18.331  0.00  0.00    +0.000 HD
ENDBRANCH  22  23
BRANCH  22  26
ATOM     26  C   UNL     1      -0.346  13.212  19.098  0.00  0.00    +0.000 C 
BRANCH  26  27
ATOM     27  C   UNL     1       0.805  14.152  18.791  0.00  0.00    +0.000 A 
ATOM     28  C   UNL     1       0.628  15.540  18.881  0.00  0.00    +0.000 A 
ATOM     29  C   UNL     1       1.662  16.410  18.525  0.00  0.00    +0.000 A 
ATOM     30  C   UNL     1       2.882  15.902  18.085  0.00  0.00    +0.000 A 
ATOM     31  C   UNL     1       3.080  14.524  18.027  0.00  0.00    +0.000 A 
ATOM     32  C   UNL     1       2.052  13.653  18.388  0.00  0.00    +0.000 A 
ENDBRANCH  26  27
ENDBRANCH  22  26
ENDBRANCH   1  22
TORSDOF 7
ENDMDL
