MODEL 1
REMARK VINA RESULT:      -7.2      0.000      0.000
REMARK  Name = 
REMARK  5 active torsions:
REMARK  status: ('A' for Active; 'I' for Inactive)
REMARK    1  A    between atoms: C_2  and  O_3
REMARK    2  A    between atoms: C_2  and  C_4
REMARK    3  A    between atoms: C_4  and  N_5
REMARK    4  A    between atoms: C_9  and  C_10
REMARK    5  A    between atoms: C_14  and  N_15
REMARK                            x       y       z     vdW  Elec       q    Type
REMARK                         _______ _______ _______ _____ _____    ______ ____
ROOT
ATOM      1  N   UNL     1       0.732   8.865  20.331  0.00  0.00    +0.000 N 
ATOM      2  C   UNL     1       1.634   7.950  19.820  0.00  0.00    +0.000 C 
ATOM      3  O   UNL     1       1.935   6.894  20.358  0.00  0.00    +0.000 OA
ATOM      4  C   UNL     1       2.155   8.418  18.503  0.00  0.00    +0.000 C 
ATOM      5  C   UNL     1       2.998   7.774  17.682  0.00  0.00    +0.000 C 
ATOM      6  S   UNL     1       1.485   9.963  18.129  0.00  0.00    +0.000 S 
ATOM      7  C   UNL     1       0.540  10.023  19.611  0.00  0.00    +0.000 C 
ATOM      8  S   UNL     1      -0.446  11.314  19.990  0.00  0.00    +0.000 S 
ENDROOT
BRANCH   5   9
ATOM      9  C   UNL     1       3.585   6.465  17.968  0.00  0.00    +0.000 A 
ATOM     10  C   UNL     1       2.817   5.306  17.800  0.00  0.00    +0.000 A 
ATOM     11  C   UNL     1       3.382   4.046  18.006  0.00  0.00    +0.000 A 
ATOM     12  C   UNL     1       4.722   3.934  18.375  0.00  0.00    +0.000 A 
ATOM     13  C   UNL     1       5.489   5.093  18.549  0.00  0.00    +0.000 A 
ATOM     14  C   UNL     1       4.924   6.363  18.357  0.00  0.00    +0.000 A 
BRANCH  13  15
ATOM     15  N   UNL     1       6.905   4.980  18.918  0.00  0.00    +0.000 N 
ATOM     16  O   UNL     1       7.667   4.421  18.117  0.00  0.00    +0.000 OA
ATOM     17  O   UNL     1       7.255   5.449  20.011  0.00  0.00    +0.000 OA
ENDBRANCH  13  15
ENDBRANCH   5   9
BRANCH   1  18
ATOM     18  C   UNL     1       0.102   8.574  21.617  0.00  0.00    +0.000 C 
BRANCH  18  20
ATOM     19  O   UNL     1       0.238   9.954  23.623  0.00  0.00    +0.000 OA
ATOM     20  C   UNL     1       0.804   9.323  22.742  0.00  0.00    +0.000 C 
BRANCH  20  21
ATOM     21  O   UNL     1       2.154   9.211  22.691  0.00  0.00    +0.000 OA
ATOM     22  H   UNL     1       2.593   9.748  22.004  0.00  0.00    +0.000 HD
ENDBRANCH  20  21
ENDBRANCH  18  20
ENDBRANCH   1  18
TORSDOF 5
ENDMDL
MODEL 2
REMARK VINA RESULT:      -7.0      1.995      2.417
REMARK  Name = 
REMARK  5 active torsions:
REMARK  status: ('A' for Active; 'I' for Inactive)
REMARK    1  A    between atoms: C_2  and  O_3
REMARK    2  A    between atoms: C_2  and  C_4
REMARK    3  A    between atoms: C_4  and  N_5
REMARK    4  A    between atoms: C_9  and  C_10
REMARK    5  A    between atoms: C_14  and  N_15
REMARK                            x       y       z     vdW  Elec       q    Type
REMARK                         _______ _______ _______ _____ _____    ______ ____
ROOT
ATOM      1  N   UNL     1       0.849   8.755  20.236  0.00  0.00    +0.000 N 
ATOM      2  C   UNL     1       1.746   7.795  19.806  0.00  0.00    +0.000 C 
ATOM      3  O   UNL     1       2.004   6.763  20.410  0.00  0.00    +0.000 OA
ATOM      4  C   UNL     1       2.325   8.182  18.487  0.00  0.00    +0.000 C 
ATOM      5  C   UNL     1       3.182   7.477  17.732  0.00  0.00    +0.000 C 
ATOM      6  S   UNL     1       1.705   9.718  18.009  0.00  0.00    +0.000 S 
ATOM      7  C   UNL     1       0.709   9.877  19.450  0.00  0.00    +0.000 C 
ATOM      8  S   UNL     1      -0.259  11.207  19.724  0.00  0.00    +0.000 S 
ENDROOT
BRANCH   5   9
ATOM      9  C   UNL     1       3.728   6.174  18.108  0.00  0.00    +0.000 A 
ATOM     10  C   UNL     1       4.963   6.098  18.764  0.00  0.00    +0.000 A 
ATOM     11  C   UNL     1       5.466   4.867  19.187  0.00  0.00    +0.000 A 
ATOM     12  C   UNL     1       4.736   3.700  18.964  0.00  0.00    +0.000 A 
ATOM     13  C   UNL     1       3.504   3.774  18.303  0.00  0.00    +0.000 A 
ATOM     14  C   UNL     1       2.998   5.006  17.863  0.00  0.00    +0.000 A 
BRANCH  13  15
ATOM     15  N   UNL     1       2.722   2.551  18.084  0.00  0.00    +0.000 N 
ATOM     16  O   UNL     1       3.307   1.465  18.191  0.00  0.00    +0.000 OA
ATOM     17  O   UNL     1       1.521   2.678  17.803  0.00  0.00    +0.000 OA
ENDBRANCH  13  15
ENDBRANCH   5   9
BRANCH   1  18
ATOM     18  C   UNL     1       0.167   8.545  21.511  0.00  0.00    +0.000 C 
BRANCH  18  20
ATOM     19  O   UNL     1       0.254  10.072  23.411  0.00  0.00    +0.000 OA
ATOM     20  C   UNL     1       0.837   9.347  22.618  0.00  0.00    +0.000 C 
BRANCH  20  21
ATOM     21  O   UNL     1       2.181   9.168  22.662  0.00  0.00    +0.000 OA
ATOM     22  H   UNL     1       2.645   9.268  21.809  0.00  0.00    +0.000 HD
ENDBRANCH  20  21
ENDBRANCH  18  20
ENDBRANCH   1  18
TORSDOF 5
ENDMDL
MODEL 3
REMARK VINA RESULT:      -6.7      0.892      1.322
REMARK  Name = 
REMARK  5 active torsions:
REMARK  status: ('A' for Active; 'I' for Inactive)
REMARK    1  A    between atoms: C_2  and  O_3
REMARK    2  A    between atoms: C_2  and  C_4
REMARK    3  A    between atoms: C_4  and  N_5
REMARK    4  A    between atoms: C_9  and  C_10
REMARK    5  A    between atoms: C_14  and  N_15
REMARK                            x       y       z     vdW  Elec       q    Type
REMARK                         _______ _______ _______ _____ _____    ______ ____
ROOT
ATOM      1  N   UNL     1       1.218   9.377  20.543  0.00  0.00    +0.000 N 
ATOM      2  C   UNL     1       1.865   8.292  19.982  0.00  0.00    +0.000 C 
ATOM      3  O   UNL     1       2.282   7.329  20.610  0.00  0.00    +0.000 OA
ATOM      4  C   UNL     1       1.946   8.448  18.500  0.00  0.00    +0.000 C 
ATOM      5  C   UNL     1       2.448   7.575  17.614  0.00  0.00    +0.000 C 
ATOM      6  S   UNL     1       1.254   9.957  18.036  0.00  0.00    +0.000 S 
ATOM      7  C   UNL     1       0.847  10.394  19.691  0.00  0.00    +0.000 C 
ATOM      8  S   UNL     1       0.092  11.830  20.076  0.00  0.00    +0.000 S 
ENDROOT
BRANCH   5   9
ATOM      9  C   UNL     1       3.043   6.288  17.973  0.00  0.00    +0.000 A 
ATOM     10  C   UNL     1       2.254   5.131  17.972  0.00  0.00    +0.000 A 
ATOM     11  C   UNL     1       2.822   3.886  18.249  0.00  0.00    +0.000 A 
ATOM     12  C   UNL     1       4.185   3.786  18.522  0.00  0.00    +0.000 A 
ATOM     13  C   UNL     1       4.974   4.943  18.530  0.00  0.00    +0.000 A 
ATOM     14  C   UNL     1       4.408   6.200  18.267  0.00  0.00    +0.000 A 
BRANCH  13  15
ATOM     15  N   UNL     1       6.413   4.841  18.799  0.00  0.00    +0.000 N 
ATOM     16  O   UNL     1       6.833   5.286  19.876  0.00  0.00    +0.000 OA
ATOM     17  O   UNL     1       7.126   4.316  17.929  0.00  0.00    +0.000 OA
ENDBRANCH  13  15
ENDBRANCH   5   9
BRANCH   1  18
ATOM     18  C   UNL     1       1.031   9.400  21.992  0.00  0.00    +0.000 C 
BRANCH  18  20
ATOM     19  O   UNL     1      -0.969   8.016  21.809  0.00  0.00    +0.000 OA
ATOM     20  C   UNL     1      -0.368   8.925  22.362  0.00  0.00    +0.000 C 
BRANCH  20  21
ATOM     21  O   UNL     1      -0.900   9.609  23.405  0.00  0.00    +0.000 OA
ATOM     22  H   UNL     1      -1.437  10.388  23.166  0.00  0.00    +0.000 HD
ENDBRANCH  20  21
ENDBRANCH  18  20
ENDBRANCH   1  18
TORSDOF 5
ENDMDL
MODEL 4
REMARK VINA RESULT:      -6.5      2.492      2.982
REMARK  Name = 
REMARK  5 active torsions:
REMARK  status: ('A' for Active; 'I' for Inactive)
REMARK    1  A    between atoms: C_2  and  O_3
REMARK    2  A    between atoms: C_2  and  C_4
REMARK    3  A    between atoms: C_4  and  N_5
REMARK    4  A    between atoms: C_9  and  C_10
REMARK    5  A    between atoms: C_14  and  N_15
REMARK                            x       y       z     vdW  Elec       q    Type
REMARK                         _______ _______ _______ _____ _____    ______ ____
ROOT
ATOM      1  N   UNL     1       1.262   9.331  20.542  0.00  0.00    +0.000 N 
ATOM      2  C   UNL     1       1.844   8.154  20.110  0.00  0.00    +0.000 C 
ATOM      3  O   UNL     1       2.158   7.224  20.839  0.00  0.00    +0.000 OA
ATOM      4  C   UNL     1       1.999   8.168  18.626  0.00  0.00    +0.000 C 
ATOM      5  C   UNL     1       2.468   7.183  17.844  0.00  0.00    +0.000 C 
ATOM      6  S   UNL     1       1.448   9.677  17.999  0.00  0.00    +0.000 S 
ATOM      7  C   UNL     1       1.009  10.291  19.588  0.00  0.00    +0.000 C 
ATOM      8  S   UNL     1       0.354  11.809  19.809  0.00  0.00    +0.000 S 
ENDROOT
BRANCH   5   9
ATOM      9  C   UNL     1       2.944   5.894  18.343  0.00  0.00    +0.000 A 
ATOM     10  C   UNL     1       4.312   5.697  18.569  0.00  0.00    +0.000 A 
ATOM     11  C   UNL     1       4.775   4.494  19.106  0.00  0.00    +0.000 A 
ATOM     12  C   UNL     1       3.873   3.481  19.429  0.00  0.00    +0.000 A 
ATOM     13  C   UNL     1       2.506   3.675  19.197  0.00  0.00    +0.000 A 
ATOM     14  C   UNL     1       2.034   4.875  18.645  0.00  0.00    +0.000 A 
BRANCH  13  15
ATOM     15  N   UNL     1       1.551   2.619  19.554  0.00  0.00    +0.000 N 
ATOM     16  O   UNL     1       0.824   2.171  18.657  0.00  0.00    +0.000 OA
ATOM     17  O   UNL     1       1.526   2.238  20.734  0.00  0.00    +0.000 OA
ENDBRANCH  13  15
ENDBRANCH   5   9
BRANCH   1  18
ATOM     18  C   UNL     1       1.017   9.499  21.973  0.00  0.00    +0.000 C 
BRANCH  18  20
ATOM     19  O   UNL     1      -0.969   8.097  21.779  0.00  0.00    +0.000 OA
ATOM     20  C   UNL     1      -0.374   9.003  22.343  0.00  0.00    +0.000 C 
BRANCH  20  21
ATOM     21  O   UNL     1      -0.907   9.665  23.400  0.00  0.00    +0.000 OA
ATOM     22  H   UNL     1      -0.332  10.341  23.805  0.00  0.00    +0.000 HD
ENDBRANCH  20  21
ENDBRANCH  18  20
ENDBRANCH   1  18
TORSDOF 5
ENDMDL
MODEL 5
REMARK VINA RESULT:      -6.5      1.513      1.782
REMARK  Name = 
REMARK  5 active torsions:
REMARK  status: ('A' for Active; 'I' for Inactive)
REMARK    1  A    between atoms: C_2  and  O_3
REMARK    2  A    between atoms: C_2  and  C_4
REMARK    3  A    between atoms: C_4  and  N_5
REMARK    4  A    between atoms: C_9  and  C_10
REMARK    5  A    between atoms: C_14  and  N_15
REMARK                            x       y       z     vdW  Elec       q    Type
REMARK                         _______ _______ _______ _____ _____    ______ ____
ROOT
ATOM      1  N   UNL     1       1.428   9.096  20.662  0.00  0.00    +0.000 N 
ATOM      2  C   UNL     1       1.770   7.883  20.095  0.00  0.00    +0.000 C 
ATOM      3  O   UNL     1       1.920   6.841  20.717  0.00  0.00    +0.000 OA
ATOM      4  C   UNL     1       1.893   8.021  18.614  0.00  0.00    +0.000 C 
ATOM      5  C   UNL     1       2.151   7.052  17.722  0.00  0.00    +0.000 C 
ATOM      6  S   UNL     1       1.620   9.662  18.159  0.00  0.00    +0.000 S 
ATOM      7  C   UNL     1       1.338  10.179  19.816  0.00  0.00    +0.000 C 
ATOM      8  S   UNL     1       0.985  11.761  20.210  0.00  0.00    +0.000 S 
ENDROOT
BRANCH   5   9
ATOM      9  C   UNL     1       2.388   5.653  18.073  0.00  0.00    +0.000 A 
ATOM     10  C   UNL     1       1.404   4.691  17.807  0.00  0.00    +0.000 A 
ATOM     11  C   UNL     1       1.642   3.342  18.076  0.00  0.00    +0.000 A 
ATOM     12  C   UNL     1       2.867   2.941  18.608  0.00  0.00    +0.000 A 
ATOM     13  C   UNL     1       3.848   3.903  18.880  0.00  0.00    +0.000 A 
ATOM     14  C   UNL     1       3.612   5.262  18.625  0.00  0.00    +0.000 A 
BRANCH  13  15
ATOM     15  N   UNL     1       5.146   3.483  19.421  0.00  0.00    +0.000 N 
ATOM     16  O   UNL     1       6.127   4.206  19.196  0.00  0.00    +0.000 OA
ATOM     17  O   UNL     1       5.186   2.427  20.070  0.00  0.00    +0.000 OA
ENDBRANCH  13  15
ENDBRANCH   5   9
BRANCH   1  18
ATOM     18  C   UNL     1       1.251   9.158  22.111  0.00  0.00    +0.000 C 
BRANCH  18  20
ATOM     19  O   UNL     1      -1.016   8.281  21.910  0.00  0.00    +0.000 OA
ATOM     20  C   UNL     1      -0.219   9.011  22.481  0.00  0.00    +0.000 C 
BRANCH  20  21
ATOM     21  O   UNL     1      -0.576   9.773  23.544  0.00  0.00    +0.000 OA
ATOM     22  H   UNL     1      -1.447   9.569  23.933  0.00  0.00    +0.000 HD
ENDBRANCH  20  21
ENDBRANCH  18  20
ENDBRANCH   1  18
TORSDOF 5
ENDMDL
MODEL 6
REMARK VINA RESULT:      -6.4      2.507      3.039
REMARK  Name = 
REMARK  5 active torsions:
REMARK  status: ('A' for Active; 'I' for Inactive)
REMARK    1  A    between atoms: C_2  and  O_3
REMARK    2  A    between atoms: C_2  and  C_4
REMARK    3  A    between atoms: C_4  and  N_5
REMARK    4  A    between atoms: C_9  and  C_10
REMARK    5  A    between atoms: C_14  and  N_15
REMARK                            x       y       z     vdW  Elec       q    Type
REMARK                         _______ _______ _______ _____ _____    ______ ____
ROOT
ATOM      1  N   UNL     1       1.208   9.296  19.145  0.00  0.00    +0.000 N 
ATOM      2  C   UNL     1       1.977   8.230  18.716  0.00  0.00    +0.000 C 
ATOM      3  O   UNL     1       2.429   8.108  17.586  0.00  0.00    +0.000 OA
ATOM      4  C   UNL     1       2.206   7.273  19.837  0.00  0.00    +0.000 C 
ATOM      5  C   UNL     1       2.950   6.157  19.819  0.00  0.00    +0.000 C 
ATOM      6  S   UNL     1       1.374   7.819  21.245  0.00  0.00    +0.000 S 
ATOM      7  C   UNL     1       0.749   9.254  20.442  0.00  0.00    +0.000 C 
ATOM      8  S   UNL     1      -0.220  10.364  21.224  0.00  0.00    +0.000 S 
ENDROOT
BRANCH   5   9
ATOM      9  C   UNL     1       3.665   5.665  18.643  0.00  0.00    +0.000 A 
ATOM     10  C   UNL     1       3.101   4.652  17.857  0.00  0.00    +0.000 A 
ATOM     11  C   UNL     1       3.741   4.217  16.695  0.00  0.00    +0.000 A 
ATOM     12  C   UNL     1       4.948   4.796  16.305  0.00  0.00    +0.000 A 
ATOM     13  C   UNL     1       5.516   5.804  17.093  0.00  0.00    +0.000 A 
ATOM     14  C   UNL     1       4.886   6.237  18.270  0.00  0.00    +0.000 A 
BRANCH  13  15
ATOM     15  N   UNL     1       6.776   6.430  16.676  0.00  0.00    +0.000 N 
ATOM     16  O   UNL     1       7.055   7.540  17.151  0.00  0.00    +0.000 OA
ATOM     17  O   UNL     1       7.487   5.813  15.869  0.00  0.00    +0.000 OA
ENDBRANCH  13  15
ENDBRANCH   5   9
BRANCH   1  18
ATOM     18  C   UNL     1       0.886  10.350  18.185  0.00  0.00    +0.000 C 
BRANCH  18  20
ATOM     19  O   UNL     1       2.001  12.311  19.112  0.00  0.00    +0.000 OA
ATOM     20  C   UNL     1       1.925  11.461  18.236  0.00  0.00    +0.000 C 
BRANCH  20  21
ATOM     21  O   UNL     1       2.800  11.416  17.200  0.00  0.00    +0.000 OA
ATOM     22  H   UNL     1       2.608  10.745  16.519  0.00  0.00    +0.000 HD
ENDBRANCH  20  21
ENDBRANCH  18  20
ENDBRANCH   1  18
TORSDOF 5
ENDMDL
MODEL 7
REMARK VINA RESULT:      -6.3      3.378      6.358
REMARK  Name = 
REMARK  5 active torsions:
REMARK  status: ('A' for Active; 'I' for Inactive)
REMARK    1  A    between atoms: C_2  and  O_3
REMARK    2  A    between atoms: C_2  and  C_4
REMARK    3  A    between atoms: C_4  and  N_5
REMARK    4  A    between atoms: C_9  and  C_10
REMARK    5  A    between atoms: C_14  and  N_15
REMARK                            x       y       z     vdW  Elec       q    Type
REMARK                         _______ _______ _______ _____ _____    ______ ____
ROOT
ATOM      1  N   UNL     1       2.232   3.533  19.344  0.00  0.00    +0.000 N 
ATOM      2  C   UNL     1       1.995   4.893  19.266  0.00  0.00    +0.000 C 
ATOM      3  O   UNL     1       1.070   5.471  19.819  0.00  0.00    +0.000 OA
ATOM      4  C   UNL     1       3.049   5.555  18.444  0.00  0.00    +0.000 C 
ATOM      5  C   UNL     1       3.186   6.866  18.194  0.00  0.00    +0.000 C 
ATOM      6  S   UNL     1       4.146   4.369  17.840  0.00  0.00    +0.000 S 
ATOM      7  C   UNL     1       3.300   3.042  18.626  0.00  0.00    +0.000 C 
ATOM      8  S   UNL     1       3.806   1.458  18.496  0.00  0.00    +0.000 S 
ENDROOT
BRANCH   5   9
ATOM      9  C   UNL     1       2.275   7.897  18.688  0.00  0.00    +0.000 A 
ATOM     10  C   UNL     1       1.598   8.722  17.780  0.00  0.00    +0.000 A 
ATOM     11  C   UNL     1       0.675   9.666  18.233  0.00  0.00    +0.000 A 
ATOM     12  C   UNL     1       0.415   9.790  19.597  0.00  0.00    +0.000 A 
ATOM     13  C   UNL     1       1.096   8.971  20.506  0.00  0.00    +0.000 A 
ATOM     14  C   UNL     1       2.035   8.028  20.060  0.00  0.00    +0.000 A 
BRANCH  13  15
ATOM     15  N   UNL     1       0.812   9.084  21.942  0.00  0.00    +0.000 N 
ATOM     16  O   UNL     1       1.748   9.386  22.694  0.00  0.00    +0.000 OA
ATOM     17  O   UNL     1      -0.350   8.868  22.318  0.00  0.00    +0.000 OA
ENDBRANCH  13  15
ENDBRANCH   5   9
BRANCH   1  18
ATOM     18  C   UNL     1       1.308   2.711  20.122  0.00  0.00    +0.000 C 
BRANCH  18  20
ATOM     19  O   UNL     1       2.976   2.545  21.893  0.00  0.00    +0.000 OA
ATOM     20  C   UNL     1       1.802   2.552  21.553  0.00  0.00    +0.000 C 
BRANCH  20  21
ATOM     21  O   UNL     1       0.792   2.431  22.451  0.00  0.00    +0.000 OA
ATOM     22  H   UNL     1       0.106   3.123  22.405  0.00  0.00    +0.000 HD
ENDBRANCH  20  21
ENDBRANCH  18  20
ENDBRANCH   1  18
TORSDOF 5
ENDMDL
MODEL 8
REMARK VINA RESULT:      -6.3      4.441      5.946
REMARK  Name = 
REMARK  5 active torsions:
REMARK  status: ('A' for Active; 'I' for Inactive)
REMARK    1  A    between atoms: C_2  and  O_3
REMARK    2  A    between atoms: C_2  and  C_4
REMARK    3  A    between atoms: C_4  and  N_5
REMARK    4  A    between atoms: C_9  and  C_10
REMARK    5  A    between atoms: C_14  and  N_15
REMARK                            x       y       z     vdW  Elec       q    Type
REMARK                         _______ _______ _______ _____ _____    ______ ____
ROOT
ATOM      1  N   UNL     1       2.987   3.718  18.878  0.00  0.00    +0.000 N 
ATOM      2  C   UNL     1       3.895   4.070  17.896  0.00  0.00    +0.000 C 
ATOM      3  O   UNL     1       4.665   3.293  17.350  0.00  0.00    +0.000 OA
ATOM      4  C   UNL     1       3.771   5.522  17.574  0.00  0.00    +0.000 C 
ATOM      5  C   UNL     1       4.440   6.210  16.636  0.00  0.00    +0.000 C 
ATOM      6  S   UNL     1       2.580   6.243  18.591  0.00  0.00    +0.000 S 
ATOM      7  C   UNL     1       2.221   4.730  19.413  0.00  0.00    +0.000 C 
ATOM      8  S   UNL     1       1.080   4.621  20.624  0.00  0.00    +0.000 S 
ENDROOT
BRANCH   5   9
ATOM      9  C   UNL     1       5.456   5.630  15.759  0.00  0.00    +0.000 A 
ATOM     10  C   UNL     1       6.810   5.710  16.113  0.00  0.00    +0.000 A 
ATOM     11  C   UNL     1       7.786   5.105  15.320  0.00  0.00    +0.000 A 
ATOM     12  C   UNL     1       7.418   4.408  14.169  0.00  0.00    +0.000 A 
ATOM     13  C   UNL     1       6.066   4.333  13.811  0.00  0.00    +0.000 A 
ATOM     14  C   UNL     1       5.080   4.951  14.596  0.00  0.00    +0.000 A 
BRANCH  13  15
ATOM     15  N   UNL     1       5.671   3.584  12.612  0.00  0.00    +0.000 N 
ATOM     16  O   UNL     1       4.469   3.564  12.314  0.00  0.00    +0.000 OA
ATOM     17  O   UNL     1       6.565   3.014  11.969  0.00  0.00    +0.000 OA
ENDBRANCH  13  15
ENDBRANCH   5   9
BRANCH   1  18
ATOM     18  C   UNL     1       2.949   2.327  19.321  0.00  0.00    +0.000 C 
BRANCH  18  20
ATOM     19  O   UNL     1       3.567   2.146  21.673  0.00  0.00    +0.000 OA
ATOM     20  C   UNL     1       3.893   2.110  20.496  0.00  0.00    +0.000 C 
BRANCH  20  21
ATOM     21  O   UNL     1       5.167   1.847  20.110  0.00  0.00    +0.000 OA
ATOM     22  H   UNL     1       5.479   2.344  19.331  0.00  0.00    +0.000 HD
ENDBRANCH  20  21
ENDBRANCH  18  20
ENDBRANCH   1  18
TORSDOF 5
ENDMDL
MODEL 9
REMARK VINA RESULT:      -6.1      2.313      2.927
REMARK  Name = 
REMARK  5 active torsions:
REMARK  status: ('A' for Active; 'I' for Inactive)
REMARK    1  A    between atoms: C_2  and  O_3
REMARK    2  A    between atoms: C_2  and  C_4
REMARK    3  A    between atoms: C_4  and  N_5
REMARK    4  A    between atoms: C_9  and  C_10
REMARK    5  A    between atoms: C_14  and  N_15
REMARK                            x       y       z     vdW  Elec       q    Type
REMARK                         _______ _______ _______ _____ _____    ______ ____
ROOT
ATOM      1  N   UNL     1       0.938   9.920  19.567  0.00  0.00    +0.000 N 
ATOM      2  C   UNL     1       1.473   8.676  19.286  0.00  0.00    +0.000 C 
ATOM      3  O   UNL     1       1.849   8.314  18.180  0.00  0.00    +0.000 OA
ATOM      4  C   UNL     1       1.560   7.857  20.530  0.00  0.00    +0.000 C 
ATOM      5  C   UNL     1       2.077   6.626  20.663  0.00  0.00    +0.000 C 
ATOM      6  S   UNL     1       0.904   8.743  21.856  0.00  0.00    +0.000 S 
ATOM      7  C   UNL     1       0.531  10.147  20.863  0.00  0.00    +0.000 C 
ATOM      8  S   UNL     1      -0.178  11.520  21.489  0.00  0.00    +0.000 S 
ENDROOT
BRANCH   5   9
ATOM      9  C   UNL     1       2.640   5.847  19.561  0.00  0.00    +0.000 A 
ATOM     10  C   UNL     1       1.793   5.101  18.732  0.00  0.00    +0.000 A 
ATOM     11  C   UNL     1       2.307   4.405  17.637  0.00  0.00    +0.000 A 
ATOM     12  C   UNL     1       3.672   4.455  17.356  0.00  0.00    +0.000 A 
ATOM     13  C   UNL     1       4.521   5.196  18.187  0.00  0.00    +0.000 A 
ATOM     14  C   UNL     1       4.013   5.887  19.298  0.00  0.00    +0.000 A 
BRANCH  13  15
ATOM     15  N   UNL     1       5.955   5.268  17.884  0.00  0.00    +0.000 N 
ATOM     16  O   UNL     1       6.725   4.583  18.571  0.00  0.00    +0.000 OA
ATOM     17  O   UNL     1       6.312   6.013  16.960  0.00  0.00    +0.000 OA
ENDBRANCH  13  15
ENDBRANCH   5   9
BRANCH   1  18
ATOM     18  C   UNL     1       0.784  10.873  18.471  0.00  0.00    +0.000 C 
BRANCH  18  20
ATOM     19  O   UNL     1       2.344  12.584  19.235  0.00  0.00    +0.000 OA
ATOM     20  C   UNL     1       1.999  11.786  18.376  0.00  0.00    +0.000 C 
BRANCH  20  21
ATOM     21  O   UNL     1       2.697  11.621  17.226  0.00  0.00    +0.000 OA
ATOM     22  H   UNL     1       2.189  11.756  16.404  0.00  0.00    +0.000 HD
ENDBRANCH  20  21
ENDBRANCH  18  20
ENDBRANCH   1  18
TORSDOF 5
ENDMDL
