MODEL 1
REMARK VINA RESULT:      -6.9      0.000      0.000
REMARK  Name = 
REMARK  13 active torsions:
REMARK  status: ('A' for Active; 'I' for Inactive)
REMARK    1  A    between atoms: C_1  and  C_2
REMARK    2  A    between atoms: C_2  and  O_3
REMARK    3  A    between atoms: O_3  and  C_4
REMARK    4  A    between atoms: C_4  and  C_6
REMARK    5  A    between atoms: C_6  and  N_18
REMARK    6  A    between atoms: C_7  and  C_8
REMARK    7  A    between atoms: C_11  and  C_12
REMARK    8  A    between atoms: C_12  and  O_14
REMARK    9  A    between atoms: O_14  and  C_15
REMARK   10  A    between atoms: N_18  and  C_19
REMARK   11  A    between atoms: N_18  and  C_21
REMARK   12  A    between atoms: C_19  and  C_20
REMARK   13  A    between atoms: C_21  and  C_22
REMARK                            x       y       z     vdW  Elec       q    Type
REMARK                         _______ _______ _______ _____ _____    ______ ____
ROOT
ATOM      1  C   UNL     1       5.952   4.656  16.072  0.00  0.00    +0.000 C 
ATOM      2  C   UNL     1       5.201   3.566  16.329  0.00  0.00    +0.000 C 
ENDROOT
BRANCH   2   3
ATOM      3  C   UNL     1       4.238   3.356  17.414  0.00  0.00    +0.000 A 
ATOM      4  C   UNL     1       4.662   3.274  18.745  0.00  0.00    +0.000 A 
ATOM      5  C   UNL     1       3.732   3.313  19.784  0.00  0.00    +0.000 A 
ATOM      6  C   UNL     1       2.361   3.426  19.505  0.00  0.00    +0.000 A 
ATOM      7  C   UNL     1       1.934   3.451  18.172  0.00  0.00    +0.000 A 
ATOM      8  C   UNL     1       2.869   3.420  17.133  0.00  0.00    +0.000 A 
BRANCH   6   9
ATOM      9  C   UNL     1       1.411   3.576  20.644  0.00  0.00    +0.000 C 
ATOM     10  O   UNL     1       1.276   2.744  21.527  0.00  0.00    +0.000 OA
BRANCH   9  11
ATOM     11  O   UNL     1       0.767   4.769  20.575  0.00  0.00    +0.000 OA
ATOM     12  C   UNL     1       1.617   5.905  20.739  0.00  0.00    +0.000 C 
ENDBRANCH   9  11
ENDBRANCH   6   9
ENDBRANCH   2   3
BRANCH   1  13
ATOM     13  C   UNL     1       6.798   4.603  14.808  0.00  0.00    +0.000 C 
ATOM     14  O   UNL     1       7.680   5.408  14.539  0.00  0.00    +0.000 OA
BRANCH  13  15
ATOM     15  O   UNL     1       6.360   3.613  13.976  0.00  0.00    +0.000 OA
BRANCH  15  17
ATOM     16  C   UNL     1       5.884   2.646  11.837  0.00  0.00    +0.000 C 
ATOM     17  C   UNL     1       6.522   3.815  12.565  0.00  0.00    +0.000 C 
ENDBRANCH  15  17
ENDBRANCH  13  15
ENDBRANCH   1  13
BRANCH   1  18
ATOM     18  N   UNL     1       5.928   5.840  16.837  0.00  0.00    +0.000 N 
BRANCH  18  19
ATOM     19  C   UNL     1       7.142   6.396  17.473  0.00  0.00    +0.000 C 
ATOM     20  C   UNL     1       7.711   5.534  18.587  0.00  0.00    +0.000 C 
ENDBRANCH  18  19
BRANCH  18  21
ATOM     21  C   UNL     1       4.926   6.874  16.490  0.00  0.00    +0.000 C 
ATOM     22  C   UNL     1       3.841   7.078  17.541  0.00  0.00    +0.000 C 
ENDBRANCH  18  21
ENDBRANCH   1  18
TORSDOF 9
ENDMDL
MODEL 2
REMARK VINA RESULT:      -6.8      0.727      1.821
REMARK  Name = 
REMARK  13 active torsions:
REMARK  status: ('A' for Active; 'I' for Inactive)
REMARK    1  A    between atoms: C_1  and  C_2
REMARK    2  A    between atoms: C_2  and  O_3
REMARK    3  A    between atoms: O_3  and  C_4
REMARK    4  A    between atoms: C_4  and  C_6
REMARK    5  A    between atoms: C_6  and  N_18
REMARK    6  A    between atoms: C_7  and  C_8
REMARK    7  A    between atoms: C_11  and  C_12
REMARK    8  A    between atoms: C_12  and  O_14
REMARK    9  A    between atoms: O_14  and  C_15
REMARK   10  A    between atoms: N_18  and  C_19
REMARK   11  A    between atoms: N_18  and  C_21
REMARK   12  A    between atoms: C_19  and  C_20
REMARK   13  A    between atoms: C_21  and  C_22
REMARK                            x       y       z     vdW  Elec       q    Type
REMARK                         _______ _______ _______ _____ _____    ______ ____
ROOT
ATOM      1  C   UNL     1       6.012   4.923  15.804  0.00  0.00    +0.000 C 
ATOM      2  C   UNL     1       5.320   3.848  16.230  0.00  0.00    +0.000 C 
ENDROOT
BRANCH   2   3
ATOM      3  C   UNL     1       4.340   3.766  17.317  0.00  0.00    +0.000 A 
ATOM      4  C   UNL     1       4.741   3.872  18.655  0.00  0.00    +0.000 A 
ATOM      5  C   UNL     1       3.790   4.030  19.664  0.00  0.00    +0.000 A 
ATOM      6  C   UNL     1       2.423   4.077  19.349  0.00  0.00    +0.000 A 
ATOM      7  C   UNL     1       2.022   3.914  18.017  0.00  0.00    +0.000 A 
ATOM      8  C   UNL     1       2.976   3.763  17.008  0.00  0.00    +0.000 A 
BRANCH   6   9
ATOM      9  C   UNL     1       1.449   4.358  20.442  0.00  0.00    +0.000 C 
ATOM     10  O   UNL     1       1.236   5.474  20.888  0.00  0.00    +0.000 OA
BRANCH   9  11
ATOM     11  O   UNL     1       0.818   3.218  20.823  0.00  0.00    +0.000 OA
ATOM     12  C   UNL     1       1.511   2.469  21.823  0.00  0.00    +0.000 C 
ENDBRANCH   9  11
ENDBRANCH   6   9
ENDBRANCH   2   3
BRANCH   1  13
ATOM     13  C   UNL     1       6.896   4.709  14.583  0.00  0.00    +0.000 C 
ATOM     14  O   UNL     1       7.806   5.460  14.255  0.00  0.00    +0.000 OA
BRANCH  13  15
ATOM     15  O   UNL     1       6.459   3.641  13.853  0.00  0.00    +0.000 OA
BRANCH  15  17
ATOM     16  C   UNL     1       5.375   2.937  11.837  0.00  0.00    +0.000 C 
ATOM     17  C   UNL     1       6.514   3.750  12.424  0.00  0.00    +0.000 C 
ENDBRANCH  15  17
ENDBRANCH  13  15
ENDBRANCH   1  13
BRANCH   1  18
ATOM     18  N   UNL     1       5.896   6.217  16.352  0.00  0.00    +0.000 N 
BRANCH  18  19
ATOM     19  C   UNL     1       4.675   7.036  16.198  0.00  0.00    +0.000 C 
ATOM     20  C   UNL     1       3.928   7.290  17.496  0.00  0.00    +0.000 C 
ENDBRANCH  18  19
BRANCH  18  21
ATOM     21  C   UNL     1       6.645   6.517  17.595  0.00  0.00    +0.000 C 
ATOM     22  C   UNL     1       7.645   7.661  17.467  0.00  0.00    +0.000 C 
ENDBRANCH  18  21
ENDBRANCH   1  18
TORSDOF 9
ENDMDL
MODEL 3
REMARK VINA RESULT:      -6.8      1.251      1.856
REMARK  Name = 
REMARK  13 active torsions:
REMARK  status: ('A' for Active; 'I' for Inactive)
REMARK    1  A    between atoms: C_1  and  C_2
REMARK    2  A    between atoms: C_2  and  O_3
REMARK    3  A    between atoms: O_3  and  C_4
REMARK    4  A    between atoms: C_4  and  C_6
REMARK    5  A    between atoms: C_6  and  N_18
REMARK    6  A    between atoms: C_7  and  C_8
REMARK    7  A    between atoms: C_11  and  C_12
REMARK    8  A    between atoms: C_12  and  O_14
REMARK    9  A    between atoms: O_14  and  C_15
REMARK   10  A    between atoms: N_18  and  C_19
REMARK   11  A    between atoms: N_18  and  C_21
REMARK   12  A    between atoms: C_19  and  C_20
REMARK   13  A    between atoms: C_21  and  C_22
REMARK                            x       y       z     vdW  Elec       q    Type
REMARK                         _______ _______ _______ _____ _____    ______ ____
ROOT
ATOM      1  C   UNL     1       6.349   4.942  15.779  0.00  0.00    +0.000 C 
ATOM      2  C   UNL     1       5.182   4.268  15.794  0.00  0.00    +0.000 C 
ENDROOT
BRANCH   2   3
ATOM      3  C   UNL     1       4.265   4.055  16.918  0.00  0.00    +0.000 A 
ATOM      4  C   UNL     1       3.427   5.084  17.365  0.00  0.00    +0.000 A 
ATOM      5  C   UNL     1       2.399   4.811  18.268  0.00  0.00    +0.000 A 
ATOM      6  C   UNL     1       2.200   3.505  18.743  0.00  0.00    +0.000 A 
ATOM      7  C   UNL     1       3.075   2.490  18.339  0.00  0.00    +0.000 A 
ATOM      8  C   UNL     1       4.100   2.764  17.429  0.00  0.00    +0.000 A 
BRANCH   6   9
ATOM      9  C   UNL     1       1.024   3.236  19.619  0.00  0.00    +0.000 C 
ATOM     10  O   UNL     1       0.112   2.483  19.316  0.00  0.00    +0.000 OA
BRANCH   9  11
ATOM     11  O   UNL     1       1.143   3.904  20.795  0.00  0.00    +0.000 OA
ATOM     12  C   UNL     1       2.027   3.289  21.734  0.00  0.00    +0.000 C 
ENDBRANCH   9  11
ENDBRANCH   6   9
ENDBRANCH   2   3
BRANCH   1  13
ATOM     13  C   UNL     1       7.034   5.066  14.425  0.00  0.00    +0.000 C 
ATOM     14  O   UNL     1       8.117   5.609  14.251  0.00  0.00    +0.000 OA
BRANCH  13  15
ATOM     15  O   UNL     1       6.224   4.595  13.431  0.00  0.00    +0.000 OA
BRANCH  15  17
ATOM     16  C   UNL     1       5.711   2.832  11.893  0.00  0.00    +0.000 C 
ATOM     17  C   UNL     1       6.809   3.709  12.466  0.00  0.00    +0.000 C 
ENDBRANCH  15  17
ENDBRANCH  13  15
ENDBRANCH   1  13
BRANCH   1  18
ATOM     18  N   UNL     1       6.907   5.598  16.896  0.00  0.00    +0.000 N 
BRANCH  18  19
ATOM     19  C   UNL     1       6.531   6.976  17.275  0.00  0.00    +0.000 C 
ATOM     20  C   UNL     1       7.702   7.942  17.349  0.00  0.00    +0.000 C 
ENDBRANCH  18  19
BRANCH  18  21
ATOM     21  C   UNL     1       7.329   4.771  18.050  0.00  0.00    +0.000 C 
ATOM     22  C   UNL     1       6.804   5.255  19.397  0.00  0.00    +0.000 C 
ENDBRANCH  18  21
ENDBRANCH   1  18
TORSDOF 9
ENDMDL
MODEL 4
REMARK VINA RESULT:      -6.5      0.593      1.118
REMARK  Name = 
REMARK  13 active torsions:
REMARK  status: ('A' for Active; 'I' for Inactive)
REMARK    1  A    between atoms: C_1  and  C_2
REMARK    2  A    between atoms: C_2  and  O_3
REMARK    3  A    between atoms: O_3  and  C_4
REMARK    4  A    between atoms: C_4  and  C_6
REMARK    5  A    between atoms: C_6  and  N_18
REMARK    6  A    between atoms: C_7  and  C_8
REMARK    7  A    between atoms: C_11  and  C_12
REMARK    8  A    between atoms: C_12  and  O_14
REMARK    9  A    between atoms: O_14  and  C_15
REMARK   10  A    between atoms: N_18  and  C_19
REMARK   11  A    between atoms: N_18  and  C_21
REMARK   12  A    between atoms: C_19  and  C_20
REMARK   13  A    between atoms: C_21  and  C_22
REMARK                            x       y       z     vdW  Elec       q    Type
REMARK                         _______ _______ _______ _____ _____    ______ ____
ROOT
ATOM      1  C   UNL     1       6.031   4.792  15.968  0.00  0.00    +0.000 C 
ATOM      2  C   UNL     1       5.232   3.755  16.287  0.00  0.00    +0.000 C 
ENDROOT
BRANCH   2   3
ATOM      3  C   UNL     1       4.247   3.660  17.369  0.00  0.00    +0.000 A 
ATOM      4  C   UNL     1       4.638   3.785  18.708  0.00  0.00    +0.000 A 
ATOM      5  C   UNL     1       3.678   3.930  19.710  0.00  0.00    +0.000 A 
ATOM      6  C   UNL     1       2.312   3.945  19.387  0.00  0.00    +0.000 A 
ATOM      7  C   UNL     1       1.922   3.764  18.055  0.00  0.00    +0.000 A 
ATOM      8  C   UNL     1       2.886   3.625  17.052  0.00  0.00    +0.000 A 
BRANCH   6   9
ATOM      9  C   UNL     1       1.326   4.213  20.472  0.00  0.00    +0.000 C 
ATOM     10  O   UNL     1       1.027   5.334  20.854  0.00  0.00    +0.000 OA
BRANCH   9  11
ATOM     11  O   UNL     1       0.791   3.052  20.928  0.00  0.00    +0.000 OA
ATOM     12  C   UNL     1       1.567   2.404  21.937  0.00  0.00    +0.000 C 
ENDBRANCH   9  11
ENDBRANCH   6   9
ENDBRANCH   2   3
BRANCH   1  13
ATOM     13  C   UNL     1       6.890   4.618  14.723  0.00  0.00    +0.000 C 
ATOM     14  O   UNL     1       7.732   5.426  14.352  0.00  0.00    +0.000 OA
BRANCH  13  15
ATOM     15  O   UNL     1       6.508   3.507  14.027  0.00  0.00    +0.000 OA
BRANCH  15  17
ATOM     16  C   UNL     1       6.588   2.811  11.737  0.00  0.00    +0.000 C 
ATOM     17  C   UNL     1       5.894   3.708  12.746  0.00  0.00    +0.000 C 
ENDBRANCH  15  17
ENDBRANCH  13  15
ENDBRANCH   1  13
BRANCH   1  18
ATOM     18  N   UNL     1       6.050   6.025  16.652  0.00  0.00    +0.000 N 
BRANCH  18  19
ATOM     19  C   UNL     1       7.293   6.609  17.198  0.00  0.00    +0.000 C 
ATOM     20  C   UNL     1       7.663   6.102  18.582  0.00  0.00    +0.000 C 
ENDBRANCH  18  19
BRANCH  18  21
ATOM     21  C   UNL     1       5.043   7.045  16.276  0.00  0.00    +0.000 C 
ATOM     22  C   UNL     1       3.951   7.266  17.318  0.00  0.00    +0.000 C 
ENDBRANCH  18  21
ENDBRANCH   1  18
TORSDOF 9
ENDMDL
MODEL 5
REMARK VINA RESULT:      -6.5      1.160      1.519
REMARK  Name = 
REMARK  13 active torsions:
REMARK  status: ('A' for Active; 'I' for Inactive)
REMARK    1  A    between atoms: C_1  and  C_2
REMARK    2  A    between atoms: C_2  and  O_3
REMARK    3  A    between atoms: O_3  and  C_4
REMARK    4  A    between atoms: C_4  and  C_6
REMARK    5  A    between atoms: C_6  and  N_18
REMARK    6  A    between atoms: C_7  and  C_8
REMARK    7  A    between atoms: C_11  and  C_12
REMARK    8  A    between atoms: C_12  and  O_14
REMARK    9  A    between atoms: O_14  and  C_15
REMARK   10  A    between atoms: N_18  and  C_19
REMARK   11  A    between atoms: N_18  and  C_21
REMARK   12  A    between atoms: C_19  and  C_20
REMARK   13  A    between atoms: C_21  and  C_22
REMARK                            x       y       z     vdW  Elec       q    Type
REMARK                         _______ _______ _______ _____ _____    ______ ____
ROOT
ATOM      1  C   UNL     1       6.256   4.572  15.950  0.00  0.00    +0.000 C 
ATOM      2  C   UNL     1       5.108   3.865  15.950  0.00  0.00    +0.000 C 
ENDROOT
BRANCH   2   3
ATOM      3  C   UNL     1       4.145   3.689  17.041  0.00  0.00    +0.000 A 
ATOM      4  C   UNL     1       3.273   4.724  17.403  0.00  0.00    +0.000 A 
ATOM      5  C   UNL     1       2.210   4.476  18.271  0.00  0.00    +0.000 A 
ATOM      6  C   UNL     1       2.008   3.190  18.797  0.00  0.00    +0.000 A 
ATOM      7  C   UNL     1       2.913   2.171  18.478  0.00  0.00    +0.000 A 
ATOM      8  C   UNL     1       3.974   2.420  17.603  0.00  0.00    +0.000 A 
BRANCH   6   9
ATOM      9  C   UNL     1       0.797   2.943  19.631  0.00  0.00    +0.000 C 
ATOM     10  O   UNL     1      -0.134   2.235  19.281  0.00  0.00    +0.000 OA
BRANCH   9  11
ATOM     11  O   UNL     1       0.906   3.573  20.829  0.00  0.00    +0.000 OA
ATOM     12  C   UNL     1       1.863   2.989  21.715  0.00  0.00    +0.000 C 
ENDBRANCH   9  11
ENDBRANCH   6   9
ENDBRANCH   2   3
BRANCH   1  13
ATOM     13  C   UNL     1       7.001   4.638  14.625  0.00  0.00    +0.000 C 
ATOM     14  O   UNL     1       7.729   5.565  14.293  0.00  0.00    +0.000 OA
BRANCH  13  15
ATOM     15  O   UNL     1       6.653   3.588  13.824  0.00  0.00    +0.000 OA
BRANCH  15  17
ATOM     16  C   UNL     1       5.140   3.327  11.986  0.00  0.00    +0.000 C 
ATOM     17  C   UNL     1       6.497   3.850  12.422  0.00  0.00    +0.000 C 
ENDBRANCH  15  17
ENDBRANCH  13  15
ENDBRANCH   1  13
BRANCH   1  18
ATOM     18  N   UNL     1       6.742   5.306  17.052  0.00  0.00    +0.000 N 
BRANCH  18  19
ATOM     19  C   UNL     1       7.779   4.773  17.962  0.00  0.00    +0.000 C 
ATOM     20  C   UNL     1       7.954   5.576  19.241  0.00  0.00    +0.000 C 
ENDBRANCH  18  19
BRANCH  18  21
ATOM     21  C   UNL     1       6.756   6.784  16.954  0.00  0.00    +0.000 C 
ATOM     22  C   UNL     1       5.379   7.434  17.040  0.00  0.00    +0.000 C 
ENDBRANCH  18  21
ENDBRANCH   1  18
TORSDOF 9
ENDMDL
MODEL 6
REMARK VINA RESULT:      -6.4      1.094      1.894
REMARK  Name = 
REMARK  13 active torsions:
REMARK  status: ('A' for Active; 'I' for Inactive)
REMARK    1  A    between atoms: C_1  and  C_2
REMARK    2  A    between atoms: C_2  and  O_3
REMARK    3  A    between atoms: O_3  and  C_4
REMARK    4  A    between atoms: C_4  and  C_6
REMARK    5  A    between atoms: C_6  and  N_18
REMARK    6  A    between atoms: C_7  and  C_8
REMARK    7  A    between atoms: C_11  and  C_12
REMARK    8  A    between atoms: C_12  and  O_14
REMARK    9  A    between atoms: O_14  and  C_15
REMARK   10  A    between atoms: N_18  and  C_19
REMARK   11  A    between atoms: N_18  and  C_21
REMARK   12  A    between atoms: C_19  and  C_20
REMARK   13  A    between atoms: C_21  and  C_22
REMARK                            x       y       z     vdW  Elec       q    Type
REMARK                         _______ _______ _______ _____ _____    ______ ____
ROOT
ATOM      1  C   UNL     1       6.238   4.887  15.826  0.00  0.00    +0.000 C 
ATOM      2  C   UNL     1       4.985   4.393  15.764  0.00  0.00    +0.000 C 
ENDROOT
BRANCH   2   3
ATOM      3  C   UNL     1       3.942   4.419  16.794  0.00  0.00    +0.000 A 
ATOM      4  C   UNL     1       3.530   3.241  17.429  0.00  0.00    +0.000 A 
ATOM      5  C   UNL     1       2.718   3.299  18.563  0.00  0.00    +0.000 A 
ATOM      6  C   UNL     1       2.300   4.539  19.072  0.00  0.00    +0.000 A 
ATOM      7  C   UNL     1       2.667   5.713  18.403  0.00  0.00    +0.000 A 
ATOM      8  C   UNL     1       3.486   5.652  17.272  0.00  0.00    +0.000 A 
BRANCH   6   9
ATOM      9  C   UNL     1       1.526   4.561  20.347  0.00  0.00    +0.000 C 
ATOM     10  O   UNL     1       1.329   5.573  21.001  0.00  0.00    +0.000 OA
BRANCH   9  11
ATOM     11  O   UNL     1       1.048   3.324  20.636  0.00  0.00    +0.000 OA
ATOM     12  C   UNL     1       1.622   2.731  21.802  0.00  0.00    +0.000 C 
ENDBRANCH   9  11
ENDBRANCH   6   9
ENDBRANCH   2   3
BRANCH   1  13
ATOM     13  C   UNL     1       7.061   4.785  14.549  0.00  0.00    +0.000 C 
ATOM     14  O   UNL     1       7.932   5.583  14.229  0.00  0.00    +0.000 OA
BRANCH  13  15
ATOM     15  O   UNL     1       6.613   3.757  13.769  0.00  0.00    +0.000 OA
BRANCH  15  17
ATOM     16  C   UNL     1       6.651   2.616  11.663  0.00  0.00    +0.000 C 
ATOM     17  C   UNL     1       6.584   3.968  12.350  0.00  0.00    +0.000 C 
ENDBRANCH  15  17
ENDBRANCH  13  15
ENDBRANCH   1  13
BRANCH   1  18
ATOM     18  N   UNL     1       6.780   5.553  16.944  0.00  0.00    +0.000 N 
BRANCH  18  19
ATOM     19  C   UNL     1       6.459   6.962  17.258  0.00  0.00    +0.000 C 
ATOM     20  C   UNL     1       7.675   7.867  17.366  0.00  0.00    +0.000 C 
ENDBRANCH  18  19
BRANCH  18  21
ATOM     21  C   UNL     1       7.107   4.748  18.144  0.00  0.00    +0.000 C 
ATOM     22  C   UNL     1       6.373   5.177  19.410  0.00  0.00    +0.000 C 
ENDBRANCH  18  21
ENDBRANCH   1  18
TORSDOF 9
ENDMDL
MODEL 7
REMARK VINA RESULT:      -6.3      0.566      1.547
REMARK  Name = 
REMARK  13 active torsions:
REMARK  status: ('A' for Active; 'I' for Inactive)
REMARK    1  A    between atoms: C_1  and  C_2
REMARK    2  A    between atoms: C_2  and  O_3
REMARK    3  A    between atoms: O_3  and  C_4
REMARK    4  A    between atoms: C_4  and  C_6
REMARK    5  A    between atoms: C_6  and  N_18
REMARK    6  A    between atoms: C_7  and  C_8
REMARK    7  A    between atoms: C_11  and  C_12
REMARK    8  A    between atoms: C_12  and  O_14
REMARK    9  A    between atoms: O_14  and  C_15
REMARK   10  A    between atoms: N_18  and  C_19
REMARK   11  A    between atoms: N_18  and  C_21
REMARK   12  A    between atoms: C_19  and  C_20
REMARK   13  A    between atoms: C_21  and  C_22
REMARK                            x       y       z     vdW  Elec       q    Type
REMARK                         _______ _______ _______ _____ _____    ______ ____
ROOT
ATOM      1  C   UNL     1       6.113   4.452  16.035  0.00  0.00    +0.000 C 
ATOM      2  C   UNL     1       5.093   3.584  16.184  0.00  0.00    +0.000 C 
ENDROOT
BRANCH   2   3
ATOM      3  C   UNL     1       4.210   3.404  17.341  0.00  0.00    +0.000 A 
ATOM      4  C   UNL     1       4.737   3.146  18.613  0.00  0.00    +0.000 A 
ATOM      5  C   UNL     1       3.917   3.211  19.740  0.00  0.00    +0.000 A 
ATOM      6  C   UNL     1       2.555   3.527  19.609  0.00  0.00    +0.000 A 
ATOM      7  C   UNL     1       2.019   3.729  18.332  0.00  0.00    +0.000 A 
ATOM      8  C   UNL     1       2.844   3.670  17.205  0.00  0.00    +0.000 A 
BRANCH   6   9
ATOM      9  C   UNL     1       1.740   3.694  20.847  0.00  0.00    +0.000 C 
ATOM     10  O   UNL     1       1.841   2.973  21.827  0.00  0.00    +0.000 OA
BRANCH   9  11
ATOM     11  O   UNL     1       0.922   4.772  20.737  0.00  0.00    +0.000 OA
ATOM     12  C   UNL     1       1.592   6.030  20.832  0.00  0.00    +0.000 C 
ENDBRANCH   9  11
ENDBRANCH   6   9
ENDBRANCH   2   3
BRANCH   1  13
ATOM     13  C   UNL     1       6.789   4.462  14.671  0.00  0.00    +0.000 C 
ATOM     14  O   UNL     1       7.560   5.335  14.294  0.00  0.00    +0.000 OA
BRANCH  13  15
ATOM     15  O   UNL     1       6.327   3.436  13.897  0.00  0.00    +0.000 OA
BRANCH  15  17
ATOM     16  C   UNL     1       5.847   2.494  11.749  0.00  0.00    +0.000 C 
ATOM     17  C   UNL     1       5.850   3.761  12.584  0.00  0.00    +0.000 C 
ENDBRANCH  15  17
ENDBRANCH  13  15
ENDBRANCH   1  13
BRANCH   1  18
ATOM     18  N   UNL     1       6.516   5.387  17.011  0.00  0.00    +0.000 N 
BRANCH  18  19
ATOM     19  C   UNL     1       5.603   6.420  17.544  0.00  0.00    +0.000 C 
ATOM     20  C   UNL     1       4.665   7.014  16.506  0.00  0.00    +0.000 C 
ENDBRANCH  18  19
BRANCH  18  21
ATOM     21  C   UNL     1       7.560   4.976  17.980  0.00  0.00    +0.000 C 
ATOM     22  C   UNL     1       7.796   5.971  19.110  0.00  0.00    +0.000 C 
ENDBRANCH  18  21
ENDBRANCH   1  18
TORSDOF 9
ENDMDL
MODEL 8
REMARK VINA RESULT:      -6.2      3.162      5.463
REMARK  Name = 
REMARK  13 active torsions:
REMARK  status: ('A' for Active; 'I' for Inactive)
REMARK    1  A    between atoms: C_1  and  C_2
REMARK    2  A    between atoms: C_2  and  O_3
REMARK    3  A    between atoms: O_3  and  C_4
REMARK    4  A    between atoms: C_4  and  C_6
REMARK    5  A    between atoms: C_6  and  N_18
REMARK    6  A    between atoms: C_7  and  C_8
REMARK    7  A    between atoms: C_11  and  C_12
REMARK    8  A    between atoms: C_12  and  O_14
REMARK    9  A    between atoms: O_14  and  C_15
REMARK   10  A    between atoms: N_18  and  C_19
REMARK   11  A    between atoms: N_18  and  C_21
REMARK   12  A    between atoms: C_19  and  C_20
REMARK   13  A    between atoms: C_21  and  C_22
REMARK                            x       y       z     vdW  Elec       q    Type
REMARK                         _______ _______ _______ _____ _____    ______ ____
ROOT
ATOM      1  C   UNL     1       3.789   5.056  18.221  0.00  0.00    +0.000 C 
ATOM      2  C   UNL     1       3.714   6.401  18.165  0.00  0.00    +0.000 C 
ENDROOT
BRANCH   2   3
ATOM      3  C   UNL     1       2.667   7.279  18.694  0.00  0.00    +0.000 A 
ATOM      4  C   UNL     1       2.252   7.179  20.028  0.00  0.00    +0.000 A 
ATOM      5  C   UNL     1       1.435   8.162  20.587  0.00  0.00    +0.000 A 
ATOM      6  C   UNL     1       1.014   9.257  19.816  0.00  0.00    +0.000 A 
ATOM      7  C   UNL     1       1.383   9.326  18.467  0.00  0.00    +0.000 A 
ATOM      8  C   UNL     1       2.208   8.343  17.911  0.00  0.00    +0.000 A 
BRANCH   6   9
ATOM      9  C   UNL     1       0.235  10.340  20.481  0.00  0.00    +0.000 C 
ATOM     10  O   UNL     1      -0.650  10.974  19.928  0.00  0.00    +0.000 OA
BRANCH   9  11
ATOM     11  O   UNL     1       0.620  10.479  21.775  0.00  0.00    +0.000 OA
ATOM     12  C   UNL     1      -0.457  10.450  22.714  0.00  0.00    +0.000 C 
ENDBRANCH   9  11
ENDBRANCH   6   9
ENDBRANCH   2   3
BRANCH   1  13
ATOM     13  C   UNL     1       5.056   4.432  17.655  0.00  0.00    +0.000 C 
ATOM     14  O   UNL     1       5.111   3.843  16.583  0.00  0.00    +0.000 OA
BRANCH  13  15
ATOM     15  O   UNL     1       6.080   4.519  18.555  0.00  0.00    +0.000 OA
BRANCH  15  17
ATOM     16  C   UNL     1       7.459   6.354  17.870  0.00  0.00    +0.000 C 
ATOM     17  C   UNL     1       7.381   4.848  18.047  0.00  0.00    +0.000 C 
ENDBRANCH  15  17
ENDBRANCH  13  15
ENDBRANCH   1  13
BRANCH   1  18
ATOM     18  N   UNL     1       2.829   4.228  18.839  0.00  0.00    +0.000 N 
BRANCH  18  19
ATOM     19  C   UNL     1       1.853   3.432  18.064  0.00  0.00    +0.000 C 
ATOM     20  C   UNL     1       2.312   2.017  17.754  0.00  0.00    +0.000 C 
ENDBRANCH  18  19
BRANCH  18  21
ATOM     21  C   UNL     1       3.172   3.618  20.145  0.00  0.00    +0.000 C 
ATOM     22  C   UNL     1       2.026   3.599  21.151  0.00  0.00    +0.000 C 
ENDBRANCH  18  21
ENDBRANCH   1  18
TORSDOF 9
ENDMDL
MODEL 9
REMARK VINA RESULT:      -6.2      3.298      5.278
REMARK  Name = 
REMARK  13 active torsions:
REMARK  status: ('A' for Active; 'I' for Inactive)
REMARK    1  A    between atoms: C_1  and  C_2
REMARK    2  A    between atoms: C_2  and  O_3
REMARK    3  A    between atoms: O_3  and  C_4
REMARK    4  A    between atoms: C_4  and  C_6
REMARK    5  A    between atoms: C_6  and  N_18
REMARK    6  A    between atoms: C_7  and  C_8
REMARK    7  A    between atoms: C_11  and  C_12
REMARK    8  A    between atoms: C_12  and  O_14
REMARK    9  A    between atoms: O_14  and  C_15
REMARK   10  A    between atoms: N_18  and  C_19
REMARK   11  A    between atoms: N_18  and  C_21
REMARK   12  A    between atoms: C_19  and  C_20
REMARK   13  A    between atoms: C_21  and  C_22
REMARK                            x       y       z     vdW  Elec       q    Type
REMARK                         _______ _______ _______ _____ _____    ______ ____
ROOT
ATOM      1  C   UNL     1       3.910   5.052  18.395  0.00  0.00    +0.000 C 
ATOM      2  C   UNL     1       3.883   6.393  18.268  0.00  0.00    +0.000 C 
ENDROOT
BRANCH   2   3
ATOM      3  C   UNL     1       2.789   7.317  18.581  0.00  0.00    +0.000 A 
ATOM      4  C   UNL     1       2.235   7.366  19.866  0.00  0.00    +0.000 A 
ATOM      5  C   UNL     1       1.367   8.399  20.220  0.00  0.00    +0.000 A 
ATOM      6  C   UNL     1       1.034   9.395  19.288  0.00  0.00    +0.000 A 
ATOM      7  C   UNL     1       1.544   9.313  17.987  0.00  0.00    +0.000 A 
ATOM      8  C   UNL     1       2.419   8.281  17.637  0.00  0.00    +0.000 A 
BRANCH   6   9
ATOM      9  C   UNL     1       0.192  10.541  19.739  0.00  0.00    +0.000 C 
ATOM     10  O   UNL     1       0.071  11.580  19.110  0.00  0.00    +0.000 OA
BRANCH   9  11
ATOM     11  O   UNL     1      -0.439  10.240  20.903  0.00  0.00    +0.000 OA
ATOM     12  C   UNL     1      -0.454  11.305  21.855  0.00  0.00    +0.000 C 
ENDBRANCH   9  11
ENDBRANCH   6   9
ENDBRANCH   2   3
BRANCH   1  13
ATOM     13  C   UNL     1       5.235   4.375  18.071  0.00  0.00    +0.000 C 
ATOM     14  O   UNL     1       6.205   4.373  18.819  0.00  0.00    +0.000 OA
BRANCH  13  15
ATOM     15  O   UNL     1       5.224   3.880  16.799  0.00  0.00    +0.000 OA
BRANCH  15  17
ATOM     16  C   UNL     1       5.792   4.674  14.612  0.00  0.00    +0.000 C 
ATOM     17  C   UNL     1       6.334   4.211  15.951  0.00  0.00    +0.000 C 
ENDBRANCH  15  17
ENDBRANCH  13  15
ENDBRANCH   1  13
BRANCH   1  18
ATOM     18  N   UNL     1       2.840   4.273  18.882  0.00  0.00    +0.000 N 
BRANCH  18  19
ATOM     19  C   UNL     1       1.920   3.542  17.985  0.00  0.00    +0.000 C 
ATOM     20  C   UNL     1       2.298   2.088  17.758  0.00  0.00    +0.000 C 
ENDBRANCH  18  19
BRANCH  18  21
ATOM     21  C   UNL     1       2.991   3.633  20.210  0.00  0.00    +0.000 C 
ATOM     22  C   UNL     1       1.841   3.901  21.174  0.00  0.00    +0.000 C 
ENDBRANCH  18  21
ENDBRANCH   1  18
TORSDOF 9
ENDMDL
