MODEL 1
REMARK VINA RESULT:      -9.8      0.000      0.000
REMARK  Name = 
REMARK  7 active torsions:
REMARK  status: ('A' for Active; 'I' for Inactive)
REMARK    1  A    between atoms: C_1  and  C_2
REMARK    2  A    between atoms: C_5  and  C_6
REMARK    3  A    between atoms: C_6  and  N_7
REMARK    4  A    between atoms: N_7  and  C_8
REMARK    5  A    between atoms: C_15  and  C_16
REMARK    6  A    between atoms: C_17  and  C_18
REMARK    7  A    between atoms: C_21  and  C_22
REMARK                            x       y       z     vdW  Elec       q    Type
REMARK                         _______ _______ _______ _____ _____    ______ ____
ROOT
ATOM      1  C   UNL     1       2.288   5.676  19.869  0.00  0.00    +0.000 A 
ATOM      2  N   UNL     1       1.293   5.166  20.604  0.00  0.00    +0.000 NA
ATOM      3  C   UNL     1       0.997   3.876  20.397  0.00  0.00    +0.000 A 
ATOM      4  N   UNL     1       1.579   3.059  19.512  0.00  0.00    +0.000 NA
ATOM      5  C   UNL     1       2.567   3.576  18.782  0.00  0.00    +0.000 A 
ATOM      6  C   UNL     1       3.195   2.780  17.837  0.00  0.00    +0.000 A 
ATOM      7  C   UNL     1       4.259   3.248  17.056  0.00  0.00    +0.000 A 
ATOM      8  C   UNL     1       4.714   4.559  17.202  0.00  0.00    +0.000 A 
ATOM      9  C   UNL     1       4.065   5.380  18.131  0.00  0.00    +0.000 A 
ATOM     10  C   UNL     1       2.999   4.901  18.933  0.00  0.00    +0.000 A 
ENDROOT
BRANCH   8  11
ATOM     11  C   UNL     1       5.830   5.056  16.412  0.00  0.00    +0.000 A 
ATOM     12  C   UNL     1       6.187   4.870  15.042  0.00  0.00    +0.000 A 
ATOM     13  C   UNL     1       5.503   4.116  13.966  0.00  0.00    +0.000 C 
ATOM     14  N   UNL     1       7.326   5.507  14.745  0.00  0.00    +0.000 NA
ATOM     15  O   UNL     1       7.739   6.111  15.911  0.00  0.00    +0.000 OA
ATOM     16  C   UNL     1       6.858   5.839  16.909  0.00  0.00    +0.000 A 
ATOM     17  C   UNL     1       7.209   6.395  18.233  0.00  0.00    +0.000 C 
ENDBRANCH   8  11
BRANCH   1  18
ATOM     18  N   UNL     1       2.686   7.015  20.102  0.00  0.00    +0.000 N 
ATOM     19  H   UNL     1       2.631   7.182  21.106  0.00  0.00    +0.000 HD
BRANCH  18  20
ATOM     20  C   UNL     1       1.901   8.004  19.368  0.00  0.00    +0.000 C 
BRANCH  20  25
ATOM     21  C   UNL     1      -1.306  11.169  23.085  0.00  0.00    +0.000 C 
ATOM     22  C   UNL     1      -0.454  10.388  22.124  0.00  0.00    +0.000 A 
ATOM     23  C   UNL     1      -0.475  10.664  20.757  0.00  0.00    +0.000 A 
ATOM     24  C   UNL     1       0.300   9.910  19.869  0.00  0.00    +0.000 A 
ATOM     25  C   UNL     1       1.113   8.866  20.334  0.00  0.00    +0.000 A 
ATOM     26  C   UNL     1       1.134   8.596  21.710  0.00  0.00    +0.000 A 
ATOM     27  C   UNL     1       0.357   9.350  22.598  0.00  0.00    +0.000 A 
ENDBRANCH  20  25
ENDBRANCH  18  20
ENDBRANCH   1  18
TORSDOF 4
ENDMDL
MODEL 2
REMARK VINA RESULT:      -9.5      0.860      1.473
REMARK  Name = 
REMARK  7 active torsions:
REMARK  status: ('A' for Active; 'I' for Inactive)
REMARK    1  A    between atoms: C_1  and  C_2
REMARK    2  A    between atoms: C_5  and  C_6
REMARK    3  A    between atoms: C_6  and  N_7
REMARK    4  A    between atoms: N_7  and  C_8
REMARK    5  A    between atoms: C_15  and  C_16
REMARK    6  A    between atoms: C_17  and  C_18
REMARK    7  A    between atoms: C_21  and  C_22
REMARK                            x       y       z     vdW  Elec       q    Type
REMARK                         _______ _______ _______ _____ _____    ______ ____
ROOT
ATOM      1  C   UNL     1       2.210   5.527  19.803  0.00  0.00    +0.000 A 
ATOM      2  N   UNL     1       1.235   4.983  20.540  0.00  0.00    +0.000 NA
ATOM      3  C   UNL     1       1.029   3.669  20.384  0.00  0.00    +0.000 A 
ATOM      4  N   UNL     1       1.682   2.856  19.546  0.00  0.00    +0.000 NA
ATOM      5  C   UNL     1       2.650   3.407  18.813  0.00  0.00    +0.000 A 
ATOM      6  C   UNL     1       3.350   2.615  17.915  0.00  0.00    +0.000 A 
ATOM      7  C   UNL     1       4.397   3.120  17.135  0.00  0.00    +0.000 A 
ATOM      8  C   UNL     1       4.762   4.463  17.233  0.00  0.00    +0.000 A 
ATOM      9  C   UNL     1       4.040   5.277  18.113  0.00  0.00    +0.000 A 
ATOM     10  C   UNL     1       2.990   4.762  18.914  0.00  0.00    +0.000 A 
ENDROOT
BRANCH   8  11
ATOM     11  C   UNL     1       5.859   5.000  16.443  0.00  0.00    +0.000 A 
ATOM     12  C   UNL     1       6.200   4.860  15.064  0.00  0.00    +0.000 A 
ATOM     13  C   UNL     1       5.512   4.129  13.974  0.00  0.00    +0.000 C 
ATOM     14  N   UNL     1       7.326   5.522  14.771  0.00  0.00    +0.000 NA
ATOM     15  O   UNL     1       7.747   6.096  15.949  0.00  0.00    +0.000 OA
ATOM     16  C   UNL     1       6.884   5.781  16.950  0.00  0.00    +0.000 A 
ATOM     17  C   UNL     1       7.245   6.302  18.285  0.00  0.00    +0.000 C 
ENDBRANCH   8  11
BRANCH   1  18
ATOM     18  N   UNL     1       2.514   6.897  19.985  0.00  0.00    +0.000 N 
ATOM     19  H   UNL     1       3.488   6.960  20.280  0.00  0.00    +0.000 HD
BRANCH  18  20
ATOM     20  C   UNL     1       1.639   7.579  20.935  0.00  0.00    +0.000 C 
BRANCH  20  25
ATOM     21  C   UNL     1      -0.898  12.182  18.387  0.00  0.00    +0.000 C 
ATOM     22  C   UNL     1      -0.209  11.021  19.049  0.00  0.00    +0.000 A 
ATOM     23  C   UNL     1       0.783  10.300  18.383  0.00  0.00    +0.000 A 
ATOM     24  C   UNL     1       1.395   9.203  18.998  0.00  0.00    +0.000 A 
ATOM     25  C   UNL     1       1.027   8.807  20.293  0.00  0.00    +0.000 A 
ATOM     26  C   UNL     1       0.032   9.539  20.958  0.00  0.00    +0.000 A 
ATOM     27  C   UNL     1      -0.581  10.636  20.342  0.00  0.00    +0.000 A 
ENDBRANCH  20  25
ENDBRANCH  18  20
ENDBRANCH   1  18
TORSDOF 4
ENDMDL
MODEL 3
REMARK VINA RESULT:      -9.5      0.419      1.861
REMARK  Name = 
REMARK  7 active torsions:
REMARK  status: ('A' for Active; 'I' for Inactive)
REMARK    1  A    between atoms: C_1  and  C_2
REMARK    2  A    between atoms: C_5  and  C_6
REMARK    3  A    between atoms: C_6  and  N_7
REMARK    4  A    between atoms: N_7  and  C_8
REMARK    5  A    between atoms: C_15  and  C_16
REMARK    6  A    between atoms: C_17  and  C_18
REMARK    7  A    between atoms: C_21  and  C_22
REMARK                            x       y       z     vdW  Elec       q    Type
REMARK                         _______ _______ _______ _____ _____    ______ ____
ROOT
ATOM      1  C   UNL     1       2.213   5.492  19.967  0.00  0.00    +0.000 A 
ATOM      2  N   UNL     1       1.192   4.940  20.632  0.00  0.00    +0.000 NA
ATOM      3  C   UNL     1       0.892   3.671  20.323  0.00  0.00    +0.000 A 
ATOM      4  N   UNL     1       1.495   2.915  19.398  0.00  0.00    +0.000 NA
ATOM      5  C   UNL     1       2.509   3.474  18.738  0.00  0.00    +0.000 A 
ATOM      6  C   UNL     1       3.160   2.743  17.756  0.00  0.00    +0.000 A 
ATOM      7  C   UNL     1       4.250   3.256  17.044  0.00  0.00    +0.000 A 
ATOM      8  C   UNL     1       4.711   4.548  17.299  0.00  0.00    +0.000 A 
ATOM      9  C   UNL     1       4.040   5.305  18.266  0.00  0.00    +0.000 A 
ATOM     10  C   UNL     1       2.946   4.780  18.998  0.00  0.00    +0.000 A 
ENDROOT
BRANCH   8  11
ATOM     11  C   UNL     1       5.854   5.090  16.581  0.00  0.00    +0.000 A 
ATOM     12  C   UNL     1       6.941   5.914  17.001  0.00  0.00    +0.000 A 
ATOM     13  C   UNL     1       7.267   6.466  18.338  0.00  0.00    +0.000 C 
ATOM     14  N   UNL     1       7.765   6.192  15.983  0.00  0.00    +0.000 NA
ATOM     15  O   UNL     1       7.229   5.566  14.880  0.00  0.00    +0.000 OA
ATOM     16  C   UNL     1       6.086   4.917  15.227  0.00  0.00    +0.000 A 
ATOM     17  C   UNL     1       5.383   4.236  14.120  0.00  0.00    +0.000 C 
ENDBRANCH   8  11
BRANCH   1  18
ATOM     18  N   UNL     1       2.614   6.806  20.309  0.00  0.00    +0.000 N 
ATOM     19  H   UNL     1       2.435   6.933  21.305  0.00  0.00    +0.000 HD
BRANCH  18  20
ATOM     20  C   UNL     1       1.958   7.850  19.527  0.00  0.00    +0.000 C 
BRANCH  20  25
ATOM     21  C   UNL     1      -1.197  11.338  22.991  0.00  0.00    +0.000 C 
ATOM     22  C   UNL     1      -0.412  10.408  22.107  0.00  0.00    +0.000 A 
ATOM     23  C   UNL     1       0.379   9.396  22.652  0.00  0.00    +0.000 A 
ATOM     24  C   UNL     1       1.128   8.557  21.820  0.00  0.00    +0.000 A 
ATOM     25  C   UNL     1       1.097   8.713  20.426  0.00  0.00    +0.000 A 
ATOM     26  C   UNL     1       0.295   9.729  19.885  0.00  0.00    +0.000 A 
ATOM     27  C   UNL     1      -0.453  10.569  20.718  0.00  0.00    +0.000 A 
ENDBRANCH  20  25
ENDBRANCH  18  20
ENDBRANCH   1  18
TORSDOF 4
ENDMDL
MODEL 4
REMARK VINA RESULT:      -9.1      0.941      2.178
REMARK  Name = 
REMARK  7 active torsions:
REMARK  status: ('A' for Active; 'I' for Inactive)
REMARK    1  A    between atoms: C_1  and  C_2
REMARK    2  A    between atoms: C_5  and  C_6
REMARK    3  A    between atoms: C_6  and  N_7
REMARK    4  A    between atoms: N_7  and  C_8
REMARK    5  A    between atoms: C_15  and  C_16
REMARK    6  A    between atoms: C_17  and  C_18
REMARK    7  A    between atoms: C_21  and  C_22
REMARK                            x       y       z     vdW  Elec       q    Type
REMARK                         _______ _______ _______ _____ _____    ______ ____
ROOT
ATOM      1  C   UNL     1       2.125   5.478  19.901  0.00  0.00    +0.000 A 
ATOM      2  N   UNL     1       1.136   4.907  20.599  0.00  0.00    +0.000 NA
ATOM      3  C   UNL     1       0.949   3.594  20.405  0.00  0.00    +0.000 A 
ATOM      4  N   UNL     1       1.633   2.809  19.566  0.00  0.00    +0.000 NA
ATOM      5  C   UNL     1       2.614   3.387  18.873  0.00  0.00    +0.000 A 
ATOM      6  C   UNL     1       3.345   2.624  17.976  0.00  0.00    +0.000 A 
ATOM      7  C   UNL     1       4.407   3.158  17.236  0.00  0.00    +0.000 A 
ATOM      8  C   UNL     1       4.755   4.503  17.376  0.00  0.00    +0.000 A 
ATOM      9  C   UNL     1       4.001   5.287  18.255  0.00  0.00    +0.000 A 
ATOM     10  C   UNL     1       2.936   4.743  19.016  0.00  0.00    +0.000 A 
ENDROOT
BRANCH   8  11
ATOM     11  C   UNL     1       5.867   5.069  16.629  0.00  0.00    +0.000 A 
ATOM     12  C   UNL     1       6.967   5.886  17.029  0.00  0.00    +0.000 A 
ATOM     13  C   UNL     1       7.344   6.403  18.366  0.00  0.00    +0.000 C 
ATOM     14  N   UNL     1       7.749   6.195  15.987  0.00  0.00    +0.000 NA
ATOM     15  O   UNL     1       7.172   5.598  14.889  0.00  0.00    +0.000 OA
ATOM     16  C   UNL     1       6.047   4.934  15.262  0.00  0.00    +0.000 A 
ATOM     17  C   UNL     1       5.303   4.281  14.165  0.00  0.00    +0.000 C 
ENDBRANCH   8  11
BRANCH   1  18
ATOM     18  N   UNL     1       2.409   6.847  20.124  0.00  0.00    +0.000 N 
ATOM     19  H   UNL     1       3.355   6.907  20.500  0.00  0.00    +0.000 HD
BRANCH  18  20
ATOM     20  C   UNL     1       1.457   7.515  21.007  0.00  0.00    +0.000 C 
BRANCH  20  25
ATOM     21  C   UNL     1      -0.739  12.261  18.404  0.00  0.00    +0.000 C 
ATOM     22  C   UNL     1      -0.137  11.061  19.080  0.00  0.00    +0.000 A 
ATOM     23  C   UNL     1       0.819  10.276  18.434  0.00  0.00    +0.000 A 
ATOM     24  C   UNL     1       1.350   9.145  19.062  0.00  0.00    +0.000 A 
ATOM     25  C   UNL     1       0.935   8.777  20.351  0.00  0.00    +0.000 A 
ATOM     26  C   UNL     1      -0.023   9.573  20.996  0.00  0.00    +0.000 A 
ATOM     27  C   UNL     1      -0.555  10.704  20.367  0.00  0.00    +0.000 A 
ENDBRANCH  20  25
ENDBRANCH  18  20
ENDBRANCH   1  18
TORSDOF 4
ENDMDL
MODEL 5
REMARK VINA RESULT:      -9.1      1.059      1.776
REMARK  Name = 
REMARK  7 active torsions:
REMARK  status: ('A' for Active; 'I' for Inactive)
REMARK    1  A    between atoms: C_1  and  C_2
REMARK    2  A    between atoms: C_5  and  C_6
REMARK    3  A    between atoms: C_6  and  N_7
REMARK    4  A    between atoms: N_7  and  C_8
REMARK    5  A    between atoms: C_15  and  C_16
REMARK    6  A    between atoms: C_17  and  C_18
REMARK    7  A    between atoms: C_21  and  C_22
REMARK                            x       y       z     vdW  Elec       q    Type
REMARK                         _______ _______ _______ _____ _____    ______ ____
ROOT
ATOM      1  C   UNL     1       2.278   5.340  20.159  0.00  0.00    +0.000 A 
ATOM      2  N   UNL     1       1.344   4.749  20.912  0.00  0.00    +0.000 NA
ATOM      3  C   UNL     1       1.200   3.426  20.757  0.00  0.00    +0.000 A 
ATOM      4  N   UNL     1       1.877   2.647  19.907  0.00  0.00    +0.000 NA
ATOM      5  C   UNL     1       2.804   3.245  19.158  0.00  0.00    +0.000 A 
ATOM      6  C   UNL     1       3.525   2.489  18.247  0.00  0.00    +0.000 A 
ATOM      7  C   UNL     1       4.533   3.045  17.449  0.00  0.00    +0.000 A 
ATOM      8  C   UNL     1       4.833   4.405  17.542  0.00  0.00    +0.000 A 
ATOM      9  C   UNL     1       4.088   5.181  18.437  0.00  0.00    +0.000 A 
ATOM     10  C   UNL     1       3.079   4.616  19.255  0.00  0.00    +0.000 A 
ENDROOT
BRANCH   8  11
ATOM     11  C   UNL     1       5.889   4.995  16.735  0.00  0.00    +0.000 A 
ATOM     12  C   UNL     1       6.144   4.969  15.331  0.00  0.00    +0.000 A 
ATOM     13  C   UNL     1       5.381   4.338  14.228  0.00  0.00    +0.000 C 
ATOM     14  N   UNL     1       7.260   5.642  15.025  0.00  0.00    +0.000 NA
ATOM     15  O   UNL     1       7.760   6.112  16.219  0.00  0.00    +0.000 OA
ATOM     16  C   UNL     1       6.953   5.722  17.241  0.00  0.00    +0.000 A 
ATOM     17  C   UNL     1       7.402   6.125  18.591  0.00  0.00    +0.000 C 
ENDBRANCH   8  11
BRANCH   1  18
ATOM     18  N   UNL     1       2.518   6.724  20.338  0.00  0.00    +0.000 N 
ATOM     19  H   UNL     1       3.347   6.819  20.925  0.00  0.00    +0.000 HD
BRANCH  18  20
ATOM     20  C   UNL     1       1.390   7.453  20.911  0.00  0.00    +0.000 C 
BRANCH  20  25
ATOM     21  C   UNL     1       1.140  12.743  18.446  0.00  0.00    +0.000 C 
ATOM     22  C   UNL     1       1.161  11.380  19.081  0.00  0.00    +0.000 A 
ATOM     23  C   UNL     1       0.832  11.209  20.426  0.00  0.00    +0.000 A 
ATOM     24  C   UNL     1       0.885   9.940  21.012  0.00  0.00    +0.000 A 
ATOM     25  C   UNL     1       1.267   8.817  20.263  0.00  0.00    +0.000 A 
ATOM     26  C   UNL     1       1.592   8.995  18.910  0.00  0.00    +0.000 A 
ATOM     27  C   UNL     1       1.540  10.266  18.324  0.00  0.00    +0.000 A 
ENDBRANCH  20  25
ENDBRANCH  18  20
ENDBRANCH   1  18
TORSDOF 4
ENDMDL
MODEL 6
REMARK VINA RESULT:      -8.7      1.249      2.536
REMARK  Name = 
REMARK  7 active torsions:
REMARK  status: ('A' for Active; 'I' for Inactive)
REMARK    1  A    between atoms: C_1  and  C_2
REMARK    2  A    between atoms: C_5  and  C_6
REMARK    3  A    between atoms: C_6  and  N_7
REMARK    4  A    between atoms: N_7  and  C_8
REMARK    5  A    between atoms: C_15  and  C_16
REMARK    6  A    between atoms: C_17  and  C_18
REMARK    7  A    between atoms: C_21  and  C_22
REMARK                            x       y       z     vdW  Elec       q    Type
REMARK                         _______ _______ _______ _____ _____    ______ ____
ROOT
ATOM      1  C   UNL     1       2.316   4.986  20.193  0.00  0.00    +0.000 A 
ATOM      2  N   UNL     1       1.382   4.314  20.876  0.00  0.00    +0.000 NA
ATOM      3  C   UNL     1       1.235   3.018  20.570  0.00  0.00    +0.000 A 
ATOM      4  N   UNL     1       1.910   2.341  19.634  0.00  0.00    +0.000 NA
ATOM      5  C   UNL     1       2.836   3.019  18.957  0.00  0.00    +0.000 A 
ATOM      6  C   UNL     1       3.554   2.372  17.963  0.00  0.00    +0.000 A 
ATOM      7  C   UNL     1       4.560   3.014  17.232  0.00  0.00    +0.000 A 
ATOM      8  C   UNL     1       4.863   4.354  17.480  0.00  0.00    +0.000 A 
ATOM      9  C   UNL     1       4.121   5.024  18.459  0.00  0.00    +0.000 A 
ATOM     10  C   UNL     1       3.113   4.369  19.210  0.00  0.00    +0.000 A 
ENDROOT
BRANCH   8  11
ATOM     11  C   UNL     1       5.918   5.031  16.742  0.00  0.00    +0.000 A 
ATOM     12  C   UNL     1       6.972   5.897  17.163  0.00  0.00    +0.000 A 
ATOM     13  C   UNL     1       7.345   6.367  18.519  0.00  0.00    +0.000 C 
ATOM     14  N   UNL     1       7.707   6.312  16.124  0.00  0.00    +0.000 NA
ATOM     15  O   UNL     1       7.144   5.736  15.007  0.00  0.00    +0.000 OA
ATOM     16  C   UNL     1       6.074   4.980  15.367  0.00  0.00    +0.000 A 
ATOM     17  C   UNL     1       5.348   4.338  14.252  0.00  0.00    +0.000 C 
ENDBRANCH   8  11
BRANCH   1  18
ATOM     18  N   UNL     1       2.559   6.340  20.529  0.00  0.00    +0.000 N 
ATOM     19  H   UNL     1       3.165   6.350  21.349  0.00  0.00    +0.000 HD
BRANCH  18  20
ATOM     20  C   UNL     1       1.347   7.119  20.770  0.00  0.00    +0.000 C 
BRANCH  20  25
ATOM     21  C   UNL     1       1.818  12.202  17.932  0.00  0.00    +0.000 C 
ATOM     22  C   UNL     1       1.654  10.895  18.656  0.00  0.00    +0.000 A 
ATOM     23  C   UNL     1       1.121  10.850  19.944  0.00  0.00    +0.000 A 
ATOM     24  C   UNL     1       1.001   9.630  20.619  0.00  0.00    +0.000 A 
ATOM     25  C   UNL     1       1.412   8.432  20.016  0.00  0.00    +0.000 A 
ATOM     26  C   UNL     1       1.944   8.484  18.719  0.00  0.00    +0.000 A 
ATOM     27  C   UNL     1       2.064   9.705  18.045  0.00  0.00    +0.000 A 
ENDBRANCH  20  25
ENDBRANCH  18  20
ENDBRANCH   1  18
TORSDOF 4
ENDMDL
MODEL 7
REMARK VINA RESULT:      -8.7      1.226      1.889
REMARK  Name = 
REMARK  7 active torsions:
REMARK  status: ('A' for Active; 'I' for Inactive)
REMARK    1  A    between atoms: C_1  and  C_2
REMARK    2  A    between atoms: C_5  and  C_6
REMARK    3  A    between atoms: C_6  and  N_7
REMARK    4  A    between atoms: N_7  and  C_8
REMARK    5  A    between atoms: C_15  and  C_16
REMARK    6  A    between atoms: C_17  and  C_18
REMARK    7  A    between atoms: C_21  and  C_22
REMARK                            x       y       z     vdW  Elec       q    Type
REMARK                         _______ _______ _______ _____ _____    ______ ____
ROOT
ATOM      1  C   UNL     1       1.870   5.083  20.387  0.00  0.00    +0.000 A 
ATOM      2  N   UNL     1       0.844   4.300  20.741  0.00  0.00    +0.000 NA
ATOM      3  C   UNL     1       0.800   3.084  20.180  0.00  0.00    +0.000 A 
ATOM      4  N   UNL     1       1.662   2.589  19.285  0.00  0.00    +0.000 NA
ATOM      5  C   UNL     1       2.679   3.378  18.936  0.00  0.00    +0.000 A 
ATOM      6  C   UNL     1       3.594   2.923  17.999  0.00  0.00    +0.000 A 
ATOM      7  C   UNL     1       4.701   3.686  17.608  0.00  0.00    +0.000 A 
ATOM      8  C   UNL     1       4.908   4.954  18.151  0.00  0.00    +0.000 A 
ATOM      9  C   UNL     1       3.972   5.434  19.074  0.00  0.00    +0.000 A 
ATOM     10  C   UNL     1       2.860   4.656  19.482  0.00  0.00    +0.000 A 
ENDROOT
BRANCH   8  11
ATOM     11  C   UNL     1       6.063   5.752  17.770  0.00  0.00    +0.000 A 
ATOM     12  C   UNL     1       7.289   6.039  18.443  0.00  0.00    +0.000 A 
ATOM     13  C   UNL     1       7.791   5.582  19.760  0.00  0.00    +0.000 C 
ATOM     14  N   UNL     1       8.067   6.849  17.714  0.00  0.00    +0.000 NA
ATOM     15  O   UNL     1       7.364   7.115  16.561  0.00  0.00    +0.000 OA
ATOM     16  C   UNL     1       6.166   6.473  16.592  0.00  0.00    +0.000 A 
ATOM     17  C   UNL     1       5.290   6.710  15.426  0.00  0.00    +0.000 C 
ENDBRANCH   8  11
BRANCH   1  18
ATOM     18  N   UNL     1       2.001   6.349  21.007  0.00  0.00    +0.000 N 
ATOM     19  H   UNL     1       1.354   6.375  21.795  0.00  0.00    +0.000 HD
BRANCH  18  20
ATOM     20  C   UNL     1       1.769   7.477  20.109  0.00  0.00    +0.000 C 
BRANCH  20  25
ATOM     21  C   UNL     1      -1.277  11.593  22.919  0.00  0.00    +0.000 C 
ATOM     22  C   UNL     1      -0.462  10.563  22.188  0.00  0.00    +0.000 A 
ATOM     23  C   UNL     1      -0.350  10.589  20.797  0.00  0.00    +0.000 A 
ATOM     24  C   UNL     1       0.387   9.607  20.127  0.00  0.00    +0.000 A 
ATOM     25  C   UNL     1       1.027   8.580  20.836  0.00  0.00    +0.000 A 
ATOM     26  C   UNL     1       0.914   8.562  22.234  0.00  0.00    +0.000 A 
ATOM     27  C   UNL     1       0.176   9.544  22.904  0.00  0.00    +0.000 A 
ENDBRANCH  20  25
ENDBRANCH  18  20
ENDBRANCH   1  18
TORSDOF 4
ENDMDL
MODEL 8
REMARK VINA RESULT:      -8.5      3.430      7.090
REMARK  Name = 
REMARK  7 active torsions:
REMARK  status: ('A' for Active; 'I' for Inactive)
REMARK    1  A    between atoms: C_1  and  C_2
REMARK    2  A    between atoms: C_5  and  C_6
REMARK    3  A    between atoms: C_6  and  N_7
REMARK    4  A    between atoms: N_7  and  C_8
REMARK    5  A    between atoms: C_15  and  C_16
REMARK    6  A    between atoms: C_17  and  C_18
REMARK    7  A    between atoms: C_21  and  C_22
REMARK                            x       y       z     vdW  Elec       q    Type
REMARK                         _______ _______ _______ _____ _____    ______ ____
ROOT
ATOM      1  C   UNL     1       6.752   6.577  16.571  0.00  0.00    +0.000 A 
ATOM      2  N   UNL     1       7.551   5.898  15.738  0.00  0.00    +0.000 NA
ATOM      3  C   UNL     1       7.109   4.702  15.329  0.00  0.00    +0.000 A 
ATOM      4  N   UNL     1       5.965   4.110  15.691  0.00  0.00    +0.000 NA
ATOM      5  C   UNL     1       5.177   4.792  16.523  0.00  0.00    +0.000 A 
ATOM      6  C   UNL     1       3.987   4.220  16.945  0.00  0.00    +0.000 A 
ATOM      7  C   UNL     1       3.098   4.890  17.794  0.00  0.00    +0.000 A 
ATOM      8  C   UNL     1       3.400   6.171  18.258  0.00  0.00    +0.000 A 
ATOM      9  C   UNL     1       4.615   6.742  17.863  0.00  0.00    +0.000 A 
ATOM     10  C   UNL     1       5.507   6.071  16.991  0.00  0.00    +0.000 A 
ENDROOT
BRANCH   8  11
ATOM     11  C   UNL     1       2.480   6.888  19.127  0.00  0.00    +0.000 A 
ATOM     12  C   UNL     1       1.938   8.207  19.061  0.00  0.00    +0.000 A 
ATOM     13  C   UNL     1       2.128   9.274  18.050  0.00  0.00    +0.000 C 
ATOM     14  N   UNL     1       1.135   8.457  20.102  0.00  0.00    +0.000 NA
ATOM     15  O   UNL     1       1.144   7.315  20.871  0.00  0.00    +0.000 OA
ATOM     16  C   UNL     1       1.950   6.381  20.301  0.00  0.00    +0.000 A 
ATOM     17  C   UNL     1       2.083   5.116  21.053  0.00  0.00    +0.000 C 
ENDBRANCH   8  11
BRANCH   1  18
ATOM     18  N   UNL     1       7.141   7.877  16.975  0.00  0.00    +0.000 N 
ATOM     19  H   UNL     1       7.469   8.372  16.146  0.00  0.00    +0.000 HD
BRANCH  18  20
ATOM     20  C   UNL     1       8.156   7.894  18.024  0.00  0.00    +0.000 C 
BRANCH  20  25
ATOM     21  C   UNL     1       9.787  13.377  19.209  0.00  0.00    +0.000 C 
ATOM     22  C   UNL     1       9.337  11.969  18.935  0.00  0.00    +0.000 A 
ATOM     23  C   UNL     1       9.643  10.932  19.817  0.00  0.00    +0.000 A 
ATOM     24  C   UNL     1       9.245   9.620  19.535  0.00  0.00    +0.000 A 
ATOM     25  C   UNL     1       8.530   9.322  18.366  0.00  0.00    +0.000 A 
ATOM     26  C   UNL     1       8.221  10.370  17.486  0.00  0.00    +0.000 A 
ATOM     27  C   UNL     1       8.621  11.682  17.767  0.00  0.00    +0.000 A 
ENDBRANCH  20  25
ENDBRANCH  18  20
ENDBRANCH   1  18
TORSDOF 4
ENDMDL
MODEL 9
REMARK VINA RESULT:      -8.4      1.466      1.880
REMARK  Name = 
REMARK  7 active torsions:
REMARK  status: ('A' for Active; 'I' for Inactive)
REMARK    1  A    between atoms: C_1  and  C_2
REMARK    2  A    between atoms: C_5  and  C_6
REMARK    3  A    between atoms: C_6  and  N_7
REMARK    4  A    between atoms: N_7  and  C_8
REMARK    5  A    between atoms: C_15  and  C_16
REMARK    6  A    between atoms: C_17  and  C_18
REMARK    7  A    between atoms: C_21  and  C_22
REMARK                            x       y       z     vdW  Elec       q    Type
REMARK                         _______ _______ _______ _____ _____    ______ ____
ROOT
ATOM      1  C   UNL     1       2.244   6.133  19.507  0.00  0.00    +0.000 A 
ATOM      2  N   UNL     1       1.303   5.712  20.359  0.00  0.00    +0.000 NA
ATOM      3  C   UNL     1       1.177   4.386  20.504  0.00  0.00    +0.000 A 
ATOM      4  N   UNL     1       1.880   3.447  19.863  0.00  0.00    +0.000 NA
ATOM      5  C   UNL     1       2.814   3.875  19.013  0.00  0.00    +0.000 A 
ATOM      6  C   UNL     1       3.561   2.944  18.308  0.00  0.00    +0.000 A 
ATOM      7  C   UNL     1       4.577   3.322  17.421  0.00  0.00    +0.000 A 
ATOM      8  C   UNL     1       4.860   4.672  17.210  0.00  0.00    +0.000 A 
ATOM      9  C   UNL     1       4.089   5.618  17.894  0.00  0.00    +0.000 A 
ATOM     10  C   UNL     1       3.071   5.236  18.803  0.00  0.00    +0.000 A 
ENDROOT
BRANCH   8  11
ATOM     11  C   UNL     1       5.924   5.082  16.307  0.00  0.00    +0.000 A 
ATOM     12  C   UNL     1       6.170   4.796  14.931  0.00  0.00    +0.000 A 
ATOM     13  C   UNL     1       5.385   3.995  13.961  0.00  0.00    +0.000 C 
ATOM     14  N   UNL     1       7.299   5.376  14.506  0.00  0.00    +0.000 NA
ATOM     15  O   UNL     1       7.817   6.041  15.595  0.00  0.00    +0.000 OA
ATOM     16  C   UNL     1       7.008   5.862  16.672  0.00  0.00    +0.000 A 
ATOM     17  C   UNL     1       7.474   6.492  17.925  0.00  0.00    +0.000 C 
ENDBRANCH   8  11
BRANCH   1  18
ATOM     18  N   UNL     1       2.465   7.525  19.373  0.00  0.00    +0.000 N 
ATOM     19  H   UNL     1       2.166   7.969  20.241  0.00  0.00    +0.000 HD
BRANCH  18  20
ATOM     20  C   UNL     1       1.791   8.126  18.225  0.00  0.00    +0.000 C 
BRANCH  20  25
ATOM     21  C   UNL     1       0.298  13.691  19.183  0.00  0.00    +0.000 C 
ATOM     22  C   UNL     1       0.712  12.262  18.968  0.00  0.00    +0.000 A 
ATOM     23  C   UNL     1       1.920  11.949  18.344  0.00  0.00    +0.000 A 
ATOM     24  C   UNL     1       2.279  10.616  18.123  0.00  0.00    +0.000 A 
ATOM     25  C   UNL     1       1.436   9.568  18.524  0.00  0.00    +0.000 A 
ATOM     26  C   UNL     1       0.226   9.889  19.155  0.00  0.00    +0.000 A 
ATOM     27  C   UNL     1      -0.134  11.224  19.375  0.00  0.00    +0.000 A 
ENDBRANCH  20  25
ENDBRANCH  18  20
ENDBRANCH   1  18
TORSDOF 4
ENDMDL
