MODEL 1
REMARK VINA RESULT:      -9.3      0.000      0.000
REMARK  Name = 
REMARK  5 active torsions:
REMARK  status: ('A' for Active; 'I' for Inactive)
REMARK    1  A    between atoms: C_1  and  C_2
REMARK    2  A    between atoms: C_5  and  C_6
REMARK    3  A    between atoms: C_6  and  O_8
REMARK    4  A    between atoms: O_8  and  N_9
REMARK    5  A    between atoms: C_16  and  C_17
REMARK                            x       y       z     vdW  Elec       q    Type
REMARK                         _______ _______ _______ _____ _____    ______ ____
ROOT
ATOM      1  N   UNL     1       5.157   4.129  19.416  0.00  0.00    +0.000 NA
ATOM      2  C   UNL     1       3.861   4.105  19.488  0.00  0.00    +0.000 C 
ATOM      3  C   UNL     1       3.181   2.756  19.284  0.00  0.00    +0.000 C 
ATOM      4  C   UNL     1       2.108   2.497  20.336  0.00  0.00    +0.000 C 
ATOM      5  C   UNL     1       1.129   3.666  20.437  0.00  0.00    +0.000 C 
ATOM      6  C   UNL     1       1.859   4.975  20.755  0.00  0.00    +0.000 C 
ATOM      7  C   UNL     1       2.921   5.261  19.732  0.00  0.00    +0.000 C 
ATOM      8  C   UNL     1       3.070   6.367  18.981  0.00  0.00    +0.000 C 
ENDROOT
BRANCH   8   9
ATOM      9  C   UNL     1       2.310   7.617  19.079  0.00  0.00    +0.000 A 
ATOM     10  C   UNL     1       2.034   8.356  17.920  0.00  0.00    +0.000 A 
ATOM     11  C   UNL     1       1.190   9.468  17.969  0.00  0.00    +0.000 A 
ATOM     12  C   UNL     1       0.610   9.847  19.176  0.00  0.00    +0.000 A 
ATOM     13  C   UNL     1       0.902   9.136  20.340  0.00  0.00    +0.000 A 
ATOM     14  C   UNL     1       1.760   8.031  20.295  0.00  0.00    +0.000 A 
ENDBRANCH   8   9
BRANCH   1  15
ATOM     15  O   UNL     1       5.696   5.411  19.660  0.00  0.00    +0.000 OA
BRANCH  15  16
ATOM     16  C   UNL     1       6.800   5.624  18.881  0.00  0.00    +0.000 C 
ATOM     17  O   UNL     1       7.911   5.983  19.242  0.00  0.00    +0.000 OA
BRANCH  16  22
ATOM     18  C   UNL     1       5.590   4.345  13.333  0.00  0.00    +0.000 C 
ATOM     19  C   UNL     1       5.913   4.691  14.757  0.00  0.00    +0.000 A 
ATOM     20  C   UNL     1       6.861   3.961  15.482  0.00  0.00    +0.000 A 
ATOM     21  C   UNL     1       7.140   4.279  16.813  0.00  0.00    +0.000 A 
ATOM     22  C   UNL     1       6.479   5.340  17.447  0.00  0.00    +0.000 A 
ATOM     23  C   UNL     1       5.534   6.074  16.722  0.00  0.00    +0.000 A 
ATOM     24  C   UNL     1       5.254   5.753  15.387  0.00  0.00    +0.000 A 
ENDBRANCH  16  22
ENDBRANCH  15  16
ENDBRANCH   1  15
TORSDOF 4
ENDMDL
MODEL 2
REMARK VINA RESULT:      -9.2      0.235      1.012
REMARK  Name = 
REMARK  5 active torsions:
REMARK  status: ('A' for Active; 'I' for Inactive)
REMARK    1  A    between atoms: C_1  and  C_2
REMARK    2  A    between atoms: C_5  and  C_6
REMARK    3  A    between atoms: C_6  and  O_8
REMARK    4  A    between atoms: O_8  and  N_9
REMARK    5  A    between atoms: C_16  and  C_17
REMARK                            x       y       z     vdW  Elec       q    Type
REMARK                         _______ _______ _______ _____ _____    ______ ____
ROOT
ATOM      1  N   UNL     1       5.377   4.265  19.432  0.00  0.00    +0.000 NA
ATOM      2  C   UNL     1       4.091   4.154  19.567  0.00  0.00    +0.000 C 
ATOM      3  C   UNL     1       3.504   2.749  19.484  0.00  0.00    +0.000 C 
ATOM      4  C   UNL     1       2.499   2.487  20.600  0.00  0.00    +0.000 C 
ATOM      5  C   UNL     1       1.442   3.587  20.672  0.00  0.00    +0.000 C 
ATOM      6  C   UNL     1       2.086   4.964  20.869  0.00  0.00    +0.000 C 
ATOM      7  C   UNL     1       3.079   5.253  19.780  0.00  0.00    +0.000 C 
ATOM      8  C   UNL     1       3.113   6.313  18.953  0.00  0.00    +0.000 C 
ENDROOT
BRANCH   8   9
ATOM      9  C   UNL     1       2.267   7.510  19.006  0.00  0.00    +0.000 A 
ATOM     10  C   UNL     1       1.734   7.931  20.231  0.00  0.00    +0.000 A 
ATOM     11  C   UNL     1       1.050   9.145  20.331  0.00  0.00    +0.000 A 
ATOM     12  C   UNL     1       0.898   9.951  19.206  0.00  0.00    +0.000 A 
ATOM     13  C   UNL     1       1.400   9.527  17.975  0.00  0.00    +0.000 A 
ATOM     14  C   UNL     1       2.071   8.303  17.872  0.00  0.00    +0.000 A 
ENDBRANCH   8   9
BRANCH   1  15
ATOM     15  O   UNL     1       5.829   5.595  19.566  0.00  0.00    +0.000 OA
BRANCH  15  16
ATOM     16  C   UNL     1       6.892   5.827  18.737  0.00  0.00    +0.000 C 
ATOM     17  O   UNL     1       7.994   6.262  19.039  0.00  0.00    +0.000 OA
BRANCH  16  22
ATOM     18  C   UNL     1       5.548   4.208  13.310  0.00  0.00    +0.000 C 
ATOM     19  C   UNL     1       5.906   4.641  14.702  0.00  0.00    +0.000 A 
ATOM     20  C   UNL     1       6.849   3.936  15.459  0.00  0.00    +0.000 A 
ATOM     21  C   UNL     1       7.161   4.336  16.760  0.00  0.00    +0.000 A 
ATOM     22  C   UNL     1       6.538   5.455  17.332  0.00  0.00    +0.000 A 
ATOM     23  C   UNL     1       5.599   6.163  16.574  0.00  0.00    +0.000 A 
ATOM     24  C   UNL     1       5.286   5.760  15.269  0.00  0.00    +0.000 A 
ENDBRANCH  16  22
ENDBRANCH  15  16
ENDBRANCH   1  15
TORSDOF 4
ENDMDL
MODEL 3
REMARK VINA RESULT:      -8.9      1.740      2.811
REMARK  Name = 
REMARK  5 active torsions:
REMARK  status: ('A' for Active; 'I' for Inactive)
REMARK    1  A    between atoms: C_1  and  C_2
REMARK    2  A    between atoms: C_5  and  C_6
REMARK    3  A    between atoms: C_6  and  O_8
REMARK    4  A    between atoms: O_8  and  N_9
REMARK    5  A    between atoms: C_16  and  C_17
REMARK                            x       y       z     vdW  Elec       q    Type
REMARK                         _______ _______ _______ _____ _____    ______ ____
ROOT
ATOM      1  N   UNL     1       4.561   3.394  18.615  0.00  0.00    +0.000 NA
ATOM      2  C   UNL     1       3.305   3.593  18.875  0.00  0.00    +0.000 C 
ATOM      3  C   UNL     1       2.368   2.399  18.723  0.00  0.00    +0.000 C 
ATOM      4  C   UNL     1       1.422   2.268  19.911  0.00  0.00    +0.000 C 
ATOM      5  C   UNL     1       0.696   3.581  20.197  0.00  0.00    +0.000 C 
ATOM      6  C   UNL     1       1.689   4.720  20.453  0.00  0.00    +0.000 C 
ATOM      7  C   UNL     1       2.634   4.878  19.296  0.00  0.00    +0.000 C 
ATOM      8  C   UNL     1       2.878   5.985  18.573  0.00  0.00    +0.000 C 
ENDROOT
BRANCH   8   9
ATOM      9  C   UNL     1       2.380   7.341  18.826  0.00  0.00    +0.000 A 
ATOM     10  C   UNL     1       2.326   8.269  17.778  0.00  0.00    +0.000 A 
ATOM     11  C   UNL     1       1.720   9.515  17.961  0.00  0.00    +0.000 A 
ATOM     12  C   UNL     1       1.159   9.840  19.193  0.00  0.00    +0.000 A 
ATOM     13  C   UNL     1       1.234   8.934  20.250  0.00  0.00    +0.000 A 
ATOM     14  C   UNL     1       1.855   7.692  20.073  0.00  0.00    +0.000 A 
ENDBRANCH   8   9
BRANCH   1  15
ATOM     15  O   UNL     1       5.353   4.543  18.824  0.00  0.00    +0.000 OA
BRANCH  15  16
ATOM     16  C   UNL     1       6.194   4.746  17.764  0.00  0.00    +0.000 C 
ATOM     17  O   UNL     1       6.377   4.011  16.804  0.00  0.00    +0.000 OA
BRANCH  16  22
ATOM     18  C   UNL     1       8.795   9.926  18.298  0.00  0.00    +0.000 C 
ATOM     19  C   UNL     1       8.140   8.584  18.151  0.00  0.00    +0.000 A 
ATOM     20  C   UNL     1       7.106   8.380  17.230  0.00  0.00    +0.000 A 
ATOM     21  C   UNL     1       6.491   7.132  17.114  0.00  0.00    +0.000 A 
ATOM     22  C   UNL     1       6.902   6.057  17.914  0.00  0.00    +0.000 A 
ATOM     23  C   UNL     1       7.939   6.257  18.831  0.00  0.00    +0.000 A 
ATOM     24  C   UNL     1       8.554   7.511  18.948  0.00  0.00    +0.000 A 
ENDBRANCH  16  22
ENDBRANCH  15  16
ENDBRANCH   1  15
TORSDOF 4
ENDMDL
MODEL 4
REMARK VINA RESULT:      -8.8      2.504      6.733
REMARK  Name = 
REMARK  5 active torsions:
REMARK  status: ('A' for Active; 'I' for Inactive)
REMARK    1  A    between atoms: C_1  and  C_2
REMARK    2  A    between atoms: C_5  and  C_6
REMARK    3  A    between atoms: C_6  and  O_8
REMARK    4  A    between atoms: O_8  and  N_9
REMARK    5  A    between atoms: C_16  and  C_17
REMARK                            x       y       z     vdW  Elec       q    Type
REMARK                         _______ _______ _______ _____ _____    ______ ____
ROOT
ATOM      1  N   UNL     1       3.420   8.083  16.887  0.00  0.00    +0.000 NA
ATOM      2  C   UNL     1       4.129   7.045  17.210  0.00  0.00    +0.000 C 
ATOM      3  C   UNL     1       5.470   6.876  16.503  0.00  0.00    +0.000 C 
ATOM      4  C   UNL     1       6.586   6.525  17.481  0.00  0.00    +0.000 C 
ATOM      5  C   UNL     1       6.205   5.337  18.363  0.00  0.00    +0.000 C 
ATOM      6  C   UNL     1       4.910   5.610  19.134  0.00  0.00    +0.000 C 
ATOM      7  C   UNL     1       3.789   5.955  18.196  0.00  0.00    +0.000 C 
ATOM      8  C   UNL     1       2.585   5.363  18.094  0.00  0.00    +0.000 C 
ENDROOT
BRANCH   8   9
ATOM      9  C   UNL     1       2.027   4.326  18.967  0.00  0.00    +0.000 A 
ATOM     10  C   UNL     1       1.947   3.003  18.513  0.00  0.00    +0.000 A 
ATOM     11  C   UNL     1       1.558   1.976  19.376  0.00  0.00    +0.000 A 
ATOM     12  C   UNL     1       1.249   2.263  20.702  0.00  0.00    +0.000 A 
ATOM     13  C   UNL     1       1.296   3.581  21.156  0.00  0.00    +0.000 A 
ATOM     14  C   UNL     1       1.671   4.613  20.288  0.00  0.00    +0.000 A 
ENDBRANCH   8   9
BRANCH   1  15
ATOM     15  O   UNL     1       2.219   8.176  17.623  0.00  0.00    +0.000 OA
BRANCH  15  16
ATOM     16  C   UNL     1       1.989   9.469  18.007  0.00  0.00    +0.000 C 
ATOM     17  O   UNL     1       2.236  10.489  17.379  0.00  0.00    +0.000 OA
BRANCH  16  22
ATOM     18  C   UNL     1      -0.355   9.482  23.334  0.00  0.00    +0.000 C 
ATOM     19  C   UNL     1       0.231   9.475  21.952  0.00  0.00    +0.000 A 
ATOM     20  C   UNL     1       1.001   8.398  21.499  0.00  0.00    +0.000 A 
ATOM     21  C   UNL     1       1.558   8.409  20.219  0.00  0.00    +0.000 A 
ATOM     22  C   UNL     1       1.352   9.498  19.360  0.00  0.00    +0.000 A 
ATOM     23  C   UNL     1       0.578  10.573  19.810  0.00  0.00    +0.000 A 
ATOM     24  C   UNL     1       0.021  10.561  21.096  0.00  0.00    +0.000 A 
ENDBRANCH  16  22
ENDBRANCH  15  16
ENDBRANCH   1  15
TORSDOF 4
ENDMDL
MODEL 5
REMARK VINA RESULT:      -8.7      2.484      6.800
REMARK  Name = 
REMARK  5 active torsions:
REMARK  status: ('A' for Active; 'I' for Inactive)
REMARK    1  A    between atoms: C_1  and  C_2
REMARK    2  A    between atoms: C_5  and  C_6
REMARK    3  A    between atoms: C_6  and  O_8
REMARK    4  A    between atoms: O_8  and  N_9
REMARK    5  A    between atoms: C_16  and  C_17
REMARK                            x       y       z     vdW  Elec       q    Type
REMARK                         _______ _______ _______ _____ _____    ______ ____
ROOT
ATOM      1  N   UNL     1       3.285   7.931  16.831  0.00  0.00    +0.000 NA
ATOM      2  C   UNL     1       4.037   6.940  17.197  0.00  0.00    +0.000 C 
ATOM      3  C   UNL     1       5.339   6.736  16.428  0.00  0.00    +0.000 C 
ATOM      4  C   UNL     1       6.517   6.492  17.364  0.00  0.00    +0.000 C 
ATOM      5  C   UNL     1       6.218   5.377  18.364  0.00  0.00    +0.000 C 
ATOM      6  C   UNL     1       4.963   5.690  19.185  0.00  0.00    +0.000 C 
ATOM      7  C   UNL     1       3.781   5.931  18.291  0.00  0.00    +0.000 C 
ATOM      8  C   UNL     1       2.588   5.309  18.310  0.00  0.00    +0.000 C 
ENDROOT
BRANCH   8   9
ATOM      9  C   UNL     1       2.107   4.340  19.300  0.00  0.00    +0.000 A 
ATOM     10  C   UNL     1       1.713   3.061  18.886  0.00  0.00    +0.000 A 
ATOM     11  C   UNL     1       1.392   2.076  19.823  0.00  0.00    +0.000 A 
ATOM     12  C   UNL     1       1.467   2.361  21.183  0.00  0.00    +0.000 A 
ATOM     13  C   UNL     1       1.830   3.640  21.605  0.00  0.00    +0.000 A 
ATOM     14  C   UNL     1       2.136   4.632  20.666  0.00  0.00    +0.000 A 
ENDBRANCH   8   9
BRANCH   1  15
ATOM     15  O   UNL     1       2.126   8.064  17.627  0.00  0.00    +0.000 OA
BRANCH  15  16
ATOM     16  C   UNL     1       1.976   9.358  18.046  0.00  0.00    +0.000 C 
ATOM     17  O   UNL     1       2.259  10.378  17.434  0.00  0.00    +0.000 OA
BRANCH  16  22
ATOM     18  C   UNL     1      -0.485   9.565  23.316  0.00  0.00    +0.000 C 
ATOM     19  C   UNL     1       0.167   9.517  21.965  0.00  0.00    +0.000 A 
ATOM     20  C   UNL     1      -0.033  10.537  21.028  0.00  0.00    +0.000 A 
ATOM     21  C   UNL     1       0.564  10.473  19.767  0.00  0.00    +0.000 A 
ATOM     22  C   UNL     1       1.379   9.388  19.417  0.00  0.00    +0.000 A 
ATOM     23  C   UNL     1       1.584   8.370  20.355  0.00  0.00    +0.000 A 
ATOM     24  C   UNL     1       0.984   8.434  21.620  0.00  0.00    +0.000 A 
ENDBRANCH  16  22
ENDBRANCH  15  16
ENDBRANCH   1  15
TORSDOF 4
ENDMDL
MODEL 6
REMARK VINA RESULT:      -8.6      2.196      6.470
REMARK  Name = 
REMARK  5 active torsions:
REMARK  status: ('A' for Active; 'I' for Inactive)
REMARK    1  A    between atoms: C_1  and  C_2
REMARK    2  A    between atoms: C_5  and  C_6
REMARK    3  A    between atoms: C_6  and  O_8
REMARK    4  A    between atoms: O_8  and  N_9
REMARK    5  A    between atoms: C_16  and  C_17
REMARK                            x       y       z     vdW  Elec       q    Type
REMARK                         _______ _______ _______ _____ _____    ______ ____
ROOT
ATOM      1  N   UNL     1       1.464   6.161  20.910  0.00  0.00    +0.000 NA
ATOM      2  C   UNL     1       1.806   5.079  20.281  0.00  0.00    +0.000 C 
ATOM      3  C   UNL     1       1.253   3.762  20.816  0.00  0.00    +0.000 C 
ATOM      4  C   UNL     1       0.708   2.881  19.698  0.00  0.00    +0.000 C 
ATOM      5  C   UNL     1       1.729   2.704  18.576  0.00  0.00    +0.000 C 
ATOM      6  C   UNL     1       2.163   4.056  18.001  0.00  0.00    +0.000 C 
ATOM      7  C   UNL     1       2.710   4.948  19.079  0.00  0.00    +0.000 C 
ATOM      8  C   UNL     1       3.909   5.555  19.121  0.00  0.00    +0.000 C 
ENDROOT
BRANCH   8   9
ATOM      9  C   UNL     1       4.919   5.604  18.058  0.00  0.00    +0.000 A 
ATOM     10  C   UNL     1       6.093   4.849  18.181  0.00  0.00    +0.000 A 
ATOM     11  C   UNL     1       6.999   4.764  17.120  0.00  0.00    +0.000 A 
ATOM     12  C   UNL     1       6.735   5.429  15.926  0.00  0.00    +0.000 A 
ATOM     13  C   UNL     1       5.582   6.206  15.806  0.00  0.00    +0.000 A 
ATOM     14  C   UNL     1       4.683   6.305  16.873  0.00  0.00    +0.000 A 
ENDBRANCH   8   9
BRANCH   1  15
ATOM     15  O   UNL     1       1.988   7.330  20.317  0.00  0.00    +0.000 OA
BRANCH  15  16
ATOM     16  C   UNL     1       1.518   8.445  20.954  0.00  0.00    +0.000 C 
ATOM     17  O   UNL     1       1.750   8.805  22.099  0.00  0.00    +0.000 OA
BRANCH  16  22
ATOM     18  C   UNL     1      -1.916  11.626  17.494  0.00  0.00    +0.000 C 
ATOM     19  C   UNL     1      -1.040  10.789  18.380  0.00  0.00    +0.000 A 
ATOM     20  C   UNL     1      -1.227  10.765  19.767  0.00  0.00    +0.000 A 
ATOM     21  C   UNL     1      -0.395   9.997  20.584  0.00  0.00    +0.000 A 
ATOM     22  C   UNL     1       0.641   9.232  20.031  0.00  0.00    +0.000 A 
ATOM     23  C   UNL     1       0.826   9.252  18.645  0.00  0.00    +0.000 A 
ATOM     24  C   UNL     1      -0.009  10.024  17.825  0.00  0.00    +0.000 A 
ENDBRANCH  16  22
ENDBRANCH  15  16
ENDBRANCH   1  15
TORSDOF 4
ENDMDL
MODEL 7
REMARK VINA RESULT:      -8.5      1.891      2.982
REMARK  Name = 
REMARK  5 active torsions:
REMARK  status: ('A' for Active; 'I' for Inactive)
REMARK    1  A    between atoms: C_1  and  C_2
REMARK    2  A    between atoms: C_5  and  C_6
REMARK    3  A    between atoms: C_6  and  O_8
REMARK    4  A    between atoms: O_8  and  N_9
REMARK    5  A    between atoms: C_16  and  C_17
REMARK                            x       y       z     vdW  Elec       q    Type
REMARK                         _______ _______ _______ _____ _____    ______ ____
ROOT
ATOM      1  N   UNL     1       4.612   3.434  18.028  0.00  0.00    +0.000 NA
ATOM      2  C   UNL     1       3.344   3.523  18.290  0.00  0.00    +0.000 C 
ATOM      3  C   UNL     1       2.485   2.301  17.980  0.00  0.00    +0.000 C 
ATOM      4  C   UNL     1       1.538   1.969  19.128  0.00  0.00    +0.000 C 
ATOM      5  C   UNL     1       0.729   3.191  19.559  0.00  0.00    +0.000 C 
ATOM      6  C   UNL     1       1.647   4.349  19.966  0.00  0.00    +0.000 C 
ATOM      7  C   UNL     1       2.591   4.704  18.852  0.00  0.00    +0.000 C 
ATOM      8  C   UNL     1       2.771   5.903  18.272  0.00  0.00    +0.000 C 
ENDROOT
BRANCH   8   9
ATOM      9  C   UNL     1       2.187   7.185  18.679  0.00  0.00    +0.000 A 
ATOM     10  C   UNL     1       1.860   7.404  20.024  0.00  0.00    +0.000 A 
ATOM     11  C   UNL     1       1.442   8.664  20.459  0.00  0.00    +0.000 A 
ATOM     12  C   UNL     1       1.351   9.717  19.553  0.00  0.00    +0.000 A 
ATOM     13  C   UNL     1       1.645   9.501  18.207  0.00  0.00    +0.000 A 
ATOM     14  C   UNL     1       2.049   8.235  17.767  0.00  0.00    +0.000 A 
ENDBRANCH   8   9
BRANCH   1  15
ATOM     15  O   UNL     1       5.329   4.595  18.387  0.00  0.00    +0.000 OA
BRANCH  15  16
ATOM     16  C   UNL     1       6.361   4.812  17.515  0.00  0.00    +0.000 C 
ATOM     17  O   UNL     1       6.766   4.064  16.637  0.00  0.00    +0.000 OA
BRANCH  16  22
ATOM     18  C   UNL     1       8.880   9.959  18.533  0.00  0.00    +0.000 C 
ATOM     19  C   UNL     1       8.214   8.638  18.280  0.00  0.00    +0.000 A 
ATOM     20  C   UNL     1       8.557   7.502  19.020  0.00  0.00    +0.000 A 
ATOM     21  C   UNL     1       7.944   6.273  18.764  0.00  0.00    +0.000 A 
ATOM     22  C   UNL     1       6.970   6.156  17.764  0.00  0.00    +0.000 A 
ATOM     23  C   UNL     1       6.623   7.293  17.026  0.00  0.00    +0.000 A 
ATOM     24  C   UNL     1       7.239   8.525  17.283  0.00  0.00    +0.000 A 
ENDBRANCH  16  22
ENDBRANCH  15  16
ENDBRANCH   1  15
TORSDOF 4
ENDMDL
MODEL 8
REMARK VINA RESULT:      -8.4      2.284      6.379
REMARK  Name = 
REMARK  5 active torsions:
REMARK  status: ('A' for Active; 'I' for Inactive)
REMARK    1  A    between atoms: C_1  and  C_2
REMARK    2  A    between atoms: C_5  and  C_6
REMARK    3  A    between atoms: C_6  and  O_8
REMARK    4  A    between atoms: O_8  and  N_9
REMARK    5  A    between atoms: C_16  and  C_17
REMARK                            x       y       z     vdW  Elec       q    Type
REMARK                         _______ _______ _______ _____ _____    ______ ____
ROOT
ATOM      1  N   UNL     1       1.569   6.066  20.970  0.00  0.00    +0.000 NA
ATOM      2  C   UNL     1       1.730   4.970  20.295  0.00  0.00    +0.000 C 
ATOM      3  C   UNL     1       1.329   3.668  20.982  0.00  0.00    +0.000 C 
ATOM      4  C   UNL     1       0.508   2.772  20.062  0.00  0.00    +0.000 C 
ATOM      5  C   UNL     1       1.200   2.565  18.716  0.00  0.00    +0.000 C 
ATOM      6  C   UNL     1       1.476   3.902  18.022  0.00  0.00    +0.000 C 
ATOM      7  C   UNL     1       2.289   4.808  18.902  0.00  0.00    +0.000 C 
ATOM      8  C   UNL     1       3.461   5.404  18.618  0.00  0.00    +0.000 C 
ENDROOT
BRANCH   8   9
ATOM      9  C   UNL     1       4.160   5.423  17.329  0.00  0.00    +0.000 A 
ATOM     10  C   UNL     1       4.523   6.647  16.753  0.00  0.00    +0.000 A 
ATOM     11  C   UNL     1       5.316   6.686  15.603  0.00  0.00    +0.000 A 
ATOM     12  C   UNL     1       5.755   5.500  15.022  0.00  0.00    +0.000 A 
ATOM     13  C   UNL     1       5.374   4.276  15.571  0.00  0.00    +0.000 A 
ATOM     14  C   UNL     1       4.566   4.236  16.714  0.00  0.00    +0.000 A 
ENDBRANCH   8   9
BRANCH   1  15
ATOM     15  O   UNL     1       1.927   7.219  20.237  0.00  0.00    +0.000 OA
BRANCH  15  16
ATOM     16  C   UNL     1       1.527   8.350  20.895  0.00  0.00    +0.000 C 
ATOM     17  O   UNL     1       1.806   8.688  22.036  0.00  0.00    +0.000 OA
BRANCH  16  22
ATOM     18  C   UNL     1      -1.840  11.720  17.551  0.00  0.00    +0.000 C 
ATOM     19  C   UNL     1      -0.982  10.835  18.407  0.00  0.00    +0.000 A 
ATOM     20  C   UNL     1      -1.150  10.789  19.795  0.00  0.00    +0.000 A 
ATOM     21  C   UNL     1      -0.334   9.975  20.585  0.00  0.00    +0.000 A 
ATOM     22  C   UNL     1       0.666   9.186  20.001  0.00  0.00    +0.000 A 
ATOM     23  C   UNL     1       0.832   9.228  18.613  0.00  0.00    +0.000 A 
ATOM     24  C   UNL     1       0.014  10.045  17.821  0.00  0.00    +0.000 A 
ENDBRANCH  16  22
ENDBRANCH  15  16
ENDBRANCH   1  15
TORSDOF 4
ENDMDL
MODEL 9
REMARK VINA RESULT:      -8.4      2.247      6.923
REMARK  Name = 
REMARK  5 active torsions:
REMARK  status: ('A' for Active; 'I' for Inactive)
REMARK    1  A    between atoms: C_1  and  C_2
REMARK    2  A    between atoms: C_5  and  C_6
REMARK    3  A    between atoms: C_6  and  O_8
REMARK    4  A    between atoms: O_8  and  N_9
REMARK    5  A    between atoms: C_16  and  C_17
REMARK                            x       y       z     vdW  Elec       q    Type
REMARK                         _______ _______ _______ _____ _____    ______ ____
ROOT
ATOM      1  N   UNL     1       3.760   7.904  17.263  0.00  0.00    +0.000 NA
ATOM      2  C   UNL     1       4.241   6.703  17.162  0.00  0.00    +0.000 C 
ATOM      3  C   UNL     1       5.078   6.393  15.926  0.00  0.00    +0.000 C 
ATOM      4  C   UNL     1       6.362   5.652  16.282  0.00  0.00    +0.000 C 
ATOM      5  C   UNL     1       6.079   4.427  17.151  0.00  0.00    +0.000 C 
ATOM      6  C   UNL     1       5.335   4.815  18.433  0.00  0.00    +0.000 C 
ATOM      7  C   UNL     1       4.061   5.545  18.114  0.00  0.00    +0.000 C 
ATOM      8  C   UNL     1       2.812   5.240  18.510  0.00  0.00    +0.000 C 
ENDROOT
BRANCH   8   9
ATOM      9  C   UNL     1       2.410   4.198  19.461  0.00  0.00    +0.000 A 
ATOM     10  C   UNL     1       2.553   4.420  20.837  0.00  0.00    +0.000 A 
ATOM     11  C   UNL     1       2.043   3.507  21.763  0.00  0.00    +0.000 A 
ATOM     12  C   UNL     1       1.381   2.365  21.320  0.00  0.00    +0.000 A 
ATOM     13  C   UNL     1       1.260   2.121  19.952  0.00  0.00    +0.000 A 
ATOM     14  C   UNL     1       1.785   3.028  19.024  0.00  0.00    +0.000 A 
ENDBRANCH   8   9
BRANCH   1  15
ATOM     15  O   UNL     1       3.036   8.106  18.458  0.00  0.00    +0.000 OA
BRANCH  15  16
ATOM     16  C   UNL     1       1.965   8.927  18.238  0.00  0.00    +0.000 C 
ATOM     17  O   UNL     1       1.573   9.374  17.169  0.00  0.00    +0.000 OA
BRANCH  16  22
ATOM     18  C   UNL     1      -0.860  10.166  23.174  0.00  0.00    +0.000 C 
ATOM     19  C   UNL     1      -0.114   9.854  21.910  0.00  0.00    +0.000 A 
ATOM     20  C   UNL     1      -0.251  10.657  20.772  0.00  0.00    +0.000 A 
ATOM     21  C   UNL     1       0.433  10.347  19.594  0.00  0.00    +0.000 A 
ATOM     22  C   UNL     1       1.273   9.227  19.531  0.00  0.00    +0.000 A 
ATOM     23  C   UNL     1       1.414   8.426  20.669  0.00  0.00    +0.000 A 
ATOM     24  C   UNL     1       0.727   8.737  21.850  0.00  0.00    +0.000 A 
ENDBRANCH  16  22
ENDBRANCH  15  16
ENDBRANCH   1  15
TORSDOF 4
ENDMDL
