MODEL 1
REMARK VINA RESULT:      -6.3      0.000      0.000
REMARK  Name = 
REMARK  5 active torsions:
REMARK  status: ('A' for Active; 'I' for Inactive)
REMARK    1  A    between atoms: C_1  and  O_2
REMARK    2  A    between atoms: O_2  and  C_3
REMARK    3  A    between atoms: C_3  and  C_5
REMARK    4  A    between atoms: C_10  and  C_11
REMARK    5  A    between atoms: C_17  and  C_18
REMARK                            x       y       z     vdW  Elec       q    Type
REMARK                         _______ _______ _______ _____ _____    ______ ____
ROOT
ATOM      1  C   UNL     1      -5.746  12.238  20.989  0.00  0.00    +0.000 C 
ATOM      2  N   UNL     1      -5.613  12.190  22.280  0.00  0.00    +0.000 NA
ATOM      3  C   UNL     1      -4.671  12.933  22.914  0.00  0.00    +0.000 C 
ATOM      4  S   UNL     1      -4.374  12.849  24.557  0.00  0.00    +0.000 S 
ATOM      5  N   UNL     1      -3.969  13.844  22.183  0.00  0.00    +0.000 N 
ATOM      6  C   UNL     1      -3.712  13.656  20.765  0.00  0.00    +0.000 C 
ATOM      7  C   UNL     1      -4.897  13.030  20.032  0.00  0.00    +0.000 C 
ATOM      8  H   UNL     1      -3.245  14.309  22.720  0.00  0.00    +0.000 HD
ENDROOT
BRANCH   7   9
ATOM      9  C   UNL     1      -4.541  12.191  18.860  0.00  0.00    +0.000 A 
ATOM     10  N   UNL     1      -4.933  12.339  17.607  0.00  0.00    +0.000 NA
ATOM     11  C   UNL     1      -4.161  11.441  16.913  0.00  0.00    +0.000 A 
ATOM     12  C   UNL     1      -4.069  11.179  15.542  0.00  0.00    +0.000 A 
ATOM     13  C   UNL     1      -3.122  10.239  15.110  0.00  0.00    +0.000 A 
ATOM     14  C   UNL     1      -2.311   9.556  16.024  0.00  0.00    +0.000 A 
ATOM     15  C   UNL     1      -2.417   9.785  17.406  0.00  0.00    +0.000 A 
ATOM     16  C   UNL     1      -3.342  10.745  17.792  0.00  0.00    +0.000 A 
ATOM     17  O   UNL     1      -3.598  11.213  19.054  0.00  0.00    +0.000 OA
ENDBRANCH   7   9
BRANCH   6  18
ATOM     18  C   UNL     1      -2.325  13.045  20.628  0.00  0.00    +0.000 A 
ATOM     19  C   UNL     1      -1.860  12.056  21.508  0.00  0.00    +0.000 A 
ATOM     20  C   UNL     1      -0.523  11.655  21.479  0.00  0.00    +0.000 A 
ATOM     21  C   UNL     1       0.360  12.222  20.563  0.00  0.00    +0.000 A 
ATOM     22  C   UNL     1      -0.097  13.172  19.654  0.00  0.00    +0.000 A 
ATOM     23  C   UNL     1      -1.431  13.578  19.684  0.00  0.00    +0.000 A 
ENDBRANCH   6  18
BRANCH   1  24
ATOM     24  C   UNL     1      -6.993  11.583  20.395  0.00  0.00    +0.000 C 
ATOM     25  O   UNL     1      -7.853  12.248  19.845  0.00  0.00    +0.000 OA
BRANCH  24  27
ATOM     26  C   UNL     1      -6.981   9.404  19.550  0.00  0.00    +0.000 C 
ATOM     27  O   UNL     1      -7.039  10.267  20.688  0.00  0.00    +0.000 OA
ENDBRANCH  24  27
ENDBRANCH   1  24
TORSDOF 4
ENDMDL
MODEL 2
REMARK VINA RESULT:      -6.0      2.075      2.515
REMARK  Name = 
REMARK  5 active torsions:
REMARK  status: ('A' for Active; 'I' for Inactive)
REMARK    1  A    between atoms: C_1  and  O_2
REMARK    2  A    between atoms: O_2  and  C_3
REMARK    3  A    between atoms: C_3  and  C_5
REMARK    4  A    between atoms: C_10  and  C_11
REMARK    5  A    between atoms: C_17  and  C_18
REMARK                            x       y       z     vdW  Elec       q    Type
REMARK                         _______ _______ _______ _____ _____    ______ ____
ROOT
ATOM      1  C   UNL     1      -6.820  11.846  20.734  0.00  0.00    +0.000 C 
ATOM      2  N   UNL     1      -7.167  12.011  21.974  0.00  0.00    +0.000 NA
ATOM      3  C   UNL     1      -7.125  13.236  22.557  0.00  0.00    +0.000 C 
ATOM      4  S   UNL     1      -7.460  13.509  24.171  0.00  0.00    +0.000 S 
ATOM      5  N   UNL     1      -6.856  14.315  21.768  0.00  0.00    +0.000 N 
ATOM      6  C   UNL     1      -6.040  14.206  20.570  0.00  0.00    +0.000 C 
ATOM      7  C   UNL     1      -6.292  12.907  19.806  0.00  0.00    +0.000 C 
ATOM      8  H   UNL     1      -6.782  15.180  22.293  0.00  0.00    +0.000 HD
ENDROOT
BRANCH   7   9
ATOM      9  C   UNL     1      -5.124  12.383  19.053  0.00  0.00    +0.000 A 
ATOM     10  N   UNL     1      -3.994  11.902  19.539  0.00  0.00    +0.000 NA
ATOM     11  C   UNL     1      -3.362  11.377  18.440  0.00  0.00    +0.000 A 
ATOM     12  C   UNL     1      -2.159  10.672  18.325  0.00  0.00    +0.000 A 
ATOM     13  C   UNL     1      -1.794  10.186  17.061  0.00  0.00    +0.000 A 
ATOM     14  C   UNL     1      -2.593  10.426  15.936  0.00  0.00    +0.000 A 
ATOM     15  C   UNL     1      -3.786  11.160  16.031  0.00  0.00    +0.000 A 
ATOM     16  C   UNL     1      -4.129  11.596  17.304  0.00  0.00    +0.000 A 
ATOM     17  O   UNL     1      -5.261  12.264  17.692  0.00  0.00    +0.000 OA
ENDBRANCH   7   9
BRANCH   6  18
ATOM     18  C   UNL     1      -4.620  14.604  20.945  0.00  0.00    +0.000 A 
ATOM     19  C   UNL     1      -3.920  13.967  21.981  0.00  0.00    +0.000 A 
ATOM     20  C   UNL     1      -2.701  14.478  22.429  0.00  0.00    +0.000 A 
ATOM     21  C   UNL     1      -2.158  15.618  21.840  0.00  0.00    +0.000 A 
ATOM     22  C   UNL     1      -2.819  16.234  20.782  0.00  0.00    +0.000 A 
ATOM     23  C   UNL     1      -4.040  15.730  20.335  0.00  0.00    +0.000 A 
ENDBRANCH   6  18
BRANCH   1  24
ATOM     24  C   UNL     1      -7.151  10.499  20.093  0.00  0.00    +0.000 C 
ATOM     25  O   UNL     1      -7.243  10.382  18.884  0.00  0.00    +0.000 OA
BRANCH  24  27
ATOM     26  C   UNL     1      -7.566   8.241  20.524  0.00  0.00    +0.000 C 
ATOM     27  O   UNL     1      -7.442   9.572  21.028  0.00  0.00    +0.000 OA
ENDBRANCH  24  27
ENDBRANCH   1  24
TORSDOF 4
ENDMDL
MODEL 3
REMARK VINA RESULT:      -6.0      3.086      5.296
REMARK  Name = 
REMARK  5 active torsions:
REMARK  status: ('A' for Active; 'I' for Inactive)
REMARK    1  A    between atoms: C_1  and  O_2
REMARK    2  A    between atoms: O_2  and  C_3
REMARK    3  A    between atoms: C_3  and  C_5
REMARK    4  A    between atoms: C_10  and  C_11
REMARK    5  A    between atoms: C_17  and  C_18
REMARK                            x       y       z     vdW  Elec       q    Type
REMARK                         _______ _______ _______ _____ _____    ______ ____
ROOT
ATOM      1  C   UNL     1      -4.616  14.108  23.954  0.00  0.00    +0.000 C 
ATOM      2  N   UNL     1      -4.034  15.223  24.277  0.00  0.00    +0.000 NA
ATOM      3  C   UNL     1      -4.707  16.401  24.239  0.00  0.00    +0.000 C 
ATOM      4  S   UNL     1      -4.000  17.885  24.543  0.00  0.00    +0.000 S 
ATOM      5  N   UNL     1      -6.048  16.368  23.999  0.00  0.00    +0.000 N 
ATOM      6  C   UNL     1      -6.662  15.315  23.207  0.00  0.00    +0.000 C 
ATOM      7  C   UNL     1      -6.027  13.949  23.459  0.00  0.00    +0.000 C 
ATOM      8  H   UNL     1      -6.459  17.293  23.925  0.00  0.00    +0.000 HD
ENDROOT
BRANCH   7   9
ATOM      9  C   UNL     1      -6.054  13.019  22.300  0.00  0.00    +0.000 A 
ATOM     10  N   UNL     1      -6.945  12.081  22.032  0.00  0.00    +0.000 NA
ATOM     11  C   UNL     1      -6.618  11.671  20.764  0.00  0.00    +0.000 A 
ATOM     12  C   UNL     1      -7.235  10.748  19.914  0.00  0.00    +0.000 A 
ATOM     13  C   UNL     1      -6.710  10.583  18.623  0.00  0.00    +0.000 A 
ATOM     14  C   UNL     1      -5.580  11.298  18.206  0.00  0.00    +0.000 A 
ATOM     15  C   UNL     1      -4.931  12.202  19.062  0.00  0.00    +0.000 A 
ATOM     16  C   UNL     1      -5.500  12.361  20.318  0.00  0.00    +0.000 A 
ATOM     17  O   UNL     1      -5.120  13.220  21.315  0.00  0.00    +0.000 OA
ENDBRANCH   7   9
BRANCH   6  18
ATOM     18  C   UNL     1      -6.806  15.836  21.785  0.00  0.00    +0.000 A 
ATOM     19  C   UNL     1      -7.906  15.501  20.980  0.00  0.00    +0.000 A 
ATOM     20  C   UNL     1      -7.917  15.831  19.623  0.00  0.00    +0.000 A 
ATOM     21  C   UNL     1      -6.841  16.513  19.059  0.00  0.00    +0.000 A 
ATOM     22  C   UNL     1      -5.763  16.891  19.854  0.00  0.00    +0.000 A 
ATOM     23  C   UNL     1      -5.747  16.558  21.208  0.00  0.00    +0.000 A 
ENDBRANCH   6  18
BRANCH   1  24
ATOM     24  C   UNL     1      -3.870  12.815  24.282  0.00  0.00    +0.000 C 
ATOM     25  O   UNL     1      -4.394  11.936  24.943  0.00  0.00    +0.000 OA
BRANCH  24  27
ATOM     26  C   UNL     1      -2.236  11.893  22.889  0.00  0.00    +0.000 C 
ATOM     27  O   UNL     1      -2.587  12.873  23.867  0.00  0.00    +0.000 OA
ENDBRANCH  24  27
ENDBRANCH   1  24
TORSDOF 4
ENDMDL
MODEL 4
REMARK VINA RESULT:      -5.8      3.306      5.273
REMARK  Name = 
REMARK  5 active torsions:
REMARK  status: ('A' for Active; 'I' for Inactive)
REMARK    1  A    between atoms: C_1  and  O_2
REMARK    2  A    between atoms: O_2  and  C_3
REMARK    3  A    between atoms: C_3  and  C_5
REMARK    4  A    between atoms: C_10  and  C_11
REMARK    5  A    between atoms: C_17  and  C_18
REMARK                            x       y       z     vdW  Elec       q    Type
REMARK                         _______ _______ _______ _____ _____    ______ ____
ROOT
ATOM      1  C   UNL     1       0.693  12.127  20.697  0.00  0.00    +0.000 C 
ATOM      2  N   UNL     1       1.846  12.690  20.900  0.00  0.00    +0.000 NA
ATOM      3  C   UNL     1       1.933  13.944  21.411  0.00  0.00    +0.000 C 
ATOM      4  S   UNL     1       3.373  14.770  21.606  0.00  0.00    +0.000 S 
ATOM      5  N   UNL     1       0.788  14.542  21.848  0.00  0.00    +0.000 N 
ATOM      6  C   UNL     1      -0.509  14.232  21.271  0.00  0.00    +0.000 C 
ATOM      7  C   UNL     1      -0.657  12.751  20.926  0.00  0.00    +0.000 C 
ATOM      8  H   UNL     1       0.935  15.498  22.155  0.00  0.00    +0.000 HD
ENDROOT
BRANCH   7   9
ATOM      9  C   UNL     1      -1.549  12.459  19.775  0.00  0.00    +0.000 A 
ATOM     10  N   UNL     1      -1.205  12.140  18.540  0.00  0.00    +0.000 NA
ATOM     11  C   UNL     1      -2.390  11.779  17.951  0.00  0.00    +0.000 A 
ATOM     12  C   UNL     1      -2.663  11.282  16.672  0.00  0.00    +0.000 A 
ATOM     13  C   UNL     1      -3.986  10.926  16.369  0.00  0.00    +0.000 A 
ATOM     14  C   UNL     1      -5.013  11.093  17.307  0.00  0.00    +0.000 A 
ATOM     15  C   UNL     1      -4.758  11.622  18.582  0.00  0.00    +0.000 A 
ATOM     16  C   UNL     1      -3.432  11.931  18.855  0.00  0.00    +0.000 A 
ATOM     17  O   UNL     1      -2.896  12.390  20.030  0.00  0.00    +0.000 OA
ENDBRANCH   7   9
BRANCH   6  18
ATOM     18  C   UNL     1      -0.808  15.291  20.220  0.00  0.00    +0.000 A 
ATOM     19  C   UNL     1       0.049  15.521  19.133  0.00  0.00    +0.000 A 
ATOM     20  C   UNL     1      -0.147  16.621  18.297  0.00  0.00    +0.000 A 
ATOM     21  C   UNL     1      -1.209  17.494  18.525  0.00  0.00    +0.000 A 
ATOM     22  C   UNL     1      -2.094  17.254  19.572  0.00  0.00    +0.000 A 
ATOM     23  C   UNL     1      -1.897  16.159  20.412  0.00  0.00    +0.000 A 
ENDBRANCH   6  18
BRANCH   1  24
ATOM     24  C   UNL     1       0.696  10.633  20.377  0.00  0.00    +0.000 C 
ATOM     25  O   UNL     1       1.211  10.208  19.358  0.00  0.00    +0.000 OA
BRANCH  24  27
ATOM     26  C   UNL     1       0.720   9.387  22.353  0.00  0.00    +0.000 C 
ATOM     27  O   UNL     1      -0.036   9.940  21.273  0.00  0.00    +0.000 OA
ENDBRANCH  24  27
ENDBRANCH   1  24
TORSDOF 4
ENDMDL
MODEL 5
REMARK VINA RESULT:      -5.8      2.956      4.178
REMARK  Name = 
REMARK  5 active torsions:
REMARK  status: ('A' for Active; 'I' for Inactive)
REMARK    1  A    between atoms: C_1  and  O_2
REMARK    2  A    between atoms: O_2  and  C_3
REMARK    3  A    between atoms: C_3  and  C_5
REMARK    4  A    between atoms: C_10  and  C_11
REMARK    5  A    between atoms: C_17  and  C_18
REMARK                            x       y       z     vdW  Elec       q    Type
REMARK                         _______ _______ _______ _____ _____    ______ ____
ROOT
ATOM      1  C   UNL     1      -2.041  13.605  22.888  0.00  0.00    +0.000 C 
ATOM      2  N   UNL     1      -1.376  14.282  23.773  0.00  0.00    +0.000 NA
ATOM      3  C   UNL     1      -1.197  15.621  23.642  0.00  0.00    +0.000 C 
ATOM      4  S   UNL     1      -0.271  16.541  24.686  0.00  0.00    +0.000 S 
ATOM      5  N   UNL     1      -1.860  16.264  22.640  0.00  0.00    +0.000 N 
ATOM      6  C   UNL     1      -2.211  15.594  21.399  0.00  0.00    +0.000 C 
ATOM      7  C   UNL     1      -2.640  14.144  21.617  0.00  0.00    +0.000 C 
ATOM      8  H   UNL     1      -1.621  17.248  22.576  0.00  0.00    +0.000 HD
ENDROOT
BRANCH   7   9
ATOM      9  C   UNL     1      -2.345  13.224  20.489  0.00  0.00    +0.000 A 
ATOM     10  N   UNL     1      -1.190  12.663  20.180  0.00  0.00    +0.000 NA
ATOM     11  C   UNL     1      -1.515  11.762  19.197  0.00  0.00    +0.000 A 
ATOM     12  C   UNL     1      -0.730  10.825  18.518  0.00  0.00    +0.000 A 
ATOM     13  C   UNL     1      -1.362   9.974  17.599  0.00  0.00    +0.000 A 
ATOM     14  C   UNL     1      -2.734  10.078  17.342  0.00  0.00    +0.000 A 
ATOM     15  C   UNL     1      -3.527  11.038  17.991  0.00  0.00    +0.000 A 
ATOM     16  C   UNL     1      -2.872  11.839  18.917  0.00  0.00    +0.000 A 
ATOM     17  O   UNL     1      -3.410  12.796  19.736  0.00  0.00    +0.000 OA
ENDBRANCH   7   9
BRANCH   6  18
ATOM     18  C   UNL     1      -1.130  15.922  20.379  0.00  0.00    +0.000 A 
ATOM     19  C   UNL     1       0.222  15.629  20.612  0.00  0.00    +0.000 A 
ATOM     20  C   UNL     1       1.209  16.113  19.751  0.00  0.00    +0.000 A 
ATOM     21  C   UNL     1       0.858  16.878  18.641  0.00  0.00    +0.000 A 
ATOM     22  C   UNL     1      -0.482  17.139  18.373  0.00  0.00    +0.000 A 
ATOM     23  C   UNL     1      -1.470  16.662  19.234  0.00  0.00    +0.000 A 
ENDBRANCH   6  18
BRANCH   1  24
ATOM     24  C   UNL     1      -2.417  12.169  23.250  0.00  0.00    +0.000 C 
ATOM     25  O   UNL     1      -1.580  11.284  23.272  0.00  0.00    +0.000 OA
BRANCH  24  27
ATOM     26  C   UNL     1      -4.271  12.515  24.630  0.00  0.00    +0.000 C 
ATOM     27  O   UNL     1      -3.753  12.034  23.388  0.00  0.00    +0.000 OA
ENDBRANCH  24  27
ENDBRANCH   1  24
TORSDOF 4
ENDMDL
MODEL 6
REMARK VINA RESULT:      -5.8      3.475      5.508
REMARK  Name = 
REMARK  5 active torsions:
REMARK  status: ('A' for Active; 'I' for Inactive)
REMARK    1  A    between atoms: C_1  and  O_2
REMARK    2  A    between atoms: O_2  and  C_3
REMARK    3  A    between atoms: C_3  and  C_5
REMARK    4  A    between atoms: C_10  and  C_11
REMARK    5  A    between atoms: C_17  and  C_18
REMARK                            x       y       z     vdW  Elec       q    Type
REMARK                         _______ _______ _______ _____ _____    ______ ____
ROOT
ATOM      1  C   UNL     1       0.955  12.000  20.137  0.00  0.00    +0.000 C 
ATOM      2  N   UNL     1       2.107  12.585  20.263  0.00  0.00    +0.000 NA
ATOM      3  C   UNL     1       2.216  13.791  20.876  0.00  0.00    +0.000 C 
ATOM      4  S   UNL     1       3.646  14.649  20.988  0.00  0.00    +0.000 S 
ATOM      5  N   UNL     1       1.112  14.304  21.489  0.00  0.00    +0.000 N 
ATOM      6  C   UNL     1      -0.232  13.998  21.032  0.00  0.00    +0.000 C 
ATOM      7  C   UNL     1      -0.378  12.549  20.569  0.00  0.00    +0.000 C 
ATOM      8  H   UNL     1       1.266  15.234  21.866  0.00  0.00    +0.000 HD
ENDROOT
BRANCH   7   9
ATOM      9  C   UNL     1      -1.386  12.328  19.501  0.00  0.00    +0.000 A 
ATOM     10  N   UNL     1      -1.172  12.092  18.219  0.00  0.00    +0.000 NA
ATOM     11  C   UNL     1      -2.414  11.763  17.735  0.00  0.00    +0.000 A 
ATOM     12  C   UNL     1      -2.819  11.349  16.461  0.00  0.00    +0.000 A 
ATOM     13  C   UNL     1      -4.166  11.006  16.275  0.00  0.00    +0.000 A 
ATOM     14  C   UNL     1      -5.090  11.104  17.324  0.00  0.00    +0.000 A 
ATOM     15  C   UNL     1      -4.702  11.551  18.597  0.00  0.00    +0.000 A 
ATOM     16  C   UNL     1      -3.355  11.850  18.750  0.00  0.00    +0.000 A 
ATOM     17  O   UNL     1      -2.699  12.234  19.890  0.00  0.00    +0.000 OA
ENDBRANCH   7   9
BRANCH   6  18
ATOM     18  C   UNL     1      -0.678  15.135  20.123  0.00  0.00    +0.000 A 
ATOM     19  C   UNL     1       0.056  15.505  18.985  0.00  0.00    +0.000 A 
ATOM     20  C   UNL     1      -0.267  16.668  18.283  0.00  0.00    +0.000 A 
ATOM     21  C   UNL     1      -1.332  17.464  18.697  0.00  0.00    +0.000 A 
ATOM     22  C   UNL     1      -2.096  17.086  19.797  0.00  0.00    +0.000 A 
ATOM     23  C   UNL     1      -1.773  15.928  20.503  0.00  0.00    +0.000 A 
ENDBRANCH   6  18
BRANCH   1  24
ATOM     24  C   UNL     1       0.962  10.541  19.681  0.00  0.00    +0.000 C 
ATOM     25  O   UNL     1       0.550   9.652  20.406  0.00  0.00    +0.000 OA
BRANCH  24  27
ATOM     26  C   UNL     1       1.874   9.054  18.127  0.00  0.00    +0.000 C 
ATOM     27  O   UNL     1       1.585  10.405  18.493  0.00  0.00    +0.000 OA
ENDBRANCH  24  27
ENDBRANCH   1  24
TORSDOF 4
ENDMDL
MODEL 7
REMARK VINA RESULT:      -5.8      3.274      4.500
REMARK  Name = 
REMARK  5 active torsions:
REMARK  status: ('A' for Active; 'I' for Inactive)
REMARK    1  A    between atoms: C_1  and  O_2
REMARK    2  A    between atoms: O_2  and  C_3
REMARK    3  A    between atoms: C_3  and  C_5
REMARK    4  A    between atoms: C_10  and  C_11
REMARK    5  A    between atoms: C_17  and  C_18
REMARK                            x       y       z     vdW  Elec       q    Type
REMARK                         _______ _______ _______ _____ _____    ______ ____
ROOT
ATOM      1  C   UNL     1      -1.623  13.555  22.998  0.00  0.00    +0.000 C 
ATOM      2  N   UNL     1      -1.059  14.292  23.906  0.00  0.00    +0.000 NA
ATOM      3  C   UNL     1      -1.007  15.642  23.779  0.00  0.00    +0.000 C 
ATOM      4  S   UNL     1      -0.213  16.645  24.855  0.00  0.00    +0.000 S 
ATOM      5  N   UNL     1      -1.692  16.219  22.752  0.00  0.00    +0.000 N 
ATOM      6  C   UNL     1      -1.931  15.521  21.500  0.00  0.00    +0.000 C 
ATOM      7  C   UNL     1      -2.225  14.036  21.705  0.00  0.00    +0.000 C 
ATOM      8  H   UNL     1      -1.548  17.222  22.696  0.00  0.00    +0.000 HD
ENDROOT
BRANCH   7   9
ATOM      9  C   UNL     1      -1.802  13.151  20.590  0.00  0.00    +0.000 A 
ATOM     10  N   UNL     1      -0.608  12.627  20.378  0.00  0.00    +0.000 NA
ATOM     11  C   UNL     1      -0.815  11.743  19.350  0.00  0.00    +0.000 A 
ATOM     12  C   UNL     1       0.055  10.842  18.727  0.00  0.00    +0.000 A 
ATOM     13  C   UNL     1      -0.465   9.998  17.735  0.00  0.00    +0.000 A 
ATOM     14  C   UNL     1      -1.810  10.073  17.353  0.00  0.00    +0.000 A 
ATOM     15  C   UNL     1      -2.686  10.996  17.946  0.00  0.00    +0.000 A 
ATOM     16  C   UNL     1      -2.142  11.791  18.946  0.00  0.00    +0.000 A 
ATOM     17  O   UNL     1      -2.780  12.715  19.732  0.00  0.00    +0.000 OA
ENDBRANCH   7   9
BRANCH   6  18
ATOM     18  C   UNL     1      -0.851  15.954  20.520  0.00  0.00    +0.000 A 
ATOM     19  C   UNL     1      -1.162  16.420  19.233  0.00  0.00    +0.000 A 
ATOM     20  C   UNL     1      -0.151  16.624  18.292  0.00  0.00    +0.000 A 
ATOM     21  C   UNL     1       1.180  16.385  18.628  0.00  0.00    +0.000 A 
ATOM     22  C   UNL     1       1.507  15.966  19.914  0.00  0.00    +0.000 A 
ATOM     23  C   UNL     1       0.499  15.755  20.855  0.00  0.00    +0.000 A 
ENDBRANCH   6  18
BRANCH   1  24
ATOM     24  C   UNL     1      -1.871  12.089  23.348  0.00  0.00    +0.000 C 
ATOM     25  O   UNL     1      -2.990  11.683  23.607  0.00  0.00    +0.000 OA
BRANCH  24  27
ATOM     26  C   UNL     1      -0.773  10.057  22.990  0.00  0.00    +0.000 C 
ATOM     27  O   UNL     1      -0.711  11.408  23.452  0.00  0.00    +0.000 OA
ENDBRANCH  24  27
ENDBRANCH   1  24
TORSDOF 4
ENDMDL
MODEL 8
REMARK VINA RESULT:      -5.7      4.181      6.261
REMARK  Name = 
REMARK  5 active torsions:
REMARK  status: ('A' for Active; 'I' for Inactive)
REMARK    1  A    between atoms: C_1  and  O_2
REMARK    2  A    between atoms: O_2  and  C_3
REMARK    3  A    between atoms: C_3  and  C_5
REMARK    4  A    between atoms: C_10  and  C_11
REMARK    5  A    between atoms: C_17  and  C_18
REMARK                            x       y       z     vdW  Elec       q    Type
REMARK                         _______ _______ _______ _____ _____    ______ ____
ROOT
ATOM      1  C   UNL     1      -0.575  15.338  22.511  0.00  0.00    +0.000 C 
ATOM      2  N   UNL     1      -1.144  16.498  22.382  0.00  0.00    +0.000 NA
ATOM      3  C   UNL     1      -2.208  16.847  23.150  0.00  0.00    +0.000 C 
ATOM      4  S   UNL     1      -3.051  18.279  22.973  0.00  0.00    +0.000 S 
ATOM      5  N   UNL     1      -2.571  16.011  24.163  0.00  0.00    +0.000 N 
ATOM      6  C   UNL     1      -2.339  14.577  24.097  0.00  0.00    +0.000 C 
ATOM      7  C   UNL     1      -1.007  14.230  23.434  0.00  0.00    +0.000 C 
ATOM      8  H   UNL     1      -3.411  16.315  24.644  0.00  0.00    +0.000 HD
ENDROOT
BRANCH   7   9
ATOM      9  C   UNL     1      -0.983  12.933  22.712  0.00  0.00    +0.000 A 
ATOM     10  N   UNL     1      -1.053  12.727  21.409  0.00  0.00    +0.000 NA
ATOM     11  C   UNL     1      -0.782  11.389  21.272  0.00  0.00    +0.000 A 
ATOM     12  C   UNL     1      -0.646  10.594  20.129  0.00  0.00    +0.000 A 
ATOM     13  C   UNL     1      -0.288   9.249  20.297  0.00  0.00    +0.000 A 
ATOM     14  C   UNL     1      -0.102   8.704  21.574  0.00  0.00    +0.000 A 
ATOM     15  C   UNL     1      -0.268   9.482  22.731  0.00  0.00    +0.000 A 
ATOM     16  C   UNL     1      -0.591  10.816  22.522  0.00  0.00    +0.000 A 
ATOM     17  O   UNL     1      -0.739  11.806  23.457  0.00  0.00    +0.000 OA
ENDBRANCH   7   9
BRANCH   6  18
ATOM     18  C   UNL     1      -3.624  13.926  23.608  0.00  0.00    +0.000 A 
ATOM     19  C   UNL     1      -4.237  14.307  22.404  0.00  0.00    +0.000 A 
ATOM     20  C   UNL     1      -5.509  13.834  22.077  0.00  0.00    +0.000 A 
ATOM     21  C   UNL     1      -6.177  12.965  22.937  0.00  0.00    +0.000 A 
ATOM     22  C   UNL     1      -5.564  12.544  24.113  0.00  0.00    +0.000 A 
ATOM     23  C   UNL     1      -4.295  13.019  24.445  0.00  0.00    +0.000 A 
ENDBRANCH   6  18
BRANCH   1  24
ATOM     24  C   UNL     1       0.765  15.138  21.805  0.00  0.00    +0.000 C 
ATOM     25  O   UNL     1       1.755  14.786  22.421  0.00  0.00    +0.000 OA
BRANCH  24  27
ATOM     26  C   UNL     1       1.438  14.701  19.611  0.00  0.00    +0.000 C 
ATOM     27  O   UNL     1       0.699  15.525  20.515  0.00  0.00    +0.000 OA
ENDBRANCH  24  27
ENDBRANCH   1  24
TORSDOF 4
ENDMDL
MODEL 9
REMARK VINA RESULT:      -5.7     10.152     12.098
REMARK  Name = 
REMARK  5 active torsions:
REMARK  status: ('A' for Active; 'I' for Inactive)
REMARK    1  A    between atoms: C_1  and  O_2
REMARK    2  A    between atoms: O_2  and  C_3
REMARK    3  A    between atoms: C_3  and  C_5
REMARK    4  A    between atoms: C_10  and  C_11
REMARK    5  A    between atoms: C_17  and  C_18
REMARK                            x       y       z     vdW  Elec       q    Type
REMARK                         _______ _______ _______ _____ _____    ______ ____
ROOT
ATOM      1  C   UNL     1       3.806   2.002  20.461  0.00  0.00    +0.000 C 
ATOM      2  N   UNL     1       3.044   1.957  21.511  0.00  0.00    +0.000 NA
ATOM      3  C   UNL     1       1.763   2.405  21.467  0.00  0.00    +0.000 C 
ATOM      4  S   UNL     1       0.756   2.470  22.799  0.00  0.00    +0.000 S 
ATOM      5  N   UNL     1       1.249   2.764  20.257  0.00  0.00    +0.000 N 
ATOM      6  C   UNL     1       2.088   3.278  19.187  0.00  0.00    +0.000 C 
ATOM      7  C   UNL     1       3.444   2.576  19.118  0.00  0.00    +0.000 C 
ATOM      8  H   UNL     1       0.311   3.145  20.324  0.00  0.00    +0.000 HD
ENDROOT
BRANCH   7   9
ATOM      9  C   UNL     1       4.560   3.412  18.608  0.00  0.00    +0.000 A 
ATOM     10  N   UNL     1       4.835   3.720  17.353  0.00  0.00    +0.000 NA
ATOM     11  C   UNL     1       5.824   4.666  17.457  0.00  0.00    +0.000 A 
ATOM     12  C   UNL     1       6.477   5.418  16.475  0.00  0.00    +0.000 A 
ATOM     13  C   UNL     1       7.410   6.380  16.890  0.00  0.00    +0.000 A 
ATOM     14  C   UNL     1       7.705   6.564  18.247  0.00  0.00    +0.000 A 
ATOM     15  C   UNL     1       7.081   5.792  19.240  0.00  0.00    +0.000 A 
ATOM     16  C   UNL     1       6.141   4.873  18.792  0.00  0.00    +0.000 A 
ATOM     17  O   UNL     1       5.340   4.051  19.539  0.00  0.00    +0.000 OA
ENDBRANCH   7   9
BRANCH   6  18
ATOM     18  C   UNL     1       2.020   4.797  19.240  0.00  0.00    +0.000 A 
ATOM     19  C   UNL     1       2.257   5.590  18.107  0.00  0.00    +0.000 A 
ATOM     20  C   UNL     1       2.380   6.975  18.225  0.00  0.00    +0.000 A 
ATOM     21  C   UNL     1       2.251   7.587  19.471  0.00  0.00    +0.000 A 
ATOM     22  C   UNL     1       1.972   6.818  20.597  0.00  0.00    +0.000 A 
ATOM     23  C   UNL     1       1.855   5.433  20.482  0.00  0.00    +0.000 A 
ENDBRANCH   6  18
BRANCH   1  24
ATOM     24  C   UNL     1       5.128   1.238  20.529  0.00  0.00    +0.000 C 
ATOM     25  O   UNL     1       5.480   0.506  19.621  0.00  0.00    +0.000 OA
BRANCH  24  27
ATOM     26  C   UNL     1       6.264   0.190  22.281  0.00  0.00    +0.000 C 
ATOM     27  O   UNL     1       5.720   1.392  21.731  0.00  0.00    +0.000 OA
ENDBRANCH  24  27
ENDBRANCH   1  24
TORSDOF 4
ENDMDL
