MODEL 1
REMARK VINA RESULT:      -8.7      0.000      0.000
REMARK  Name = 
REMARK  8 active torsions:
REMARK  status: ('A' for Active; 'I' for Inactive)
REMARK    1  A    between atoms: C_1  and  C_2
REMARK    2  A    between atoms: C_2  and  C_3
REMARK    3  A    between atoms: C_2  and  N_4
REMARK    4  A    between atoms: C_11  and  C_12
REMARK    5  A    between atoms: N_14  and  C_15
REMARK    6  A    between atoms: C_15  and  C_16
REMARK    7  A    between atoms: C_15  and  C_27
REMARK    8  A    between atoms: C_19  and  C_20
REMARK                            x       y       z     vdW  Elec       q    Type
REMARK                         _______ _______ _______ _____ _____    ______ ____
ROOT
ATOM      1  C   UNL     1       1.442   9.685  18.527  0.00  0.00    +0.000 C 
ATOM      2  O   UNL     1       2.236  10.403  17.928  0.00  0.00    +0.000 OA
ATOM      3  N   UNL     1       0.158  10.066  18.828  0.00  0.00    +0.000 N 
ATOM      4  H   UNL     1      -0.463   9.432  19.306  0.00  0.00    +0.000 HD
ENDROOT
BRANCH   1  12
ATOM      5  N   UNL     1       5.070   3.779  16.893  0.00  0.00    +0.000 N 
ATOM      6  C   UNL     1       4.293   4.476  17.809  0.00  0.00    +0.000 A 
ATOM      7  N   UNL     1       4.011   3.843  18.953  0.00  0.00    +0.000 NA
ATOM      8  C   UNL     1       3.245   4.506  19.842  0.00  0.00    +0.000 A 
ATOM      9  C   UNL     1       2.753   5.787  19.637  0.00  0.00    +0.000 A 
ATOM     10  C   UNL     1       1.945   6.503  20.547  0.00  0.00    +0.000 A 
ATOM     11  C   UNL     1       1.507   7.790  20.221  0.00  0.00    +0.000 A 
ATOM     12  C   UNL     1       1.875   8.347  18.992  0.00  0.00    +0.000 A 
ATOM     13  C   UNL     1       2.673   7.614  18.105  0.00  0.00    +0.000 A 
ATOM     14  C   UNL     1       3.119   6.346  18.414  0.00  0.00    +0.000 A 
ATOM     15  N   UNL     1       3.878   5.713  17.522  0.00  0.00    +0.000 NA
ATOM     16  H   UNL     1       5.507   3.032  17.425  0.00  0.00    +0.000 HD
BRANCH   5  18
ATOM     17  C   UNL     1       7.326   4.649  16.736  0.00  0.00    +0.000 C 
ATOM     18  C   UNL     1       5.959   4.577  16.057  0.00  0.00    +0.000 C 
ATOM     19  C   UNL     1       6.118   3.945  14.671  0.00  0.00    +0.000 C 
ENDBRANCH   5  18
ENDBRANCH   1  12
BRANCH   3  20
ATOM     20  C   UNL     1      -0.342  11.392  18.470  0.00  0.00    +0.000 C 
BRANCH  20  21
ATOM     21  C   UNL     1      -0.767  12.171  19.715  0.00  0.00    +0.000 A 
ATOM     22  C   UNL     1      -0.920  13.567  19.728  0.00  0.00    +0.000 A 
ATOM     23  C   UNL     1      -1.384  14.231  20.869  0.00  0.00    +0.000 A 
ATOM     24  C   UNL     1      -1.691  13.520  22.034  0.00  0.00    +0.000 A 
ATOM     25  C   UNL     1      -1.523  12.139  22.030  0.00  0.00    +0.000 A 
ATOM     26  F   UNL     1      -1.813  11.427  23.127  0.00  0.00    +0.000 F 
ATOM     27  C   UNL     1      -1.066  11.468  20.895  0.00  0.00    +0.000 A 
BRANCH  24  28
ATOM     28  C   UNL     1      -2.194  14.205  23.268  0.00  0.00    +0.000 C 
ATOM     29  F   UNL     1      -3.333  13.635  23.761  0.00  0.00    +0.000 F 
ATOM     30  F   UNL     1      -1.304  14.180  24.298  0.00  0.00    +0.000 F 
ATOM     31  F   UNL     1      -2.508  15.514  23.062  0.00  0.00    +0.000 F 
ENDBRANCH  24  28
ENDBRANCH  20  21
BRANCH  20  32
ATOM     32  C   UNL     1      -1.431  11.356  17.342  0.00  0.00    +0.000 C 
ATOM     33  C   UNL     1      -1.887   9.938  16.993  0.00  0.00    +0.000 C 
ATOM     34  C   UNL     1      -3.063   9.673  17.917  0.00  0.00    +0.000 C 
ATOM     35  C   UNL     1      -3.607  11.052  18.257  0.00  0.00    +0.000 C 
ATOM     36  N   UNL     1      -2.713  12.023  17.633  0.00  0.00    +0.000 NA
ATOM     37  H   UNL     1      -2.595  12.867  18.184  0.00  0.00    +0.000 HD
ENDBRANCH  20  32
ENDBRANCH   3  20
TORSDOF 6
ENDMDL
MODEL 2
REMARK VINA RESULT:      -8.7      2.641      3.956
REMARK  Name = 
REMARK  8 active torsions:
REMARK  status: ('A' for Active; 'I' for Inactive)
REMARK    1  A    between atoms: C_1  and  C_2
REMARK    2  A    between atoms: C_2  and  C_3
REMARK    3  A    between atoms: C_2  and  N_4
REMARK    4  A    between atoms: C_11  and  C_12
REMARK    5  A    between atoms: N_14  and  C_15
REMARK    6  A    between atoms: C_15  and  C_16
REMARK    7  A    between atoms: C_15  and  C_27
REMARK    8  A    between atoms: C_19  and  C_20
REMARK                            x       y       z     vdW  Elec       q    Type
REMARK                         _______ _______ _______ _____ _____    ______ ____
ROOT
ATOM      1  C   UNL     1       1.496   9.045  19.302  0.00  0.00    +0.000 C 
ATOM      2  O   UNL     1       1.903   9.661  18.323  0.00  0.00    +0.000 OA
ATOM      3  N   UNL     1       0.650   9.587  20.238  0.00  0.00    +0.000 N 
ATOM      4  H   UNL     1       0.329   9.034  21.015  0.00  0.00    +0.000 HD
ENDROOT
BRANCH   1  12
ATOM      5  N   UNL     1       5.205   3.562  16.674  0.00  0.00    +0.000 N 
ATOM      6  C   UNL     1       4.422   4.081  17.698  0.00  0.00    +0.000 A 
ATOM      7  N   UNL     1       4.156   3.257  18.717  0.00  0.00    +0.000 NA
ATOM      8  C   UNL     1       3.385   3.747  19.709  0.00  0.00    +0.000 A 
ATOM      9  C   UNL     1       2.872   5.036  19.726  0.00  0.00    +0.000 A 
ATOM     10  C   UNL     1       2.058   5.573  20.748  0.00  0.00    +0.000 A 
ATOM     11  C   UNL     1       1.599   6.890  20.647  0.00  0.00    +0.000 A 
ATOM     12  C   UNL     1       1.952   7.655  19.531  0.00  0.00    +0.000 A 
ATOM     13  C   UNL     1       2.757   7.096  18.530  0.00  0.00    +0.000 A 
ATOM     14  C   UNL     1       3.223   5.801  18.617  0.00  0.00    +0.000 A 
ATOM     15  N   UNL     1       3.987   5.341  17.628  0.00  0.00    +0.000 NA
ATOM     16  H   UNL     1       5.656   2.743  17.070  0.00  0.00    +0.000 HD
BRANCH   5  18
ATOM     17  C   UNL     1       7.403   4.581  16.742  0.00  0.00    +0.000 C 
ATOM     18  C   UNL     1       6.077   4.506  15.985  0.00  0.00    +0.000 C 
ATOM     19  C   UNL     1       6.345   4.051  14.546  0.00  0.00    +0.000 C 
ENDBRANCH   5  18
ENDBRANCH   1  12
BRANCH   3  20
ATOM     20  C   UNL     1       0.198  10.973  20.135  0.00  0.00    +0.000 C 
BRANCH  20  21
ATOM     21  C   UNL     1      -1.043  11.079  19.248  0.00  0.00    +0.000 A 
ATOM     22  C   UNL     1      -1.164  10.408  18.021  0.00  0.00    +0.000 A 
ATOM     23  C   UNL     1      -2.347  10.472  17.276  0.00  0.00    +0.000 A 
ATOM     24  C   UNL     1      -3.437  11.224  17.731  0.00  0.00    +0.000 A 
ATOM     25  C   UNL     1      -3.313  11.904  18.938  0.00  0.00    +0.000 A 
ATOM     26  F   UNL     1      -4.338  12.628  19.405  0.00  0.00    +0.000 F 
ATOM     27  C   UNL     1      -2.138  11.841  19.689  0.00  0.00    +0.000 A 
BRANCH  24  28
ATOM     28  C   UNL     1      -4.717  11.306  16.957  0.00  0.00    +0.000 C 
ATOM     29  F   UNL     1      -5.088  12.592  16.686  0.00  0.00    +0.000 F 
ATOM     30  F   UNL     1      -4.654  10.685  15.748  0.00  0.00    +0.000 F 
ATOM     31  F   UNL     1      -5.775  10.759  17.617  0.00  0.00    +0.000 F 
ENDBRANCH  24  28
ENDBRANCH  20  21
BRANCH  20  32
ATOM     32  C   UNL     1       1.345  11.969  19.744  0.00  0.00    +0.000 C 
ATOM     33  C   UNL     1       0.869  13.109  18.841  0.00  0.00    +0.000 C 
ATOM     34  C   UNL     1       0.452  14.211  19.799  0.00  0.00    +0.000 C 
ATOM     35  C   UNL     1       1.253  13.947  21.066  0.00  0.00    +0.000 C 
ATOM     36  N   UNL     1       1.989  12.706  20.846  0.00  0.00    +0.000 NA
ATOM     37  H   UNL     1       2.083  12.144  21.687  0.00  0.00    +0.000 HD
ENDBRANCH  20  32
ENDBRANCH   3  20
TORSDOF 6
ENDMDL
MODEL 3
REMARK VINA RESULT:      -8.7      5.050      9.809
REMARK  Name = 
REMARK  8 active torsions:
REMARK  status: ('A' for Active; 'I' for Inactive)
REMARK    1  A    between atoms: C_1  and  C_2
REMARK    2  A    between atoms: C_2  and  C_3
REMARK    3  A    between atoms: C_2  and  N_4
REMARK    4  A    between atoms: C_11  and  C_12
REMARK    5  A    between atoms: N_14  and  C_15
REMARK    6  A    between atoms: C_15  and  C_16
REMARK    7  A    between atoms: C_15  and  C_27
REMARK    8  A    between atoms: C_19  and  C_20
REMARK                            x       y       z     vdW  Elec       q    Type
REMARK                         _______ _______ _______ _____ _____    ______ ____
ROOT
ATOM      1  C   UNL     1       1.467   7.642  20.700  0.00  0.00    +0.000 C 
ATOM      2  O   UNL     1       1.528   7.210  21.846  0.00  0.00    +0.000 OA
ATOM      3  N   UNL     1       1.841   6.915  19.597  0.00  0.00    +0.000 N 
ATOM      4  H   UNL     1       1.754   7.308  18.674  0.00  0.00    +0.000 HD
ENDROOT
BRANCH   1  12
ATOM      5  N   UNL     1      -2.393  11.937  16.531  0.00  0.00    +0.000 N 
ATOM      6  C   UNL     1      -1.568  11.789  17.639  0.00  0.00    +0.000 A 
ATOM      7  N   UNL     1      -1.274  12.906  18.313  0.00  0.00    +0.000 NA
ATOM      8  C   UNL     1      -0.463  12.774  19.382  0.00  0.00    +0.000 A 
ATOM      9  C   UNL     1       0.064  11.565  19.810  0.00  0.00    +0.000 A 
ATOM     10  C   UNL     1       0.920  11.399  20.921  0.00  0.00    +0.000 A 
ATOM     11  C   UNL     1       1.390  10.123  21.250  0.00  0.00    +0.000 A 
ATOM     12  C   UNL     1       1.005   9.030  20.467  0.00  0.00    +0.000 A 
ATOM     13  C   UNL     1       0.159   9.223  19.368  0.00  0.00    +0.000 A 
ATOM     14  C   UNL     1      -0.318  10.473  19.035  0.00  0.00    +0.000 A 
ATOM     15  N   UNL     1      -1.123  10.577  17.978  0.00  0.00    +0.000 NA
ATOM     16  H   UNL     1      -2.838  12.842  16.646  0.00  0.00    +0.000 HD
BRANCH   5  18
ATOM     17  C   UNL     1      -4.710  11.230  16.573  0.00  0.00    +0.000 C 
ATOM     18  C   UNL     1      -3.279  10.819  16.230  0.00  0.00    +0.000 C 
ATOM     19  C   UNL     1      -3.205  10.448  14.745  0.00  0.00    +0.000 C 
ENDBRANCH   5  18
ENDBRANCH   1  12
BRANCH   3  20
ATOM     20  C   UNL     1       2.373   5.560  19.730  0.00  0.00    +0.000 C 
BRANCH  20  21
ATOM     21  C   UNL     1       3.669   5.401  18.936  0.00  0.00    +0.000 A 
ATOM     22  C   UNL     1       4.817   4.787  19.461  0.00  0.00    +0.000 A 
ATOM     23  C   UNL     1       5.958   4.594  18.674  0.00  0.00    +0.000 A 
ATOM     24  C   UNL     1       5.989   5.028  17.344  0.00  0.00    +0.000 A 
ATOM     25  C   UNL     1       4.859   5.653  16.826  0.00  0.00    +0.000 A 
ATOM     26  F   UNL     1       4.853   6.075  15.555  0.00  0.00    +0.000 F 
ATOM     27  C   UNL     1       3.715   5.844  17.602  0.00  0.00    +0.000 A 
BRANCH  24  28
ATOM     28  C   UNL     1       7.195   4.831  16.476  0.00  0.00    +0.000 C 
ATOM     29  F   UNL     1       6.937   4.054  15.384  0.00  0.00    +0.000 F 
ATOM     30  F   UNL     1       7.696   5.996  15.981  0.00  0.00    +0.000 F 
ATOM     31  F   UNL     1       8.222   4.213  17.123  0.00  0.00    +0.000 F 
ENDBRANCH  24  28
ENDBRANCH  20  21
BRANCH  20  32
ATOM     32  C   UNL     1       1.307   4.448  19.433  0.00  0.00    +0.000 C 
ATOM     33  C   UNL     1       1.897   3.222  18.732  0.00  0.00    +0.000 C 
ATOM     34  C   UNL     1       2.318   2.297  19.860  0.00  0.00    +0.000 C 
ATOM     35  C   UNL     1       1.432   2.689  21.034  0.00  0.00    +0.000 C 
ATOM     36  N   UNL     1       0.642   3.837  20.598  0.00  0.00    +0.000 NA
ATOM     37  H   UNL     1       0.469   4.506  21.342  0.00  0.00    +0.000 HD
ENDBRANCH  20  32
ENDBRANCH   3  20
TORSDOF 6
ENDMDL
MODEL 4
REMARK VINA RESULT:      -8.6      5.127     10.405
REMARK  Name = 
REMARK  8 active torsions:
REMARK  status: ('A' for Active; 'I' for Inactive)
REMARK    1  A    between atoms: C_1  and  C_2
REMARK    2  A    between atoms: C_2  and  C_3
REMARK    3  A    between atoms: C_2  and  N_4
REMARK    4  A    between atoms: C_11  and  C_12
REMARK    5  A    between atoms: N_14  and  C_15
REMARK    6  A    between atoms: C_15  and  C_16
REMARK    7  A    between atoms: C_15  and  C_27
REMARK    8  A    between atoms: C_19  and  C_20
REMARK                            x       y       z     vdW  Elec       q    Type
REMARK                         _______ _______ _______ _____ _____    ______ ____
ROOT
ATOM      1  C   UNL     1       1.435   7.949  20.371  0.00  0.00    +0.000 C 
ATOM      2  O   UNL     1       1.504   7.654  21.560  0.00  0.00    +0.000 OA
ATOM      3  N   UNL     1       1.815   7.102  19.360  0.00  0.00    +0.000 N 
ATOM      4  H   UNL     1       1.722   7.383  18.397  0.00  0.00    +0.000 HD
ENDROOT
BRANCH   1  12
ATOM      5  N   UNL     1      -2.794  13.415  22.091  0.00  0.00    +0.000 N 
ATOM      6  C   UNL     1      -1.886  12.854  21.202  0.00  0.00    +0.000 A 
ATOM      7  N   UNL     1      -1.602  13.572  20.110  0.00  0.00    +0.000 NA
ATOM      8  C   UNL     1      -0.731  13.030  19.235  0.00  0.00    +0.000 A 
ATOM      9  C   UNL     1      -0.125  11.795  19.411  0.00  0.00    +0.000 A 
ATOM     10  C   UNL     1       0.785  11.200  18.509  0.00  0.00    +0.000 A 
ATOM     11  C   UNL     1       1.326   9.943  18.799  0.00  0.00    +0.000 A 
ATOM     12  C   UNL     1       0.953   9.293  19.980  0.00  0.00    +0.000 A 
ATOM     13  C   UNL     1       0.045   9.903  20.855  0.00  0.00    +0.000 A 
ATOM     14  C   UNL     1      -0.492  11.144  20.587  0.00  0.00    +0.000 A 
ATOM     15  N   UNL     1      -1.346  11.662  21.469  0.00  0.00    +0.000 NA
ATOM     16  H   UNL     1      -2.826  14.402  21.854  0.00  0.00    +0.000 HD
BRANCH   5  18
ATOM     17  C   UNL     1      -1.937  14.296  24.179  0.00  0.00    +0.000 C 
ATOM     18  C   UNL     1      -2.601  13.098  23.500  0.00  0.00    +0.000 C 
ATOM     19  C   UNL     1      -3.943  12.813  24.184  0.00  0.00    +0.000 C 
ENDBRANCH   5  18
ENDBRANCH   1  12
BRANCH   3  20
ATOM     20  C   UNL     1       2.366   5.779  19.648  0.00  0.00    +0.000 C 
BRANCH  20  21
ATOM     21  C   UNL     1       3.677   5.556  18.894  0.00  0.00    +0.000 A 
ATOM     22  C   UNL     1       4.829   5.033  19.503  0.00  0.00    +0.000 A 
ATOM     23  C   UNL     1       5.985   4.774  18.757  0.00  0.00    +0.000 A 
ATOM     24  C   UNL     1       6.026   5.047  17.385  0.00  0.00    +0.000 A 
ATOM     25  C   UNL     1       4.891   5.582  16.784  0.00  0.00    +0.000 A 
ATOM     26  F   UNL     1       4.895   5.850  15.471  0.00  0.00    +0.000 F 
ATOM     27  C   UNL     1       3.733   5.838  17.518  0.00  0.00    +0.000 A 
BRANCH  24  28
ATOM     28  C   UNL     1       7.248   4.775  16.562  0.00  0.00    +0.000 C 
ATOM     29  F   UNL     1       8.253   4.200  17.285  0.00  0.00    +0.000 F 
ATOM     30  F   UNL     1       7.017   3.925  15.523  0.00  0.00    +0.000 F 
ATOM     31  F   UNL     1       7.791   5.902  16.024  0.00  0.00    +0.000 F 
ENDBRANCH  24  28
ENDBRANCH  20  21
BRANCH  20  32
ATOM     32  C   UNL     1       1.322   4.623  19.462  0.00  0.00    +0.000 C 
ATOM     33  C   UNL     1       1.937   3.345  18.888  0.00  0.00    +0.000 C 
ATOM     34  C   UNL     1       2.369   2.545  20.104  0.00  0.00    +0.000 C 
ATOM     35  C   UNL     1       1.471   3.036  21.230  0.00  0.00    +0.000 C 
ATOM     36  N   UNL     1       0.662   4.120  20.680  0.00  0.00    +0.000 NA
ATOM     37  H   UNL     1       0.474   4.857  21.352  0.00  0.00    +0.000 HD
ENDBRANCH  20  32
ENDBRANCH   3  20
TORSDOF 6
ENDMDL
MODEL 5
REMARK VINA RESULT:      -8.6      2.684      3.775
REMARK  Name = 
REMARK  8 active torsions:
REMARK  status: ('A' for Active; 'I' for Inactive)
REMARK    1  A    between atoms: C_1  and  C_2
REMARK    2  A    between atoms: C_2  and  C_3
REMARK    3  A    between atoms: C_2  and  N_4
REMARK    4  A    between atoms: C_11  and  C_12
REMARK    5  A    between atoms: N_14  and  C_15
REMARK    6  A    between atoms: C_15  and  C_16
REMARK    7  A    between atoms: C_15  and  C_27
REMARK    8  A    between atoms: C_19  and  C_20
REMARK                            x       y       z     vdW  Elec       q    Type
REMARK                         _______ _______ _______ _____ _____    ______ ____
ROOT
ATOM      1  C   UNL     1       1.440   9.292  19.024  0.00  0.00    +0.000 C 
ATOM      2  O   UNL     1       1.784   9.814  17.968  0.00  0.00    +0.000 OA
ATOM      3  N   UNL     1       0.678   9.931  19.969  0.00  0.00    +0.000 N 
ATOM      4  H   UNL     1       0.405   9.453  20.812  0.00  0.00    +0.000 HD
ENDROOT
BRANCH   1  12
ATOM      5  N   UNL     1       5.072   3.618  16.712  0.00  0.00    +0.000 N 
ATOM      6  C   UNL     1       4.304   4.208  17.709  0.00  0.00    +0.000 A 
ATOM      7  N   UNL     1       4.041   3.453  18.781  0.00  0.00    +0.000 NA
ATOM      8  C   UNL     1       3.286   4.012  19.747  0.00  0.00    +0.000 A 
ATOM      9  C   UNL     1       2.785   5.305  19.688  0.00  0.00    +0.000 A 
ATOM     10  C   UNL     1       1.987   5.914  20.681  0.00  0.00    +0.000 A 
ATOM     11  C   UNL     1       1.538   7.226  20.502  0.00  0.00    +0.000 A 
ATOM     12  C   UNL     1       1.886   7.915  19.335  0.00  0.00    +0.000 A 
ATOM     13  C   UNL     1       2.675   7.286  18.364  0.00  0.00    +0.000 A 
ATOM     14  C   UNL     1       3.131   5.995  18.528  0.00  0.00    +0.000 A 
ATOM     15  N   UNL     1       3.880   5.466  17.563  0.00  0.00    +0.000 NA
ATOM     16  H   UNL     1       5.519   2.822  17.154  0.00  0.00    +0.000 HD
BRANCH   5  18
ATOM     17  C   UNL     1       7.284   4.607  16.686  0.00  0.00    +0.000 C 
ATOM     18  C   UNL     1       5.945   4.507  15.955  0.00  0.00    +0.000 C 
ATOM     19  C   UNL     1       6.183   3.966  14.542  0.00  0.00    +0.000 C 
ENDBRANCH   5  18
ENDBRANCH   1  12
BRANCH   3  20
ATOM     20  C   UNL     1       0.244  11.315  19.783  0.00  0.00    +0.000 C 
BRANCH  20  21
ATOM     21  C   UNL     1      -1.228  11.377  19.377  0.00  0.00    +0.000 A 
ATOM     22  C   UNL     1      -2.150  12.249  19.978  0.00  0.00    +0.000 A 
ATOM     23  C   UNL     1      -3.472  12.327  19.524  0.00  0.00    +0.000 A 
ATOM     24  C   UNL     1      -3.912  11.522  18.467  0.00  0.00    +0.000 A 
ATOM     25  C   UNL     1      -3.005  10.645  17.882  0.00  0.00    +0.000 A 
ATOM     26  F   UNL     1      -3.392   9.864  16.864  0.00  0.00    +0.000 F 
ATOM     27  C   UNL     1      -1.684  10.564  18.325  0.00  0.00    +0.000 A 
BRANCH  24  28
ATOM     28  C   UNL     1      -5.320  11.588  17.957  0.00  0.00    +0.000 C 
ATOM     29  F   UNL     1      -6.066  12.538  18.593  0.00  0.00    +0.000 F 
ATOM     30  F   UNL     1      -5.397  11.895  16.633  0.00  0.00    +0.000 F 
ATOM     31  F   UNL     1      -6.003  10.422  18.123  0.00  0.00    +0.000 F 
ENDBRANCH  24  28
ENDBRANCH  20  21
BRANCH  20  32
ATOM     32  C   UNL     1       1.196  12.137  18.846  0.00  0.00    +0.000 C 
ATOM     33  C   UNL     1       0.544  13.406  18.292  0.00  0.00    +0.000 C 
ATOM     34  C   UNL     1       0.871  14.484  19.310  0.00  0.00    +0.000 C 
ATOM     35  C   UNL     1       2.138  13.996  19.998  0.00  0.00    +0.000 C 
ATOM     36  N   UNL     1       2.428  12.673  19.455  0.00  0.00    +0.000 NA
ATOM     37  H   UNL     1       2.829  12.040  20.140  0.00  0.00    +0.000 HD
ENDBRANCH  20  32
ENDBRANCH   3  20
TORSDOF 6
ENDMDL
MODEL 6
REMARK VINA RESULT:      -8.5      0.528      1.280
REMARK  Name = 
REMARK  8 active torsions:
REMARK  status: ('A' for Active; 'I' for Inactive)
REMARK    1  A    between atoms: C_1  and  C_2
REMARK    2  A    between atoms: C_2  and  C_3
REMARK    3  A    between atoms: C_2  and  N_4
REMARK    4  A    between atoms: C_11  and  C_12
REMARK    5  A    between atoms: N_14  and  C_15
REMARK    6  A    between atoms: C_15  and  C_16
REMARK    7  A    between atoms: C_15  and  C_27
REMARK    8  A    between atoms: C_19  and  C_20
REMARK                            x       y       z     vdW  Elec       q    Type
REMARK                         _______ _______ _______ _____ _____    ______ ____
ROOT
ATOM      1  C   UNL     1       1.387   9.684  18.580  0.00  0.00    +0.000 C 
ATOM      2  O   UNL     1       2.183  10.409  17.992  0.00  0.00    +0.000 OA
ATOM      3  N   UNL     1       0.099  10.058  18.873  0.00  0.00    +0.000 N 
ATOM      4  H   UNL     1      -0.523   9.420  19.341  0.00  0.00    +0.000 HD
ENDROOT
BRANCH   1  12
ATOM      5  N   UNL     1       4.993   3.772  16.915  0.00  0.00    +0.000 N 
ATOM      6  C   UNL     1       4.224   4.471  17.838  0.00  0.00    +0.000 A 
ATOM      7  N   UNL     1       3.950   3.837  18.983  0.00  0.00    +0.000 NA
ATOM      8  C   UNL     1       3.192   4.502  19.879  0.00  0.00    +0.000 A 
ATOM      9  C   UNL     1       2.701   5.783  19.678  0.00  0.00    +0.000 A 
ATOM     10  C   UNL     1       1.901   6.501  20.595  0.00  0.00    +0.000 A 
ATOM     11  C   UNL     1       1.462   7.789  20.273  0.00  0.00    +0.000 A 
ATOM     12  C   UNL     1       1.822   8.346  19.041  0.00  0.00    +0.000 A 
ATOM     13  C   UNL     1       2.612   7.611  18.148  0.00  0.00    +0.000 A 
ATOM     14  C   UNL     1       3.058   6.343  18.453  0.00  0.00    +0.000 A 
ATOM     15  N   UNL     1       3.809   5.708  17.555  0.00  0.00    +0.000 NA
ATOM     16  H   UNL     1       5.432   3.025  17.444  0.00  0.00    +0.000 HD
BRANCH   5  18
ATOM     17  C   UNL     1       7.241   4.661  16.755  0.00  0.00    +0.000 C 
ATOM     18  C   UNL     1       5.876   4.570  16.073  0.00  0.00    +0.000 C 
ATOM     19  C   UNL     1       6.045   3.924  14.694  0.00  0.00    +0.000 C 
ENDBRANCH   5  18
ENDBRANCH   1  12
BRANCH   3  20
ATOM     20  C   UNL     1      -0.403  11.385  18.518  0.00  0.00    +0.000 C 
BRANCH  20  21
ATOM     21  C   UNL     1      -0.871  12.142  19.760  0.00  0.00    +0.000 A 
ATOM     22  C   UNL     1      -1.300  11.497  20.932  0.00  0.00    +0.000 A 
ATOM     23  C   UNL     1      -1.648  12.230  22.073  0.00  0.00    +0.000 A 
ATOM     24  C   UNL     1      -1.593  13.628  22.067  0.00  0.00    +0.000 A 
ATOM     25  C   UNL     1      -1.185  14.270  20.903  0.00  0.00    +0.000 A 
ATOM     26  F   UNL     1      -1.116  15.607  20.866  0.00  0.00    +0.000 F 
ATOM     27  C   UNL     1      -0.831  13.547  19.763  0.00  0.00    +0.000 A 
BRANCH  24  28
ATOM     28  C   UNL     1      -1.955  14.437  23.276  0.00  0.00    +0.000 C 
ATOM     29  F   UNL     1      -2.828  15.448  22.992  0.00  0.00    +0.000 F 
ATOM     30  F   UNL     1      -2.556  13.704  24.253  0.00  0.00    +0.000 F 
ATOM     31  F   UNL     1      -0.881  15.042  23.854  0.00  0.00    +0.000 F 
ENDBRANCH  24  28
ENDBRANCH  20  21
BRANCH  20  32
ATOM     32  C   UNL     1      -1.457  11.354  17.358  0.00  0.00    +0.000 C 
ATOM     33  C   UNL     1      -1.913   9.938  16.997  0.00  0.00    +0.000 C 
ATOM     34  C   UNL     1      -3.116   9.682  17.887  0.00  0.00    +0.000 C 
ATOM     35  C   UNL     1      -3.662  11.065  18.208  0.00  0.00    +0.000 C 
ATOM     36  N   UNL     1      -2.744  12.029  17.610  0.00  0.00    +0.000 NA
ATOM     37  H   UNL     1      -2.636  12.874  18.163  0.00  0.00    +0.000 HD
ENDBRANCH  20  32
ENDBRANCH   3  20
TORSDOF 6
ENDMDL
MODEL 7
REMARK VINA RESULT:      -8.4      3.288      5.018
REMARK  Name = 
REMARK  8 active torsions:
REMARK  status: ('A' for Active; 'I' for Inactive)
REMARK    1  A    between atoms: C_1  and  C_2
REMARK    2  A    between atoms: C_2  and  C_3
REMARK    3  A    between atoms: C_2  and  N_4
REMARK    4  A    between atoms: C_11  and  C_12
REMARK    5  A    between atoms: N_14  and  C_15
REMARK    6  A    between atoms: C_15  and  C_16
REMARK    7  A    between atoms: C_15  and  C_27
REMARK    8  A    between atoms: C_19  and  C_20
REMARK                            x       y       z     vdW  Elec       q    Type
REMARK                         _______ _______ _______ _____ _____    ______ ____
ROOT
ATOM      1  C   UNL     1       0.245  10.850  20.216  0.00  0.00    +0.000 C 
ATOM      2  O   UNL     1       0.266  10.836  21.443  0.00  0.00    +0.000 OA
ATOM      3  N   UNL     1      -0.540  11.707  19.485  0.00  0.00    +0.000 N 
ATOM      4  H   UNL     1      -0.508  11.693  18.478  0.00  0.00    +0.000 HD
ENDROOT
BRANCH   1  12
ATOM      5  N   UNL     1       3.044   4.302  20.146  0.00  0.00    +0.000 N 
ATOM      6  C   UNL     1       2.888   5.531  19.516  0.00  0.00    +0.000 A 
ATOM      7  N   UNL     1       3.526   5.687  18.351  0.00  0.00    +0.000 NA
ATOM      8  C   UNL     1       3.392   6.881  17.739  0.00  0.00    +0.000 A 
ATOM      9  C   UNL     1       2.636   7.928  18.244  0.00  0.00    +0.000 A 
ATOM     10  C   UNL     1       2.482   9.190  17.629  0.00  0.00    +0.000 A 
ATOM     11  C   UNL     1       1.694  10.169  18.242  0.00  0.00    +0.000 A 
ATOM     12  C   UNL     1       1.072   9.882  19.461  0.00  0.00    +0.000 A 
ATOM     13  C   UNL     1       1.244   8.624  20.053  0.00  0.00    +0.000 A 
ATOM     14  C   UNL     1       2.013   7.646  19.457  0.00  0.00    +0.000 A 
ATOM     15  N   UNL     1       2.126   6.472  20.078  0.00  0.00    +0.000 NA
ATOM     16  H   UNL     1       3.384   3.673  19.425  0.00  0.00    +0.000 HD
BRANCH   5  18
ATOM     17  C   UNL     1       0.829   3.335  19.970  0.00  0.00    +0.000 C 
ATOM     18  C   UNL     1       1.911   3.829  20.931  0.00  0.00    +0.000 C 
ATOM     19  C   UNL     1       2.329   2.677  21.852  0.00  0.00    +0.000 C 
ENDBRANCH   5  18
ENDBRANCH   1  12
BRANCH   3  20
ATOM     20  C   UNL     1      -1.440  12.654  20.139  0.00  0.00    +0.000 C 
BRANCH  20  21
ATOM     21  C   UNL     1      -2.896  12.366  19.775  0.00  0.00    +0.000 A 
ATOM     22  C   UNL     1      -3.978  12.767  20.575  0.00  0.00    +0.000 A 
ATOM     23  C   UNL     1      -5.299  12.550  20.166  0.00  0.00    +0.000 A 
ATOM     24  C   UNL     1      -5.574  11.910  18.952  0.00  0.00    +0.000 A 
ATOM     25  C   UNL     1      -4.504  11.496  18.166  0.00  0.00    +0.000 A 
ATOM     26  F   UNL     1      -4.732  10.885  16.996  0.00  0.00    +0.000 F 
ATOM     27  C   UNL     1      -3.184  11.714  18.564  0.00  0.00    +0.000 A 
BRANCH  24  28
ATOM     28  C   UNL     1      -6.978  11.669  18.487  0.00  0.00    +0.000 C 
ATOM     29  F   UNL     1      -7.912  12.129  19.370  0.00  0.00    +0.000 F 
ATOM     30  F   UNL     1      -7.264  12.281  17.306  0.00  0.00    +0.000 F 
ATOM     31  F   UNL     1      -7.264  10.348  18.316  0.00  0.00    +0.000 F 
ENDBRANCH  24  28
ENDBRANCH  20  21
BRANCH  20  32
ATOM     32  C   UNL     1      -1.017  14.150  19.931  0.00  0.00    +0.000 C 
ATOM     33  C   UNL     1      -1.491  15.071  21.058  0.00  0.00    +0.000 C 
ATOM     34  C   UNL     1      -0.359  15.056  22.070  0.00  0.00    +0.000 C 
ATOM     35  C   UNL     1       0.880  14.700  21.260  0.00  0.00    +0.000 C 
ATOM     36  N   UNL     1       0.429  14.434  19.898  0.00  0.00    +0.000 NA
ATOM     37  H   UNL     1       0.958  13.699  19.439  0.00  0.00    +0.000 HD
ENDBRANCH  20  32
ENDBRANCH   3  20
TORSDOF 6
ENDMDL
MODEL 8
REMARK VINA RESULT:      -8.3      2.988      4.068
REMARK  Name = 
REMARK  8 active torsions:
REMARK  status: ('A' for Active; 'I' for Inactive)
REMARK    1  A    between atoms: C_1  and  C_2
REMARK    2  A    between atoms: C_2  and  C_3
REMARK    3  A    between atoms: C_2  and  N_4
REMARK    4  A    between atoms: C_11  and  C_12
REMARK    5  A    between atoms: N_14  and  C_15
REMARK    6  A    between atoms: C_15  and  C_16
REMARK    7  A    between atoms: C_15  and  C_27
REMARK    8  A    between atoms: C_19  and  C_20
REMARK                            x       y       z     vdW  Elec       q    Type
REMARK                         _______ _______ _______ _____ _____    ______ ____
ROOT
ATOM      1  C   UNL     1       0.641  10.381  20.304  0.00  0.00    +0.000 C 
ATOM      2  O   UNL     1       1.090  11.192  21.107  0.00  0.00    +0.000 OA
ATOM      3  N   UNL     1      -0.308  10.696  19.363  0.00  0.00    +0.000 N 
ATOM      4  H   UNL     1      -0.631   9.999  18.712  0.00  0.00    +0.000 HD
ENDROOT
BRANCH   1  12
ATOM      5  N   UNL     1       4.335   5.283  16.973  0.00  0.00    +0.000 N 
ATOM      6  C   UNL     1       3.561   5.667  18.062  0.00  0.00    +0.000 A 
ATOM      7  N   UNL     1       3.306   4.721  18.972  0.00  0.00    +0.000 NA
ATOM      8  C   UNL     1       2.544   5.080  20.025  0.00  0.00    +0.000 A 
ATOM      9  C   UNL     1       2.029   6.355  20.209  0.00  0.00    +0.000 A 
ATOM     10  C   UNL     1       1.225   6.757  21.297  0.00  0.00    +0.000 A 
ATOM     11  C   UNL     1       0.761   8.075  21.367  0.00  0.00    +0.000 A 
ATOM     12  C   UNL     1       1.102   8.975  20.352  0.00  0.00    +0.000 A 
ATOM     13  C   UNL     1       1.898   8.549  19.281  0.00  0.00    +0.000 A 
ATOM     14  C   UNL     1       2.367   7.255  19.200  0.00  0.00    +0.000 A 
ATOM     15  N   UNL     1       3.123   6.925  18.154  0.00  0.00    +0.000 NA
ATOM     16  H   UNL     1       4.791   4.422  17.259  0.00  0.00    +0.000 HD
BRANCH   5  18
ATOM     17  C   UNL     1       6.468   6.400  17.245  0.00  0.00    +0.000 C 
ATOM     18  C   UNL     1       5.198   6.308  16.400  0.00  0.00    +0.000 C 
ATOM     19  C   UNL     1       5.578   5.957  14.957  0.00  0.00    +0.000 C 
ENDBRANCH   5  18
ENDBRANCH   1  12
BRANCH   3  20
ATOM     20  C   UNL     1      -0.873  12.042  19.280  0.00  0.00    +0.000 C 
BRANCH  20  21
ATOM     21  C   UNL     1      -2.387  11.986  19.076  0.00  0.00    +0.000 A 
ATOM     22  C   UNL     1      -3.302  12.529  19.992  0.00  0.00    +0.000 A 
ATOM     23  C   UNL     1      -4.677  12.524  19.729  0.00  0.00    +0.000 A 
ATOM     24  C   UNL     1      -5.176  11.960  18.549  0.00  0.00    +0.000 A 
ATOM     25  C   UNL     1      -4.273  11.406  17.648  0.00  0.00    +0.000 A 
ATOM     26  F   UNL     1      -4.716  10.863  16.507  0.00  0.00    +0.000 F 
ATOM     27  C   UNL     1      -2.900  11.412  17.900  0.00  0.00    +0.000 A 
BRANCH  24  28
ATOM     28  C   UNL     1      -6.642  11.945  18.239  0.00  0.00    +0.000 C 
ATOM     29  F   UNL     1      -7.148  10.681  18.145  0.00  0.00    +0.000 F 
ATOM     30  F   UNL     1      -7.397  12.567  19.186  0.00  0.00    +0.000 F 
ATOM     31  F   UNL     1      -6.942  12.542  17.053  0.00  0.00    +0.000 F 
ENDBRANCH  24  28
ENDBRANCH  20  21
BRANCH  20  32
ATOM     32  C   UNL     1      -0.127  12.962  18.252  0.00  0.00    +0.000 C 
ATOM     33  C   UNL     1      -0.188  14.446  18.620  0.00  0.00    +0.000 C 
ATOM     34  C   UNL     1       1.039  14.680  19.482  0.00  0.00    +0.000 C 
ATOM     35  C   UNL     1       2.019  13.594  19.065  0.00  0.00    +0.000 C 
ATOM     36  N   UNL     1       1.324  12.748  18.100  0.00  0.00    +0.000 NA
ATOM     37  H   UNL     1       1.581  11.769  18.169  0.00  0.00    +0.000 HD
ENDBRANCH  20  32
ENDBRANCH   3  20
TORSDOF 6
ENDMDL
MODEL 9
REMARK VINA RESULT:      -8.3      2.823      3.882
REMARK  Name = 
REMARK  8 active torsions:
REMARK  status: ('A' for Active; 'I' for Inactive)
REMARK    1  A    between atoms: C_1  and  C_2
REMARK    2  A    between atoms: C_2  and  C_3
REMARK    3  A    between atoms: C_2  and  N_4
REMARK    4  A    between atoms: C_11  and  C_12
REMARK    5  A    between atoms: N_14  and  C_15
REMARK    6  A    between atoms: C_15  and  C_16
REMARK    7  A    between atoms: C_15  and  C_27
REMARK    8  A    between atoms: C_19  and  C_20
REMARK                            x       y       z     vdW  Elec       q    Type
REMARK                         _______ _______ _______ _____ _____    ______ ____
ROOT
ATOM      1  C   UNL     1       1.368   8.710  20.520  0.00  0.00    +0.000 C 
ATOM      2  O   UNL     1       1.414   9.126  21.673  0.00  0.00    +0.000 OA
ATOM      3  N   UNL     1       0.972   9.480  19.455  0.00  0.00    +0.000 N 
ATOM      4  H   UNL     1       0.969   9.098  18.523  0.00  0.00    +0.000 HD
ENDROOT
BRANCH   1  12
ATOM      5  N   UNL     1       4.880   4.269  16.200  0.00  0.00    +0.000 N 
ATOM      6  C   UNL     1       4.068   4.443  17.314  0.00  0.00    +0.000 A 
ATOM      7  N   UNL     1       3.685   3.331  17.950  0.00  0.00    +0.000 NA
ATOM      8  C   UNL     1       2.886   3.489  19.024  0.00  0.00    +0.000 A 
ATOM      9  C   UNL     1       2.456   4.722  19.494  0.00  0.00    +0.000 A 
ATOM     10  C   UNL     1       1.615   4.917  20.611  0.00  0.00    +0.000 A 
ATOM     11  C   UNL     1       1.247   6.214  20.984  0.00  0.00    +0.000 A 
ATOM     12  C   UNL     1       1.719   7.299  20.239  0.00  0.00    +0.000 A 
ATOM     13  C   UNL     1       2.549   7.078  19.133  0.00  0.00    +0.000 A 
ATOM     14  C   UNL     1       2.925   5.806  18.756  0.00  0.00    +0.000 A 
ATOM     15  N   UNL     1       3.720   5.674  17.695  0.00  0.00    +0.000 NA
ATOM     16  H   UNL     1       5.252   3.328  16.284  0.00  0.00    +0.000 HD
BRANCH   5  18
ATOM     17  C   UNL     1       6.940   5.256  17.009  0.00  0.00    +0.000 C 
ATOM     18  C   UNL     1       5.852   5.322  15.937  0.00  0.00    +0.000 C 
ATOM     19  C   UNL     1       6.495   5.140  14.557  0.00  0.00    +0.000 C 
ENDBRANCH   5  18
ENDBRANCH   1  12
BRANCH   3  20
ATOM     20  C   UNL     1       0.543  10.865  19.640  0.00  0.00    +0.000 C 
BRANCH  20  21
ATOM     21  C   UNL     1      -0.921  11.043  19.234  0.00  0.00    +0.000 A 
ATOM     22  C   UNL     1      -1.793  11.927  19.889  0.00  0.00    +0.000 A 
ATOM     23  C   UNL     1      -3.104  12.115  19.437  0.00  0.00    +0.000 A 
ATOM     24  C   UNL     1      -3.584  11.410  18.327  0.00  0.00    +0.000 A 
ATOM     25  C   UNL     1      -2.728  10.521  17.688  0.00  0.00    +0.000 A 
ATOM     26  F   UNL     1      -3.154   9.834  16.619  0.00  0.00    +0.000 F 
ATOM     27  C   UNL     1      -1.417  10.331  18.129  0.00  0.00    +0.000 A 
BRANCH  24  28
ATOM     28  C   UNL     1      -4.981  11.596  17.818  0.00  0.00    +0.000 C 
ATOM     29  F   UNL     1      -5.024  11.855  16.478  0.00  0.00    +0.000 F 
ATOM     30  F   UNL     1      -5.769  10.500  18.000  0.00  0.00    +0.000 F 
ATOM     31  F   UNL     1      -5.630  12.638  18.407  0.00  0.00    +0.000 F 
ENDBRANCH  24  28
ENDBRANCH  20  21
BRANCH  20  32
ATOM     32  C   UNL     1       1.515  11.904  18.981  0.00  0.00    +0.000 C 
ATOM     33  C   UNL     1       0.783  13.044  18.269  0.00  0.00    +0.000 C 
ATOM     34  C   UNL     1       0.610  14.115  19.332  0.00  0.00    +0.000 C 
ATOM     35  C   UNL     1       1.729  13.855  20.330  0.00  0.00    +0.000 C 
ATOM     36  N   UNL     1       2.412  12.643  19.888  0.00  0.00    +0.000 NA
ATOM     37  H   UNL     1       2.744  12.069  20.658  0.00  0.00    +0.000 HD
ENDBRANCH  20  32
ENDBRANCH   3  20
TORSDOF 6
ENDMDL
