MODEL 1
REMARK VINA RESULT:      -5.9      0.000      0.000
REMARK  Name = 
REMARK  10 active torsions:
REMARK  status: ('A' for Active; 'I' for Inactive)
REMARK    1  A    between atoms: C_1  and  C_2
REMARK    2  A    between atoms: C_2  and  O_3
REMARK    3  A    between atoms: O_3  and  C_4
REMARK    4  A    between atoms: N_12  and  C_13
REMARK    5  A    between atoms: C_13  and  C_14
REMARK    6  A    between atoms: C_19  and  C_20
REMARK    7  A    between atoms: N_22  and  C_23
REMARK    8  A    between atoms: N_22  and  C_25
REMARK    9  A    between atoms: C_23  and  C_24
REMARK   10  A    between atoms: C_25  and  C_26
REMARK                            x       y       z     vdW  Elec       q    Type
REMARK                         _______ _______ _______ _____ _____    ______ ____
ROOT
ATOM      1  C   UNL     1      -3.458  11.479  17.596  0.00  0.00    +0.000 A 
ATOM      2  C   UNL     1      -4.840  11.473  17.425  0.00  0.00    +0.000 A 
ATOM      3  C   UNL     1      -5.697  11.879  18.453  0.00  0.00    +0.000 A 
ATOM      4  C   UNL     1      -5.139  12.296  19.669  0.00  0.00    +0.000 A 
ATOM      5  C   UNL     1      -3.749  12.319  19.876  0.00  0.00    +0.000 A 
ATOM      6  C   UNL     1      -2.911  11.904  18.818  0.00  0.00    +0.000 A 
ATOM      7  C   UNL     1      -3.528  12.789  21.205  0.00  0.00    +0.000 A 
ATOM      8  C   UNL     1      -4.774  13.029  21.766  0.00  0.00    +0.000 A 
ATOM      9  N   UNL     1      -5.737  12.722  20.841  0.00  0.00    +0.000 N 
ATOM     10  C   UNL     1      -5.032  13.548  23.140  0.00  0.00    +0.000 C 
ATOM     11  C   UNL     1      -3.766  13.419  23.985  0.00  0.00    +0.000 C 
ATOM     12  C   UNL     1      -2.532  13.905  23.210  0.00  0.00    +0.000 C 
ATOM     13  C   UNL     1      -2.223  13.027  21.964  0.00  0.00    +0.000 C 
ENDROOT
BRANCH  13  14
ATOM     14  C   UNL     1      -1.511  11.705  22.354  0.00  0.00    +0.000 C 
ATOM     15  O   UNL     1      -1.852  11.079  23.364  0.00  0.00    +0.000 OA
ATOM     16  N   UNL     1      -0.462  11.214  21.542  0.00  0.00    +0.000 N 
BRANCH  16  17
ATOM     17  C   UNL     1       0.163  11.979  20.452  0.00  0.00    +0.000 C 
ATOM     18  C   UNL     1       1.294  12.925  20.833  0.00  0.00    +0.000 C 
ENDBRANCH  16  17
BRANCH  16  19
ATOM     19  C   UNL     1       0.294  10.086  22.107  0.00  0.00    +0.000 C 
ATOM     20  C   UNL     1       0.082   8.797  21.322  0.00  0.00    +0.000 C 
ENDBRANCH  16  19
ENDBRANCH  13  14
BRANCH   1  21
ATOM     21  O   UNL     1      -2.539  11.097  16.651  0.00  0.00    +0.000 OA
BRANCH  21  23
ATOM     22  C   UNL     1      -3.073  10.095  14.541  0.00  0.00    +0.000 C 
ATOM     23  C   UNL     1      -2.764   9.843  16.006  0.00  0.00    +0.000 C 
ENDBRANCH  21  23
ENDBRANCH   1  21
BRANCH   9  24
ATOM     24  C   UNL     1      -7.171  12.814  21.062  0.00  0.00    +0.000 C 
BRANCH  24  25
ATOM     25  C   UNL     1      -7.746  11.570  21.706  0.00  0.00    +0.000 C 
ATOM     26  F   UNL     1      -7.512  10.507  20.886  0.00  0.00    +0.000 F 
ENDBRANCH  24  25
ENDBRANCH   9  24
TORSDOF 7
ENDMDL
MODEL 2
REMARK VINA RESULT:      -5.8      2.602      5.658
REMARK  Name = 
REMARK  10 active torsions:
REMARK  status: ('A' for Active; 'I' for Inactive)
REMARK    1  A    between atoms: C_1  and  C_2
REMARK    2  A    between atoms: C_2  and  O_3
REMARK    3  A    between atoms: O_3  and  C_4
REMARK    4  A    between atoms: N_12  and  C_13
REMARK    5  A    between atoms: C_13  and  C_14
REMARK    6  A    between atoms: C_19  and  C_20
REMARK    7  A    between atoms: N_22  and  C_23
REMARK    8  A    between atoms: N_22  and  C_25
REMARK    9  A    between atoms: C_23  and  C_24
REMARK   10  A    between atoms: C_25  and  C_26
REMARK                            x       y       z     vdW  Elec       q    Type
REMARK                         _______ _______ _______ _____ _____    ______ ____
ROOT
ATOM      1  C   UNL     1      -0.310  12.030  20.544  0.00  0.00    +0.000 A 
ATOM      2  C   UNL     1       0.106  11.117  19.578  0.00  0.00    +0.000 A 
ATOM      3  C   UNL     1      -0.777  10.647  18.600  0.00  0.00    +0.000 A 
ATOM      4  C   UNL     1      -2.099  11.113  18.608  0.00  0.00    +0.000 A 
ATOM      5  C   UNL     1      -2.553  12.037  19.565  0.00  0.00    +0.000 A 
ATOM      6  C   UNL     1      -1.637  12.492  20.538  0.00  0.00    +0.000 A 
ATOM      7  C   UNL     1      -3.929  12.292  19.287  0.00  0.00    +0.000 A 
ATOM      8  C   UNL     1      -4.273  11.520  18.187  0.00  0.00    +0.000 A 
ATOM      9  N   UNL     1      -3.171  10.808  17.789  0.00  0.00    +0.000 N 
ATOM     10  C   UNL     1      -5.610  11.477  17.528  0.00  0.00    +0.000 C 
ATOM     11  C   UNL     1      -6.658  12.098  18.452  0.00  0.00    +0.000 C 
ATOM     12  C   UNL     1      -6.152  13.416  19.055  0.00  0.00    +0.000 C 
ATOM     13  C   UNL     1      -4.924  13.215  19.989  0.00  0.00    +0.000 C 
ENDROOT
BRANCH  13  14
ATOM     14  C   UNL     1      -5.344  12.687  21.386  0.00  0.00    +0.000 C 
ATOM     15  O   UNL     1      -6.125  11.734  21.492  0.00  0.00    +0.000 OA
ATOM     16  N   UNL     1      -4.825  13.304  22.549  0.00  0.00    +0.000 N 
BRANCH  16  17
ATOM     17  C   UNL     1      -4.070  14.566  22.543  0.00  0.00    +0.000 C 
ATOM     18  C   UNL     1      -4.850  15.838  22.846  0.00  0.00    +0.000 C 
ENDBRANCH  16  17
BRANCH  16  19
ATOM     19  C   UNL     1      -5.447  12.884  23.813  0.00  0.00    +0.000 C 
ATOM     20  C   UNL     1      -4.420  12.404  24.831  0.00  0.00    +0.000 C 
ENDBRANCH  16  19
ENDBRANCH  13  14
BRANCH   1  21
ATOM     21  O   UNL     1       0.478  12.545  21.542  0.00  0.00    +0.000 OA
BRANCH  21  23
ATOM     22  C   UNL     1       0.774  14.876  22.009  0.00  0.00    +0.000 C 
ATOM     23  C   UNL     1       1.272  13.685  21.210  0.00  0.00    +0.000 C 
ENDBRANCH  21  23
ENDBRANCH   1  21
BRANCH   9  24
ATOM     24  C   UNL     1      -3.138   9.863  16.686  0.00  0.00    +0.000 C 
BRANCH  24  25
ATOM     25  C   UNL     1      -2.844  10.524  15.356  0.00  0.00    +0.000 C 
ATOM     26  F   UNL     1      -3.840  10.206  14.482  0.00  0.00    +0.000 F 
ENDBRANCH  24  25
ENDBRANCH   9  24
TORSDOF 7
ENDMDL
MODEL 3
REMARK VINA RESULT:      -5.7      2.154      5.419
REMARK  Name = 
REMARK  10 active torsions:
REMARK  status: ('A' for Active; 'I' for Inactive)
REMARK    1  A    between atoms: C_1  and  C_2
REMARK    2  A    between atoms: C_2  and  O_3
REMARK    3  A    between atoms: O_3  and  C_4
REMARK    4  A    between atoms: N_12  and  C_13
REMARK    5  A    between atoms: C_13  and  C_14
REMARK    6  A    between atoms: C_19  and  C_20
REMARK    7  A    between atoms: N_22  and  C_23
REMARK    8  A    between atoms: N_22  and  C_25
REMARK    9  A    between atoms: C_23  and  C_24
REMARK   10  A    between atoms: C_25  and  C_26
REMARK                            x       y       z     vdW  Elec       q    Type
REMARK                         _______ _______ _______ _____ _____    ______ ____
ROOT
ATOM      1  C   UNL     1      -3.902  13.182  22.125  0.00  0.00    +0.000 A 
ATOM      2  C   UNL     1      -5.205  13.559  21.811  0.00  0.00    +0.000 A 
ATOM      3  C   UNL     1      -5.755  13.281  20.556  0.00  0.00    +0.000 A 
ATOM      4  C   UNL     1      -4.967  12.610  19.610  0.00  0.00    +0.000 A 
ATOM      5  C   UNL     1      -3.650  12.211  19.893  0.00  0.00    +0.000 A 
ATOM      6  C   UNL     1      -3.124  12.507  21.170  0.00  0.00    +0.000 A 
ATOM      7  C   UNL     1      -3.145  11.564  18.726  0.00  0.00    +0.000 A 
ATOM      8  C   UNL     1      -4.153  11.594  17.773  0.00  0.00    +0.000 A 
ATOM      9  N   UNL     1      -5.242  12.231  18.308  0.00  0.00    +0.000 N 
ATOM     10  C   UNL     1      -4.080  11.017  16.400  0.00  0.00    +0.000 C 
ATOM     11  C   UNL     1      -2.623  10.729  16.040  0.00  0.00    +0.000 C 
ATOM     12  C   UNL     1      -1.896  10.029  17.196  0.00  0.00    +0.000 C 
ATOM     13  C   UNL     1      -1.782  10.923  18.463  0.00  0.00    +0.000 C 
ENDROOT
BRANCH  13  14
ATOM     14  C   UNL     1      -0.646  11.972  18.327  0.00  0.00    +0.000 C 
ATOM     15  O   UNL     1      -0.877  13.097  17.869  0.00  0.00    +0.000 OA
ATOM     16  N   UNL     1       0.665  11.633  18.734  0.00  0.00    +0.000 N 
BRANCH  16  17
ATOM     17  C   UNL     1       1.092  10.270  19.086  0.00  0.00    +0.000 C 
ATOM     18  C   UNL     1       1.746   9.446  17.986  0.00  0.00    +0.000 C 
ENDBRANCH  16  17
BRANCH  16  19
ATOM     19  C   UNL     1       1.707  12.602  18.364  0.00  0.00    +0.000 C 
ATOM     20  C   UNL     1       2.304  13.302  19.579  0.00  0.00    +0.000 C 
ENDBRANCH  16  19
ENDBRANCH  13  14
BRANCH   1  21
ATOM     21  O   UNL     1      -3.275  13.413  23.323  0.00  0.00    +0.000 OA
BRANCH  21  23
ATOM     22  C   UNL     1      -3.079  14.999  25.110  0.00  0.00    +0.000 C 
ATOM     23  C   UNL     1      -2.928  14.767  23.617  0.00  0.00    +0.000 C 
ENDBRANCH  21  23
ENDBRANCH   1  21
BRANCH   9  24
ATOM     24  C   UNL     1      -6.491  12.486  17.609  0.00  0.00    +0.000 C 
BRANCH  24  25
ATOM     25  C   UNL     1      -6.493  13.810  16.876  0.00  0.00    +0.000 C 
ATOM     26  F   UNL     1      -6.717  14.807  17.779  0.00  0.00    +0.000 F 
ENDBRANCH  24  25
ENDBRANCH   9  24
TORSDOF 7
ENDMDL
MODEL 4
REMARK VINA RESULT:      -5.7      1.060      1.209
REMARK  Name = 
REMARK  10 active torsions:
REMARK  status: ('A' for Active; 'I' for Inactive)
REMARK    1  A    between atoms: C_1  and  C_2
REMARK    2  A    between atoms: C_2  and  O_3
REMARK    3  A    between atoms: O_3  and  C_4
REMARK    4  A    between atoms: N_12  and  C_13
REMARK    5  A    between atoms: C_13  and  C_14
REMARK    6  A    between atoms: C_19  and  C_20
REMARK    7  A    between atoms: N_22  and  C_23
REMARK    8  A    between atoms: N_22  and  C_25
REMARK    9  A    between atoms: C_23  and  C_24
REMARK   10  A    between atoms: C_25  and  C_26
REMARK                            x       y       z     vdW  Elec       q    Type
REMARK                         _______ _______ _______ _____ _____    ______ ____
ROOT
ATOM      1  C   UNL     1      -3.633  11.159  17.912  0.00  0.00    +0.000 A 
ATOM      2  C   UNL     1      -4.982  11.500  17.976  0.00  0.00    +0.000 A 
ATOM      3  C   UNL     1      -5.485  12.266  19.032  0.00  0.00    +0.000 A 
ATOM      4  C   UNL     1      -4.602  12.689  20.036  0.00  0.00    +0.000 A 
ATOM      5  C   UNL     1      -3.235  12.368  20.003  0.00  0.00    +0.000 A 
ATOM      6  C   UNL     1      -2.759  11.594  18.922  0.00  0.00    +0.000 A 
ATOM      7  C   UNL     1      -2.637  12.948  21.161  0.00  0.00    +0.000 A 
ATOM      8  C   UNL     1      -3.645  13.592  21.863  0.00  0.00    +0.000 A 
ATOM      9  N   UNL     1      -4.825  13.425  21.186  0.00  0.00    +0.000 N 
ATOM     10  C   UNL     1      -3.481  14.355  23.133  0.00  0.00    +0.000 C 
ATOM     11  C   UNL     1      -2.133  14.014  23.767  0.00  0.00    +0.000 C 
ATOM     12  C   UNL     1      -1.010  14.033  22.721  0.00  0.00    +0.000 C 
ATOM     13  C   UNL     1      -1.184  12.933  21.634  0.00  0.00    +0.000 C 
ENDROOT
BRANCH  13  14
ATOM     14  C   UNL     1      -0.738  11.539  22.150  0.00  0.00    +0.000 C 
ATOM     15  O   UNL     1      -1.283  11.028  23.136  0.00  0.00    +0.000 OA
ATOM     16  N   UNL     1       0.300  10.849  21.482  0.00  0.00    +0.000 N 
BRANCH  16  17
ATOM     17  C   UNL     1       1.154  11.450  20.446  0.00  0.00    +0.000 C 
ATOM     18  C   UNL     1       0.828  11.105  18.999  0.00  0.00    +0.000 C 
ENDBRANCH  16  17
BRANCH  16  19
ATOM     19  C   UNL     1       0.800   9.649  22.170  0.00  0.00    +0.000 C 
ATOM     20  C   UNL     1       0.352   8.363  21.486  0.00  0.00    +0.000 C 
ENDBRANCH  16  19
ENDBRANCH  13  14
BRANCH   1  21
ATOM     21  O   UNL     1      -3.048  10.412  16.921  0.00  0.00    +0.000 OA
BRANCH  21  23
ATOM     22  C   UNL     1      -3.222  10.077  14.555  0.00  0.00    +0.000 C 
ATOM     23  C   UNL     1      -2.860  11.054  15.659  0.00  0.00    +0.000 C 
ENDBRANCH  21  23
ENDBRANCH   1  21
BRANCH   9  24
ATOM     24  C   UNL     1      -6.118  13.930  21.618  0.00  0.00    +0.000 C 
BRANCH  24  25
ATOM     25  C   UNL     1      -6.839  12.977  22.547  0.00  0.00    +0.000 C 
ATOM     26  F   UNL     1      -7.255  11.898  21.827  0.00  0.00    +0.000 F 
ENDBRANCH  24  25
ENDBRANCH   9  24
TORSDOF 7
ENDMDL
MODEL 5
REMARK VINA RESULT:      -5.7      2.684      5.886
REMARK  Name = 
REMARK  10 active torsions:
REMARK  status: ('A' for Active; 'I' for Inactive)
REMARK    1  A    between atoms: C_1  and  C_2
REMARK    2  A    between atoms: C_2  and  O_3
REMARK    3  A    between atoms: O_3  and  C_4
REMARK    4  A    between atoms: N_12  and  C_13
REMARK    5  A    between atoms: C_13  and  C_14
REMARK    6  A    between atoms: C_19  and  C_20
REMARK    7  A    between atoms: N_22  and  C_23
REMARK    8  A    between atoms: N_22  and  C_25
REMARK    9  A    between atoms: C_23  and  C_24
REMARK   10  A    between atoms: C_25  and  C_26
REMARK                            x       y       z     vdW  Elec       q    Type
REMARK                         _______ _______ _______ _____ _____    ______ ____
ROOT
ATOM      1  C   UNL     1      -1.020  11.579  20.405  0.00  0.00    +0.000 A 
ATOM      2  C   UNL     1      -0.703  10.763  19.322  0.00  0.00    +0.000 A 
ATOM      3  C   UNL     1      -1.619  10.543  18.289  0.00  0.00    +0.000 A 
ATOM      4  C   UNL     1      -2.875  11.163  18.361  0.00  0.00    +0.000 A 
ATOM      5  C   UNL     1      -3.228  11.997  19.436  0.00  0.00    +0.000 A 
ATOM      6  C   UNL     1      -2.280  12.198  20.462  0.00  0.00    +0.000 A 
ATOM      7  C   UNL     1      -4.557  12.455  19.194  0.00  0.00    +0.000 A 
ATOM      8  C   UNL     1      -4.975  11.889  17.998  0.00  0.00    +0.000 A 
ATOM      9  N   UNL     1      -3.962  11.107  17.507  0.00  0.00    +0.000 N 
ATOM     10  C   UNL     1      -6.295  12.102  17.340  0.00  0.00    +0.000 C 
ATOM     11  C   UNL     1      -7.275  12.716  18.340  0.00  0.00    +0.000 C 
ATOM     12  C   UNL     1      -6.622  13.866  19.119  0.00  0.00    +0.000 C 
ATOM     13  C   UNL     1      -5.444  13.390  20.017  0.00  0.00    +0.000 C 
ENDROOT
BRANCH  13  14
ATOM     14  C   UNL     1      -5.950  12.732  21.328  0.00  0.00    +0.000 C 
ATOM     15  O   UNL     1      -6.519  11.635  21.305  0.00  0.00    +0.000 OA
ATOM     16  N   UNL     1      -5.754  13.397  22.561  0.00  0.00    +0.000 N 
BRANCH  16  17
ATOM     17  C   UNL     1      -5.289  14.788  22.681  0.00  0.00    +0.000 C 
ATOM     18  C   UNL     1      -6.315  15.883  22.425  0.00  0.00    +0.000 C 
ENDBRANCH  16  17
BRANCH  16  19
ATOM     19  C   UNL     1      -6.457  12.809  23.710  0.00  0.00    +0.000 C 
ATOM     20  C   UNL     1      -7.911  13.257  23.789  0.00  0.00    +0.000 C 
ENDBRANCH  16  19
ENDBRANCH  13  14
BRANCH   1  21
ATOM     21  O   UNL     1      -0.192  11.852  21.464  0.00  0.00    +0.000 OA
BRANCH  21  23
ATOM     22  C   UNL     1      -0.702  10.134  23.055  0.00  0.00    +0.000 C 
ATOM     23  C   UNL     1      -0.724  11.625  22.770  0.00  0.00    +0.000 C 
ENDBRANCH  21  23
ENDBRANCH   1  21
BRANCH   9  24
ATOM     24  C   UNL     1      -4.025  10.325  16.284  0.00  0.00    +0.000 C 
BRANCH  24  25
ATOM     25  C   UNL     1      -3.205  10.924  15.161  0.00  0.00    +0.000 C 
ATOM     26  F   UNL     1      -2.697   9.911  14.404  0.00  0.00    +0.000 F 
ENDBRANCH  24  25
ENDBRANCH   9  24
TORSDOF 7
ENDMDL
MODEL 6
REMARK VINA RESULT:      -5.7      0.947      1.034
REMARK  Name = 
REMARK  10 active torsions:
REMARK  status: ('A' for Active; 'I' for Inactive)
REMARK    1  A    between atoms: C_1  and  C_2
REMARK    2  A    between atoms: C_2  and  O_3
REMARK    3  A    between atoms: O_3  and  C_4
REMARK    4  A    between atoms: N_12  and  C_13
REMARK    5  A    between atoms: C_13  and  C_14
REMARK    6  A    between atoms: C_19  and  C_20
REMARK    7  A    between atoms: N_22  and  C_23
REMARK    8  A    between atoms: N_22  and  C_25
REMARK    9  A    between atoms: C_23  and  C_24
REMARK   10  A    between atoms: C_25  and  C_26
REMARK                            x       y       z     vdW  Elec       q    Type
REMARK                         _______ _______ _______ _____ _____    ______ ____
ROOT
ATOM      1  C   UNL     1      -3.406  11.501  17.595  0.00  0.00    +0.000 A 
ATOM      2  C   UNL     1      -4.794  11.471  17.492  0.00  0.00    +0.000 A 
ATOM      3  C   UNL     1      -5.607  11.826  18.573  0.00  0.00    +0.000 A 
ATOM      4  C   UNL     1      -4.998  12.217  19.773  0.00  0.00    +0.000 A 
ATOM      5  C   UNL     1      -3.600  12.263  19.913  0.00  0.00    +0.000 A 
ATOM      6  C   UNL     1      -2.808  11.898  18.803  0.00  0.00    +0.000 A 
ATOM      7  C   UNL     1      -3.323  12.695  21.244  0.00  0.00    +0.000 A 
ATOM      8  C   UNL     1      -4.544  12.891  21.873  0.00  0.00    +0.000 A 
ATOM      9  N   UNL     1      -5.546  12.593  20.986  0.00  0.00    +0.000 N 
ATOM     10  C   UNL     1      -4.745  13.361  23.274  0.00  0.00    +0.000 C 
ATOM     11  C   UNL     1      -3.436  13.232  24.052  0.00  0.00    +0.000 C 
ATOM     12  C   UNL     1      -2.252  13.767  23.234  0.00  0.00    +0.000 C 
ATOM     13  C   UNL     1      -1.987  12.936  21.947  0.00  0.00    +0.000 C 
ENDROOT
BRANCH  13  14
ATOM     14  C   UNL     1      -1.231  11.617  22.259  0.00  0.00    +0.000 C 
ATOM     15  O   UNL     1      -1.541  10.928  23.238  0.00  0.00    +0.000 OA
ATOM     16  N   UNL     1      -0.178  11.201  21.411  0.00  0.00    +0.000 N 
BRANCH  16  17
ATOM     17  C   UNL     1       0.410  12.042  20.357  0.00  0.00    +0.000 C 
ATOM     18  C   UNL     1       1.548  12.968  20.767  0.00  0.00    +0.000 C 
ENDBRANCH  16  17
BRANCH  16  19
ATOM     19  C   UNL     1       0.617  10.069  21.907  0.00  0.00    +0.000 C 
ATOM     20  C   UNL     1       0.315   8.778  21.157  0.00  0.00    +0.000 C 
ENDBRANCH  16  19
ENDBRANCH  13  14
BRANCH   1  21
ATOM     21  O   UNL     1      -2.527  11.168  16.596  0.00  0.00    +0.000 OA
BRANCH  21  23
ATOM     22  C   UNL     1      -3.027  10.128  14.496  0.00  0.00    +0.000 C 
ATOM     23  C   UNL     1      -2.721   9.901  15.966  0.00  0.00    +0.000 C 
ENDBRANCH  21  23
ENDBRANCH   1  21
BRANCH   9  24
ATOM     24  C   UNL     1      -6.969  12.649  21.279  0.00  0.00    +0.000 C 
BRANCH  24  25
ATOM     25  C   UNL     1      -7.613  13.938  20.817  0.00  0.00    +0.000 C 
ATOM     26  F   UNL     1      -6.632  14.857  20.587  0.00  0.00    +0.000 F 
ENDBRANCH  24  25
ENDBRANCH   9  24
TORSDOF 7
ENDMDL
MODEL 7
REMARK VINA RESULT:      -5.6      2.558      5.440
REMARK  Name = 
REMARK  10 active torsions:
REMARK  status: ('A' for Active; 'I' for Inactive)
REMARK    1  A    between atoms: C_1  and  C_2
REMARK    2  A    between atoms: C_2  and  O_3
REMARK    3  A    between atoms: O_3  and  C_4
REMARK    4  A    between atoms: N_12  and  C_13
REMARK    5  A    between atoms: C_13  and  C_14
REMARK    6  A    between atoms: C_19  and  C_20
REMARK    7  A    between atoms: N_22  and  C_23
REMARK    8  A    between atoms: N_22  and  C_25
REMARK    9  A    between atoms: C_23  and  C_24
REMARK   10  A    between atoms: C_25  and  C_26
REMARK                            x       y       z     vdW  Elec       q    Type
REMARK                         _______ _______ _______ _____ _____    ______ ____
ROOT
ATOM      1  C   UNL     1      -0.583  11.183  20.219  0.00  0.00    +0.000 A 
ATOM      2  C   UNL     1      -0.383  10.286  19.173  0.00  0.00    +0.000 A 
ATOM      3  C   UNL     1      -1.372  10.068  18.209  0.00  0.00    +0.000 A 
ATOM      4  C   UNL     1      -2.579  10.773  18.313  0.00  0.00    +0.000 A 
ATOM      5  C   UNL     1      -2.815  11.688  19.353  0.00  0.00    +0.000 A 
ATOM      6  C   UNL     1      -1.796  11.886  20.309  0.00  0.00    +0.000 A 
ATOM      7  C   UNL     1      -4.125  12.219  19.159  0.00  0.00    +0.000 A 
ATOM      8  C   UNL     1      -4.648  11.614  18.025  0.00  0.00    +0.000 A 
ATOM      9  N   UNL     1      -3.717  10.740  17.527  0.00  0.00    +0.000 N 
ATOM     10  C   UNL     1      -5.990  11.875  17.431  0.00  0.00    +0.000 C 
ATOM     11  C   UNL     1      -6.868  12.609  18.444  0.00  0.00    +0.000 C 
ATOM     12  C   UNL     1      -6.098  13.757  19.113  0.00  0.00    +0.000 C 
ATOM     13  C   UNL     1      -4.900  13.256  19.971  0.00  0.00    +0.000 C 
ENDROOT
BRANCH  13  14
ATOM     14  C   UNL     1      -5.366  12.710  21.346  0.00  0.00    +0.000 C 
ATOM     15  O   UNL     1      -6.061  11.690  21.418  0.00  0.00    +0.000 OA
ATOM     16  N   UNL     1      -4.989  13.388  22.529  0.00  0.00    +0.000 N 
BRANCH  16  17
ATOM     17  C   UNL     1      -4.355  14.716  22.549  0.00  0.00    +0.000 C 
ATOM     18  C   UNL     1      -2.835  14.753  22.637  0.00  0.00    +0.000 C 
ENDBRANCH  16  17
BRANCH  16  19
ATOM     19  C   UNL     1      -5.656  12.929  23.756  0.00  0.00    +0.000 C 
ATOM     20  C   UNL     1      -4.674  12.349  24.765  0.00  0.00    +0.000 C 
ENDBRANCH  16  19
ENDBRANCH  13  14
BRANCH   1  21
ATOM     21  O   UNL     1       0.323  11.461  21.212  0.00  0.00    +0.000 OA
BRANCH  21  23
ATOM     22  C   UNL     1      -0.147   9.875  22.946  0.00  0.00    +0.000 C 
ATOM     23  C   UNL     1       0.866  10.344  21.917  0.00  0.00    +0.000 C 
ENDBRANCH  21  23
ENDBRANCH   1  21
BRANCH   9  24
ATOM     24  C   UNL     1      -3.903   9.894  16.360  0.00  0.00    +0.000 C 
BRANCH  24  25
ATOM     25  C   UNL     1      -2.991  10.270  15.212  0.00  0.00    +0.000 C 
ATOM     26  F   UNL     1      -2.792  11.618  15.238  0.00  0.00    +0.000 F 
ENDBRANCH  24  25
ENDBRANCH   9  24
TORSDOF 7
ENDMDL
MODEL 8
REMARK VINA RESULT:      -5.6     10.650     13.683
REMARK  Name = 
REMARK  10 active torsions:
REMARK  status: ('A' for Active; 'I' for Inactive)
REMARK    1  A    between atoms: C_1  and  C_2
REMARK    2  A    between atoms: C_2  and  O_3
REMARK    3  A    between atoms: O_3  and  C_4
REMARK    4  A    between atoms: N_12  and  C_13
REMARK    5  A    between atoms: C_13  and  C_14
REMARK    6  A    between atoms: C_19  and  C_20
REMARK    7  A    between atoms: N_22  and  C_23
REMARK    8  A    between atoms: N_22  and  C_25
REMARK    9  A    between atoms: C_23  and  C_24
REMARK   10  A    between atoms: C_25  and  C_26
REMARK                            x       y       z     vdW  Elec       q    Type
REMARK                         _______ _______ _______ _____ _____    ______ ____
ROOT
ATOM      1  C   UNL     1       9.628  10.766  18.850  0.00  0.00    +0.000 A 
ATOM      2  C   UNL     1      10.391  11.153  17.751  0.00  0.00    +0.000 A 
ATOM      3  C   UNL     1      10.974  12.422  17.687  0.00  0.00    +0.000 A 
ATOM      4  C   UNL     1      10.776  13.308  18.756  0.00  0.00    +0.000 A 
ATOM      5  C   UNL     1      10.016  12.951  19.882  0.00  0.00    +0.000 A 
ATOM      6  C   UNL     1       9.442  11.662  19.917  0.00  0.00    +0.000 A 
ATOM      7  C   UNL     1      10.019  14.071  20.766  0.00  0.00    +0.000 A 
ATOM      8  C   UNL     1      10.765  15.070  20.157  0.00  0.00    +0.000 A 
ATOM      9  N   UNL     1      11.210  14.607  18.946  0.00  0.00    +0.000 N 
ATOM     10  C   UNL     1      11.055  16.418  20.724  0.00  0.00    +0.000 C 
ATOM     11  C   UNL     1      10.106  16.701  21.888  0.00  0.00    +0.000 C 
ATOM     12  C   UNL     1      10.006  15.489  22.827  0.00  0.00    +0.000 C 
ATOM     13  C   UNL     1       9.369  14.248  22.138  0.00  0.00    +0.000 C 
ENDROOT
BRANCH  13  14
ATOM     14  C   UNL     1       7.824  14.366  22.055  0.00  0.00    +0.000 C 
ATOM     15  O   UNL     1       7.294  15.187  21.298  0.00  0.00    +0.000 OA
ATOM     16  N   UNL     1       7.019  13.523  22.855  0.00  0.00    +0.000 N 
BRANCH  16  17
ATOM     17  C   UNL     1       7.538  12.671  23.937  0.00  0.00    +0.000 C 
ATOM     18  C   UNL     1       6.629  11.555  24.433  0.00  0.00    +0.000 C 
ENDBRANCH  16  17
BRANCH  16  19
ATOM     19  C   UNL     1       5.587  13.857  22.875  0.00  0.00    +0.000 C 
ATOM     20  C   UNL     1       5.250  14.893  23.940  0.00  0.00    +0.000 C 
ENDBRANCH  16  19
ENDBRANCH  13  14
BRANCH   1  21
ATOM     21  O   UNL     1       9.015   9.548  19.003  0.00  0.00    +0.000 OA
BRANCH  21  23
ATOM     22  C   UNL     1       7.952   7.633  18.030  0.00  0.00    +0.000 C 
ATOM     23  C   UNL     1       8.128   9.140  17.961  0.00  0.00    +0.000 C 
ENDBRANCH  21  23
ENDBRANCH   1  21
BRANCH   9  24
ATOM     24  C   UNL     1      12.003  15.372  17.997  0.00  0.00    +0.000 C 
BRANCH  24  25
ATOM     25  C   UNL     1      11.158  16.052  16.941  0.00  0.00    +0.000 C 
ATOM     26  F   UNL     1      11.096  17.383  17.223  0.00  0.00    +0.000 F 
ENDBRANCH  24  25
ENDBRANCH   9  24
TORSDOF 7
ENDMDL
MODEL 9
REMARK VINA RESULT:      -5.5      1.495      1.797
REMARK  Name = 
REMARK  10 active torsions:
REMARK  status: ('A' for Active; 'I' for Inactive)
REMARK    1  A    between atoms: C_1  and  C_2
REMARK    2  A    between atoms: C_2  and  O_3
REMARK    3  A    between atoms: O_3  and  C_4
REMARK    4  A    between atoms: N_12  and  C_13
REMARK    5  A    between atoms: C_13  and  C_14
REMARK    6  A    between atoms: C_19  and  C_20
REMARK    7  A    between atoms: N_22  and  C_23
REMARK    8  A    between atoms: N_22  and  C_25
REMARK    9  A    between atoms: C_23  and  C_24
REMARK   10  A    between atoms: C_25  and  C_26
REMARK                            x       y       z     vdW  Elec       q    Type
REMARK                         _______ _______ _______ _____ _____    ______ ____
ROOT
ATOM      1  C   UNL     1      -4.305  11.464  18.523  0.00  0.00    +0.000 A 
ATOM      2  C   UNL     1      -5.608  11.747  18.925  0.00  0.00    +0.000 A 
ATOM      3  C   UNL     1      -5.862  12.474  20.092  0.00  0.00    +0.000 A 
ATOM      4  C   UNL     1      -4.776  12.918  20.858  0.00  0.00    +0.000 A 
ATOM      5  C   UNL     1      -3.448  12.655  20.482  0.00  0.00    +0.000 A 
ATOM      6  C   UNL     1      -3.225  11.920  19.298  0.00  0.00    +0.000 A 
ATOM      7  C   UNL     1      -2.604  13.243  21.471  0.00  0.00    +0.000 A 
ATOM      8  C   UNL     1      -3.432  13.832  22.416  0.00  0.00    +0.000 A 
ATOM      9  N   UNL     1      -4.735  13.626  22.046  0.00  0.00    +0.000 N 
ATOM     10  C   UNL     1      -2.988  14.582  23.626  0.00  0.00    +0.000 C 
ATOM     11  C   UNL     1      -1.513  14.288  23.900  0.00  0.00    +0.000 C 
ATOM     12  C   UNL     1      -0.684  14.371  22.610  0.00  0.00    +0.000 C 
ATOM     13  C   UNL     1      -1.080  13.282  21.572  0.00  0.00    +0.000 C 
ENDROOT
BRANCH  13  14
ATOM     14  C   UNL     1      -0.470  11.900  21.927  0.00  0.00    +0.000 C 
ATOM     15  O   UNL     1      -0.508  11.473  23.086  0.00  0.00    +0.000 OA
ATOM     16  N   UNL     1       0.135  11.125  20.910  0.00  0.00    +0.000 N 
BRANCH  16  17
ATOM     17  C   UNL     1       0.425  11.624  19.557  0.00  0.00    +0.000 C 
ATOM     18  C   UNL     1       1.735  12.376  19.366  0.00  0.00    +0.000 C 
ENDBRANCH  16  17
BRANCH  16  19
ATOM     19  C   UNL     1       0.875   9.944  21.378  0.00  0.00    +0.000 C 
ATOM     20  C   UNL     1       0.028   8.678  21.339  0.00  0.00    +0.000 C 
ENDBRANCH  16  19
ENDBRANCH  13  14
BRANCH   1  21
ATOM     21  O   UNL     1      -3.955  10.758  17.400  0.00  0.00    +0.000 OA
BRANCH  21  23
ATOM     22  C   UNL     1      -2.853  10.593  15.278  0.00  0.00    +0.000 C 
ATOM     23  C   UNL     1      -2.853  11.260  16.643  0.00  0.00    +0.000 C 
ENDBRANCH  21  23
ENDBRANCH   1  21
BRANCH   9  24
ATOM     24  C   UNL     1      -5.899  14.069  22.795  0.00  0.00    +0.000 C 
BRANCH  24  25
ATOM     25  C   UNL     1      -6.492  12.975  23.658  0.00  0.00    +0.000 C 
ATOM     26  F   UNL     1      -5.535  12.537  24.524  0.00  0.00    +0.000 F 
ENDBRANCH  24  25
ENDBRANCH   9  24
TORSDOF 7
ENDMDL
