MODEL 1
REMARK VINA RESULT:      -8.4      0.000      0.000
REMARK  Name = 
REMARK  10 active torsions:
REMARK  status: ('A' for Active; 'I' for Inactive)
REMARK    1  A    between atoms: C_1  and  O_2
REMARK    2  A    between atoms: O_2  and  C_3
REMARK    3  A    between atoms: C_4  and  C_5
REMARK    4  A    between atoms: C_4  and  C_9
REMARK    5  A    between atoms: C_5  and  O_7
REMARK    6  A    between atoms: O_7  and  C_8
REMARK    7  A    between atoms: C_14  and  C_15
REMARK    8  A    between atoms: C_15  and  O_16
REMARK    9  A    between atoms: O_16  and  C_17
REMARK   10  A    between atoms: N_20  and  C_21
REMARK                            x       y       z     vdW  Elec       q    Type
REMARK                         _______ _______ _______ _____ _____    ______ ____
ROOT
ATOM      1  C   UNL     1       2.401   6.384  19.730  0.00  0.00    +0.000 A 
ATOM      2  N   UNL     1       3.412   6.911  19.011  0.00  0.00    +0.000 NA
ATOM      3  C   UNL     1       4.150   6.035  18.310  0.00  0.00    +0.000 A 
ATOM      4  N   UNL     1       5.290   6.507  17.643  0.00  0.00    +0.000 N 
ATOM      5  N   UNL     1       3.894   4.717  18.255  0.00  0.00    +0.000 NA
ATOM      6  C   UNL     1       2.874   4.232  18.980  0.00  0.00    +0.000 A 
ATOM      7  C   UNL     1       2.107   5.037  19.794  0.00  0.00    +0.000 A 
ATOM      8  C   UNL     1       1.113   4.459  20.755  0.00  0.00    +0.000 C 
ATOM      9  C   UNL     1       0.588   3.098  20.303  0.00  0.00    +0.000 C 
ATOM     10  C   UNL     1       1.743   2.177  19.924  0.00  0.00    +0.000 C 
ATOM     11  C   UNL     1       2.562   2.775  18.785  0.00  0.00    +0.000 C 
ATOM     12  H   UNL     1       5.292   7.517  17.671  0.00  0.00    +0.000 HD
ENDROOT
BRANCH   4  13
ATOM     13  C   UNL     1       5.818   5.936  16.466  0.00  0.00    +0.000 A 
ATOM     14  C   UNL     1       5.063   5.970  15.281  0.00  0.00    +0.000 A 
ATOM     15  C   UNL     1       5.579   5.436  14.095  0.00  0.00    +0.000 A 
ATOM     16  C   UNL     1       6.837   4.839  14.093  0.00  0.00    +0.000 A 
ATOM     17  F   UNL     1       7.330   4.338  12.953  0.00  0.00    +0.000 F 
ATOM     18  C   UNL     1       7.582   4.746  15.257  0.00  0.00    +0.000 A 
ATOM     19  C   UNL     1       7.063   5.278  16.432  0.00  0.00    +0.000 A 
ATOM     20  F   UNL     1       7.780   5.126  17.557  0.00  0.00    +0.000 F 
ENDBRANCH   4  13
BRANCH   1  21
ATOM     21  O   UNL     1       1.643   7.201  20.557  0.00  0.00    +0.000 OA
BRANCH  21  22
ATOM     22  C   UNL     1       1.272   8.482  20.033  0.00  0.00    +0.000 C 
BRANCH  22  28
ATOM     23  C   UNL     1      -0.161  10.527  20.589  0.00  0.00    +0.000 A 
ATOM     24  C   UNL     1      -0.867  11.300  21.530  0.00  0.00    +0.000 A 
ATOM     25  C   UNL     1      -0.937  10.913  22.866  0.00  0.00    +0.000 A 
ATOM     26  C   UNL     1      -0.319   9.743  23.274  0.00  0.00    +0.000 A 
ATOM     27  C   UNL     1       0.375   8.960  22.355  0.00  0.00    +0.000 A 
ATOM     28  C   UNL     1       0.480   9.339  21.005  0.00  0.00    +0.000 A 
BRANCH  23  30
ATOM     29  C   UNL     1       0.877  11.773  18.747  0.00  0.00    +0.000 C 
ATOM     30  C   UNL     1      -0.149  11.029  19.199  0.00  0.00    +0.000 C 
BRANCH  29  32
ATOM     31  C   UNL     1       2.073  13.563  19.659  0.00  0.00    +0.000 C 
ATOM     32  O   UNL     1       1.929  12.151  19.542  0.00  0.00    +0.000 OA
ENDBRANCH  29  32
BRANCH  30  33
ATOM     33  C   UNL     1      -1.203  10.645  18.214  0.00  0.00    +0.000 C 
ATOM     34  O   UNL     1      -1.086   9.757  17.381  0.00  0.00    +0.000 OA
BRANCH  33  35
ATOM     35  O   UNL     1      -2.300  11.427  18.383  0.00  0.00    +0.000 OA
ATOM     36  C   UNL     1      -3.352  11.203  17.446  0.00  0.00    +0.000 C 
ENDBRANCH  33  35
ENDBRANCH  30  33
ENDBRANCH  23  30
ENDBRANCH  22  28
ENDBRANCH  21  22
ENDBRANCH   1  21
TORSDOF 8
ENDMDL
MODEL 2
REMARK VINA RESULT:      -8.4      0.898      2.089
REMARK  Name = 
REMARK  10 active torsions:
REMARK  status: ('A' for Active; 'I' for Inactive)
REMARK    1  A    between atoms: C_1  and  O_2
REMARK    2  A    between atoms: O_2  and  C_3
REMARK    3  A    between atoms: C_4  and  C_5
REMARK    4  A    between atoms: C_4  and  C_9
REMARK    5  A    between atoms: C_5  and  O_7
REMARK    6  A    between atoms: O_7  and  C_8
REMARK    7  A    between atoms: C_14  and  C_15
REMARK    8  A    between atoms: C_15  and  O_16
REMARK    9  A    between atoms: O_16  and  C_17
REMARK   10  A    between atoms: N_20  and  C_21
REMARK                            x       y       z     vdW  Elec       q    Type
REMARK                         _______ _______ _______ _____ _____    ______ ____
ROOT
ATOM      1  C   UNL     1       2.397   6.337  19.679  0.00  0.00    +0.000 A 
ATOM      2  N   UNL     1       3.141   6.858  18.684  0.00  0.00    +0.000 NA
ATOM      3  C   UNL     1       4.063   6.040  18.152  0.00  0.00    +0.000 A 
ATOM      4  N   UNL     1       4.950   6.564  17.200  0.00  0.00    +0.000 N 
ATOM      5  N   UNL     1       4.225   4.758  18.518  0.00  0.00    +0.000 NA
ATOM      6  C   UNL     1       3.460   4.274  19.509  0.00  0.00    +0.000 A 
ATOM      7  C   UNL     1       2.540   5.057  20.173  0.00  0.00    +0.000 A 
ATOM      8  C   UNL     1       1.846   4.571  21.409  0.00  0.00    +0.000 C 
ATOM      9  C   UNL     1       1.738   3.048  21.458  0.00  0.00    +0.000 C 
ATOM     10  C   UNL     1       3.093   2.406  21.174  0.00  0.00    +0.000 C 
ATOM     11  C   UNL     1       3.603   2.805  19.793  0.00  0.00    +0.000 C 
ATOM     12  H   UNL     1       4.640   7.489  16.936  0.00  0.00    +0.000 HD
ENDROOT
BRANCH   4  13
ATOM     13  C   UNL     1       5.545   5.811  16.165  0.00  0.00    +0.000 A 
ATOM     14  C   UNL     1       4.728   5.103  15.267  0.00  0.00    +0.000 A 
ATOM     15  C   UNL     1       5.294   4.374  14.215  0.00  0.00    +0.000 A 
ATOM     16  C   UNL     1       6.679   4.322  14.075  0.00  0.00    +0.000 A 
ATOM     17  F   UNL     1       7.216   3.630  13.062  0.00  0.00    +0.000 F 
ATOM     18  C   UNL     1       7.510   4.967  14.975  0.00  0.00    +0.000 A 
ATOM     19  C   UNL     1       6.940   5.690  16.017  0.00  0.00    +0.000 A 
ATOM     20  F   UNL     1       7.767   6.260  16.908  0.00  0.00    +0.000 F 
ENDBRANCH   4  13
BRANCH   1  21
ATOM     21  O   UNL     1       1.484   7.138  20.351  0.00  0.00    +0.000 OA
BRANCH  21  22
ATOM     22  C   UNL     1       1.534   8.543  20.075  0.00  0.00    +0.000 C 
BRANCH  22  28
ATOM     23  C   UNL     1       0.008  10.543  20.539  0.00  0.00    +0.000 A 
ATOM     24  C   UNL     1      -0.767  11.301  21.436  0.00  0.00    +0.000 A 
ATOM     25  C   UNL     1      -0.887  10.926  22.773  0.00  0.00    +0.000 A 
ATOM     26  C   UNL     1      -0.250   9.783  23.223  0.00  0.00    +0.000 A 
ATOM     27  C   UNL     1       0.513   9.015  22.347  0.00  0.00    +0.000 A 
ATOM     28  C   UNL     1       0.668   9.382  20.999  0.00  0.00    +0.000 A 
BRANCH  23  30
ATOM     29  C   UNL     1      -0.881  10.686  18.256  0.00  0.00    +0.000 C 
ATOM     30  C   UNL     1       0.068  11.030  19.145  0.00  0.00    +0.000 C 
BRANCH  29  32
ATOM     31  C   UNL     1      -2.905   9.756  17.543  0.00  0.00    +0.000 C 
ATOM     32  O   UNL     1      -1.914   9.835  18.562  0.00  0.00    +0.000 OA
ENDBRANCH  29  32
BRANCH  30  33
ATOM     33  C   UNL     1       1.106  12.005  18.695  0.00  0.00    +0.000 C 
ATOM     34  O   UNL     1       2.281  11.728  18.500  0.00  0.00    +0.000 OA
BRANCH  33  35
ATOM     35  O   UNL     1       0.549  13.234  18.541  0.00  0.00    +0.000 OA
ATOM     36  C   UNL     1       0.937  14.199  19.516  0.00  0.00    +0.000 C 
ENDBRANCH  33  35
ENDBRANCH  30  33
ENDBRANCH  23  30
ENDBRANCH  22  28
ENDBRANCH  21  22
ENDBRANCH   1  21
TORSDOF 8
ENDMDL
MODEL 3
REMARK VINA RESULT:      -8.2      4.015      8.579
REMARK  Name = 
REMARK  10 active torsions:
REMARK  status: ('A' for Active; 'I' for Inactive)
REMARK    1  A    between atoms: C_1  and  O_2
REMARK    2  A    between atoms: O_2  and  C_3
REMARK    3  A    between atoms: C_4  and  C_5
REMARK    4  A    between atoms: C_4  and  C_9
REMARK    5  A    between atoms: C_5  and  O_7
REMARK    6  A    between atoms: O_7  and  C_8
REMARK    7  A    between atoms: C_14  and  C_15
REMARK    8  A    between atoms: C_15  and  O_16
REMARK    9  A    between atoms: O_16  and  C_17
REMARK   10  A    between atoms: N_20  and  C_21
REMARK                            x       y       z     vdW  Elec       q    Type
REMARK                         _______ _______ _______ _____ _____    ______ ____
ROOT
ATOM      1  C   UNL     1       1.732   9.422  18.397  0.00  0.00    +0.000 A 
ATOM      2  N   UNL     1       2.189  10.488  17.710  0.00  0.00    +0.000 NA
ATOM      3  C   UNL     1       1.977  11.685  18.278  0.00  0.00    +0.000 A 
ATOM      4  N   UNL     1       2.318  12.837  17.554  0.00  0.00    +0.000 N 
ATOM      5  N   UNL     1       1.404  11.851  19.482  0.00  0.00    +0.000 NA
ATOM      6  C   UNL     1       0.968  10.765  20.138  0.00  0.00    +0.000 A 
ATOM      7  C   UNL     1       1.067   9.498  19.603  0.00  0.00    +0.000 A 
ATOM      8  C   UNL     1       0.392   8.323  20.244  0.00  0.00    +0.000 C 
ATOM      9  C   UNL     1       0.195   8.511  21.746  0.00  0.00    +0.000 C 
ATOM     10  C   UNL     1      -0.439   9.867  22.038  0.00  0.00    +0.000 C 
ATOM     11  C   UNL     1       0.446  11.000  21.527  0.00  0.00    +0.000 C 
ATOM     12  H   UNL     1       2.841  12.566  16.733  0.00  0.00    +0.000 HD
ENDROOT
BRANCH   4  13
ATOM     13  C   UNL     1       2.709  14.060  18.139  0.00  0.00    +0.000 A 
ATOM     14  C   UNL     1       1.726  14.963  18.579  0.00  0.00    +0.000 A 
ATOM     15  C   UNL     1       2.090  16.168  19.190  0.00  0.00    +0.000 A 
ATOM     16  C   UNL     1       3.436  16.493  19.333  0.00  0.00    +0.000 A 
ATOM     17  F   UNL     1       3.780  17.643  19.926  0.00  0.00    +0.000 F 
ATOM     18  C   UNL     1       4.427  15.647  18.862  0.00  0.00    +0.000 A 
ATOM     19  C   UNL     1       4.057  14.450  18.258  0.00  0.00    +0.000 A 
ATOM     20  F   UNL     1       5.032  13.674  17.760  0.00  0.00    +0.000 F 
ENDBRANCH   4  13
BRANCH   1  21
ATOM     21  O   UNL     1       1.824   8.153  17.843  0.00  0.00    +0.000 OA
BRANCH  21  22
ATOM     22  C   UNL     1       3.074   7.471  18.000  0.00  0.00    +0.000 C 
BRANCH  22  28
ATOM     23  C   UNL     1       4.019   5.176  17.381  0.00  0.00    +0.000 A 
ATOM     24  C   UNL     1       3.866   3.779  17.292  0.00  0.00    +0.000 A 
ATOM     25  C   UNL     1       2.689   3.160  17.707  0.00  0.00    +0.000 A 
ATOM     26  C   UNL     1       1.660   3.924  18.230  0.00  0.00    +0.000 A 
ATOM     27  C   UNL     1       1.798   5.306  18.335  0.00  0.00    +0.000 A 
ATOM     28  C   UNL     1       2.966   5.959  17.904  0.00  0.00    +0.000 A 
BRANCH  23  30
ATOM     29  C   UNL     1       6.337   5.885  17.764  0.00  0.00    +0.000 C 
ATOM     30  C   UNL     1       5.307   5.729  16.913  0.00  0.00    +0.000 C 
BRANCH  29  32
ATOM     31  C   UNL     1       7.506   5.572  19.764  0.00  0.00    +0.000 C 
ATOM     32  O   UNL     1       6.245   5.600  19.103  0.00  0.00    +0.000 OA
ENDBRANCH  29  32
BRANCH  30  33
ATOM     33  C   UNL     1       5.558   6.029  15.471  0.00  0.00    +0.000 C 
ATOM     34  O   UNL     1       5.080   6.977  14.865  0.00  0.00    +0.000 OA
BRANCH  33  35
ATOM     35  O   UNL     1       6.389   5.094  14.943  0.00  0.00    +0.000 OA
ATOM     36  C   UNL     1       5.783   4.212  13.999  0.00  0.00    +0.000 C 
ENDBRANCH  33  35
ENDBRANCH  30  33
ENDBRANCH  23  30
ENDBRANCH  22  28
ENDBRANCH  21  22
ENDBRANCH   1  21
TORSDOF 8
ENDMDL
MODEL 4
REMARK VINA RESULT:      -8.1      4.223      8.709
REMARK  Name = 
REMARK  10 active torsions:
REMARK  status: ('A' for Active; 'I' for Inactive)
REMARK    1  A    between atoms: C_1  and  O_2
REMARK    2  A    between atoms: O_2  and  C_3
REMARK    3  A    between atoms: C_4  and  C_5
REMARK    4  A    between atoms: C_4  and  C_9
REMARK    5  A    between atoms: C_5  and  O_7
REMARK    6  A    between atoms: O_7  and  C_8
REMARK    7  A    between atoms: C_14  and  C_15
REMARK    8  A    between atoms: C_15  and  O_16
REMARK    9  A    between atoms: O_16  and  C_17
REMARK   10  A    between atoms: N_20  and  C_21
REMARK                            x       y       z     vdW  Elec       q    Type
REMARK                         _______ _______ _______ _____ _____    ______ ____
ROOT
ATOM      1  C   UNL     1       1.819   9.320  18.334  0.00  0.00    +0.000 A 
ATOM      2  N   UNL     1       2.267  10.399  17.661  0.00  0.00    +0.000 NA
ATOM      3  C   UNL     1       2.041  11.586  18.244  0.00  0.00    +0.000 A 
ATOM      4  N   UNL     1       2.372  12.751  17.534  0.00  0.00    +0.000 N 
ATOM      5  N   UNL     1       1.463  11.731  19.448  0.00  0.00    +0.000 NA
ATOM      6  C   UNL     1       1.037  10.633  20.089  0.00  0.00    +0.000 A 
ATOM      7  C   UNL     1       1.150   9.373  19.539  0.00  0.00    +0.000 A 
ATOM      8  C   UNL     1       0.486   8.184  20.164  0.00  0.00    +0.000 C 
ATOM      9  C   UNL     1       0.283   8.351  21.668  0.00  0.00    +0.000 C 
ATOM     10  C   UNL     1      -0.365   9.697  21.975  0.00  0.00    +0.000 C 
ATOM     11  C   UNL     1       0.509  10.845  21.480  0.00  0.00    +0.000 C 
ATOM     12  H   UNL     1       2.899  12.495  16.711  0.00  0.00    +0.000 HD
ENDROOT
BRANCH   4  13
ATOM     13  C   UNL     1       2.748  13.971  18.135  0.00  0.00    +0.000 A 
ATOM     14  C   UNL     1       4.104  14.218  18.408  0.00  0.00    +0.000 A 
ATOM     15  C   UNL     1       4.505  15.433  18.976  0.00  0.00    +0.000 A 
ATOM     16  C   UNL     1       3.549  16.392  19.305  0.00  0.00    +0.000 A 
ATOM     17  F   UNL     1       3.938  17.556  19.840  0.00  0.00    +0.000 F 
ATOM     18  C   UNL     1       2.201  16.155  19.095  0.00  0.00    +0.000 A 
ATOM     19  C   UNL     1       1.812  14.946  18.530  0.00  0.00    +0.000 A 
ATOM     20  F   UNL     1       0.496  14.717  18.388  0.00  0.00    +0.000 F 
ENDBRANCH   4  13
BRANCH   1  21
ATOM     21  O   UNL     1       1.925   8.058  17.765  0.00  0.00    +0.000 OA
BRANCH  21  22
ATOM     22  C   UNL     1       3.159   7.360  17.973  0.00  0.00    +0.000 C 
BRANCH  22  28
ATOM     23  C   UNL     1       4.079   5.041  17.410  0.00  0.00    +0.000 A 
ATOM     24  C   UNL     1       3.906   3.645  17.344  0.00  0.00    +0.000 A 
ATOM     25  C   UNL     1       2.714   3.051  17.751  0.00  0.00    +0.000 A 
ATOM     26  C   UNL     1       1.689   3.839  18.244  0.00  0.00    +0.000 A 
ATOM     27  C   UNL     1       1.846   5.220  18.327  0.00  0.00    +0.000 A 
ATOM     28  C   UNL     1       3.030   5.849  17.902  0.00  0.00    +0.000 A 
BRANCH  23  30
ATOM     29  C   UNL     1       6.382   5.776  17.826  0.00  0.00    +0.000 C 
ATOM     30  C   UNL     1       5.382   5.566  16.952  0.00  0.00    +0.000 C 
BRANCH  29  32
ATOM     31  C   UNL     1       7.484   5.576  19.879  0.00  0.00    +0.000 C 
ATOM     32  O   UNL     1       6.246   5.574  19.176  0.00  0.00    +0.000 OA
ENDBRANCH  29  32
BRANCH  30  33
ATOM     33  C   UNL     1       5.681   5.776  15.504  0.00  0.00    +0.000 C 
ATOM     34  O   UNL     1       5.249   6.702  14.833  0.00  0.00    +0.000 OA
BRANCH  33  35
ATOM     35  O   UNL     1       6.499   4.790  15.054  0.00  0.00    +0.000 OA
ATOM     36  C   UNL     1       6.082   4.168  13.840  0.00  0.00    +0.000 C 
ENDBRANCH  33  35
ENDBRANCH  30  33
ENDBRANCH  23  30
ENDBRANCH  22  28
ENDBRANCH  21  22
ENDBRANCH   1  21
TORSDOF 8
ENDMDL
MODEL 5
REMARK VINA RESULT:      -8.1      0.616      2.106
REMARK  Name = 
REMARK  10 active torsions:
REMARK  status: ('A' for Active; 'I' for Inactive)
REMARK    1  A    between atoms: C_1  and  O_2
REMARK    2  A    between atoms: O_2  and  C_3
REMARK    3  A    between atoms: C_4  and  C_5
REMARK    4  A    between atoms: C_4  and  C_9
REMARK    5  A    between atoms: C_5  and  O_7
REMARK    6  A    between atoms: O_7  and  C_8
REMARK    7  A    between atoms: C_14  and  C_15
REMARK    8  A    between atoms: C_15  and  O_16
REMARK    9  A    between atoms: O_16  and  C_17
REMARK   10  A    between atoms: N_20  and  C_21
REMARK                            x       y       z     vdW  Elec       q    Type
REMARK                         _______ _______ _______ _____ _____    ______ ____
ROOT
ATOM      1  C   UNL     1       2.324   6.301  19.776  0.00  0.00    +0.000 A 
ATOM      2  N   UNL     1       3.324   6.853  19.061  0.00  0.00    +0.000 NA
ATOM      3  C   UNL     1       4.096   5.994  18.376  0.00  0.00    +0.000 A 
ATOM      4  N   UNL     1       5.227   6.495  17.714  0.00  0.00    +0.000 N 
ATOM      5  N   UNL     1       3.883   4.668  18.332  0.00  0.00    +0.000 NA
ATOM      6  C   UNL     1       2.873   4.158  19.053  0.00  0.00    +0.000 A 
ATOM      7  C   UNL     1       2.072   4.947  19.852  0.00  0.00    +0.000 A 
ATOM      8  C   UNL     1       1.089   4.346  20.810  0.00  0.00    +0.000 C 
ATOM      9  C   UNL     1       0.612   2.965  20.368  0.00  0.00    +0.000 C 
ATOM     10  C   UNL     1       1.800   2.077  20.010  0.00  0.00    +0.000 C 
ATOM     11  C   UNL     1       2.610   2.690  18.872  0.00  0.00    +0.000 C 
ATOM     12  H   UNL     1       5.195   7.505  17.730  0.00  0.00    +0.000 HD
ENDROOT
BRANCH   4  13
ATOM     13  C   UNL     1       5.784   5.930  16.548  0.00  0.00    +0.000 A 
ATOM     14  C   UNL     1       5.087   6.026  15.331  0.00  0.00    +0.000 A 
ATOM     15  C   UNL     1       5.634   5.498  14.155  0.00  0.00    +0.000 A 
ATOM     16  C   UNL     1       6.863   4.844  14.196  0.00  0.00    +0.000 A 
ATOM     17  F   UNL     1       7.386   4.348  13.068  0.00  0.00    +0.000 F 
ATOM     18  C   UNL     1       7.548   4.689  15.390  0.00  0.00    +0.000 A 
ATOM     19  C   UNL     1       6.998   5.217  16.553  0.00  0.00    +0.000 A 
ATOM     20  F   UNL     1       7.653   5.005  17.706  0.00  0.00    +0.000 F 
ENDBRANCH   4  13
BRANCH   1  21
ATOM     21  O   UNL     1       1.533   7.102  20.588  0.00  0.00    +0.000 OA
BRANCH  21  22
ATOM     22  C   UNL     1       1.355   8.462  20.174  0.00  0.00    +0.000 C 
BRANCH  22  28
ATOM     23  C   UNL     1       0.210  10.643  20.864  0.00  0.00    +0.000 A 
ATOM     24  C   UNL     1      -0.518  11.391  21.810  0.00  0.00    +0.000 A 
ATOM     25  C   UNL     1      -0.899  10.829  23.026  0.00  0.00    +0.000 A 
ATOM     26  C   UNL     1      -0.574   9.513  23.305  0.00  0.00    +0.000 A 
ATOM     27  C   UNL     1       0.136   8.755  22.377  0.00  0.00    +0.000 A 
ATOM     28  C   UNL     1       0.553   9.303  21.151  0.00  0.00    +0.000 A 
BRANCH  23  30
ATOM     29  C   UNL     1      -0.143  11.123  18.484  0.00  0.00    +0.000 C 
ATOM     30  C   UNL     1       0.564  11.336  19.608  0.00  0.00    +0.000 C 
BRANCH  29  32
ATOM     31  C   UNL     1      -2.446  10.843  18.188  0.00  0.00    +0.000 C 
ATOM     32  O   UNL     1      -1.182  10.229  18.417  0.00  0.00    +0.000 OA
ENDBRANCH  29  32
BRANCH  30  33
ATOM     33  C   UNL     1       1.636  12.374  19.556  0.00  0.00    +0.000 C 
ATOM     34  O   UNL     1       2.202  12.838  20.536  0.00  0.00    +0.000 OA
BRANCH  33  35
ATOM     35  O   UNL     1       1.881  12.721  18.267  0.00  0.00    +0.000 OA
ATOM     36  C   UNL     1       2.799  13.799  18.095  0.00  0.00    +0.000 C 
ENDBRANCH  33  35
ENDBRANCH  30  33
ENDBRANCH  23  30
ENDBRANCH  22  28
ENDBRANCH  21  22
ENDBRANCH   1  21
TORSDOF 8
ENDMDL
MODEL 6
REMARK VINA RESULT:      -8.0      1.013      2.252
REMARK  Name = 
REMARK  10 active torsions:
REMARK  status: ('A' for Active; 'I' for Inactive)
REMARK    1  A    between atoms: C_1  and  O_2
REMARK    2  A    between atoms: O_2  and  C_3
REMARK    3  A    between atoms: C_4  and  C_5
REMARK    4  A    between atoms: C_4  and  C_9
REMARK    5  A    between atoms: C_5  and  O_7
REMARK    6  A    between atoms: O_7  and  C_8
REMARK    7  A    between atoms: C_14  and  C_15
REMARK    8  A    between atoms: C_15  and  O_16
REMARK    9  A    between atoms: O_16  and  C_17
REMARK   10  A    between atoms: N_20  and  C_21
REMARK                            x       y       z     vdW  Elec       q    Type
REMARK                         _______ _______ _______ _____ _____    ______ ____
ROOT
ATOM      1  C   UNL     1       2.515   6.453  19.755  0.00  0.00    +0.000 A 
ATOM      2  N   UNL     1       3.530   6.913  18.998  0.00  0.00    +0.000 NA
ATOM      3  C   UNL     1       4.199   5.988  18.291  0.00  0.00    +0.000 A 
ATOM      4  N   UNL     1       5.343   6.388  17.584  0.00  0.00    +0.000 N 
ATOM      5  N   UNL     1       3.871   4.686  18.265  0.00  0.00    +0.000 NA
ATOM      6  C   UNL     1       2.849   4.268  19.027  0.00  0.00    +0.000 A 
ATOM      7  C   UNL     1       2.150   5.125  19.849  0.00  0.00    +0.000 A 
ATOM      8  C   UNL     1       1.155   4.616  20.847  0.00  0.00    +0.000 C 
ATOM      9  C   UNL     1       0.545   3.279  20.433  0.00  0.00    +0.000 C 
ATOM     10  C   UNL     1       1.638   2.291  20.037  0.00  0.00    +0.000 C 
ATOM     11  C   UNL     1       2.454   2.827  18.865  0.00  0.00    +0.000 C 
ATOM     12  H   UNL     1       5.400   7.397  17.594  0.00  0.00    +0.000 HD
ENDROOT
BRANCH   4  13
ATOM     13  C   UNL     1       5.805   5.772  16.402  0.00  0.00    +0.000 A 
ATOM     14  C   UNL     1       6.781   4.764  16.482  0.00  0.00    +0.000 A 
ATOM     15  C   UNL     1       7.232   4.117  15.326  0.00  0.00    +0.000 A 
ATOM     16  C   UNL     1       6.735   4.498  14.082  0.00  0.00    +0.000 A 
ATOM     17  F   UNL     1       7.163   3.870  12.978  0.00  0.00    +0.000 F 
ATOM     18  C   UNL     1       5.811   5.523  13.967  0.00  0.00    +0.000 A 
ATOM     19  C   UNL     1       5.367   6.159  15.121  0.00  0.00    +0.000 A 
ATOM     20  F   UNL     1       4.514   7.186  14.979  0.00  0.00    +0.000 F 
ENDBRANCH   4  13
BRANCH   1  21
ATOM     21  O   UNL     1       1.826   7.322  20.589  0.00  0.00    +0.000 OA
BRANCH  21  22
ATOM     22  C   UNL     1       1.337   8.532  19.997  0.00  0.00    +0.000 C 
BRANCH  22  28
ATOM     23  C   UNL     1      -0.118  10.574  20.501  0.00  0.00    +0.000 A 
ATOM     24  C   UNL     1      -0.857  11.348  21.416  0.00  0.00    +0.000 A 
ATOM     25  C   UNL     1      -0.971  10.963  22.750  0.00  0.00    +0.000 A 
ATOM     26  C   UNL     1      -0.364   9.796  23.181  0.00  0.00    +0.000 A 
ATOM     27  C   UNL     1       0.362   9.013  22.287  0.00  0.00    +0.000 A 
ATOM     28  C   UNL     1       0.511   9.389  20.940  0.00  0.00    +0.000 A 
BRANCH  23  30
ATOM     29  C   UNL     1      -1.016  10.741  18.223  0.00  0.00    +0.000 C 
ATOM     30  C   UNL     1      -0.062  11.074  19.111  0.00  0.00    +0.000 C 
BRANCH  29  32
ATOM     31  C   UNL     1      -3.021   9.789  17.489  0.00  0.00    +0.000 C 
ATOM     32  O   UNL     1      -2.051   9.893  18.525  0.00  0.00    +0.000 OA
ENDBRANCH  29  32
BRANCH  30  33
ATOM     33  C   UNL     1       0.979  12.048  18.666  0.00  0.00    +0.000 C 
ATOM     34  O   UNL     1       2.180  11.817  18.637  0.00  0.00    +0.000 OA
BRANCH  33  35
ATOM     35  O   UNL     1       0.392  13.217  18.303  0.00  0.00    +0.000 OA
ATOM     36  C   UNL     1       0.413  14.238  19.298  0.00  0.00    +0.000 C 
ENDBRANCH  33  35
ENDBRANCH  30  33
ENDBRANCH  23  30
ENDBRANCH  22  28
ENDBRANCH  21  22
ENDBRANCH   1  21
TORSDOF 8
ENDMDL
MODEL 7
REMARK VINA RESULT:      -7.9      0.827      1.138
REMARK  Name = 
REMARK  10 active torsions:
REMARK  status: ('A' for Active; 'I' for Inactive)
REMARK    1  A    between atoms: C_1  and  O_2
REMARK    2  A    between atoms: O_2  and  C_3
REMARK    3  A    between atoms: C_4  and  C_5
REMARK    4  A    between atoms: C_4  and  C_9
REMARK    5  A    between atoms: C_5  and  O_7
REMARK    6  A    between atoms: O_7  and  C_8
REMARK    7  A    between atoms: C_14  and  C_15
REMARK    8  A    between atoms: C_15  and  O_16
REMARK    9  A    between atoms: O_16  and  C_17
REMARK   10  A    between atoms: N_20  and  C_21
REMARK                            x       y       z     vdW  Elec       q    Type
REMARK                         _______ _______ _______ _____ _____    ______ ____
ROOT
ATOM      1  C   UNL     1       2.580   6.482  19.781  0.00  0.00    +0.000 A 
ATOM      2  N   UNL     1       3.596   6.930  19.017  0.00  0.00    +0.000 NA
ATOM      3  C   UNL     1       4.235   6.001  18.290  0.00  0.00    +0.000 A 
ATOM      4  N   UNL     1       5.378   6.385  17.573  0.00  0.00    +0.000 N 
ATOM      5  N   UNL     1       3.878   4.706  18.251  0.00  0.00    +0.000 NA
ATOM      6  C   UNL     1       2.857   4.300  19.020  0.00  0.00    +0.000 A 
ATOM      7  C   UNL     1       2.188   5.162  19.863  0.00  0.00    +0.000 A 
ATOM      8  C   UNL     1       1.195   4.661  20.867  0.00  0.00    +0.000 C 
ATOM      9  C   UNL     1       0.550   3.343  20.444  0.00  0.00    +0.000 C 
ATOM     10  C   UNL     1       1.616   2.337  20.020  0.00  0.00    +0.000 C 
ATOM     11  C   UNL     1       2.428   2.871  18.845  0.00  0.00    +0.000 C 
ATOM     12  H   UNL     1       5.457   7.392  17.596  0.00  0.00    +0.000 HD
ENDROOT
BRANCH   4  13
ATOM     13  C   UNL     1       5.812   5.775  16.377  0.00  0.00    +0.000 A 
ATOM     14  C   UNL     1       6.771   4.749  16.431  0.00  0.00    +0.000 A 
ATOM     15  C   UNL     1       7.194   4.109  15.260  0.00  0.00    +0.000 A 
ATOM     16  C   UNL     1       6.684   4.512  14.028  0.00  0.00    +0.000 A 
ATOM     17  F   UNL     1       7.085   3.890  12.912  0.00  0.00    +0.000 F 
ATOM     18  C   UNL     1       5.776   5.554  13.940  0.00  0.00    +0.000 A 
ATOM     19  C   UNL     1       5.361   6.185  15.107  0.00  0.00    +0.000 A 
ATOM     20  F   UNL     1       4.523   7.227  14.990  0.00  0.00    +0.000 F 
ENDBRANCH   4  13
BRANCH   1  21
ATOM     21  O   UNL     1       1.921   7.355  20.636  0.00  0.00    +0.000 OA
BRANCH  21  22
ATOM     22  C   UNL     1       1.268   8.478  20.032  0.00  0.00    +0.000 C 
BRANCH  22  28
ATOM     23  C   UNL     1      -0.189  10.504  20.595  0.00  0.00    +0.000 A 
ATOM     24  C   UNL     1      -0.893  11.272  21.542  0.00  0.00    +0.000 A 
ATOM     25  C   UNL     1      -0.937  10.894  22.882  0.00  0.00    +0.000 A 
ATOM     26  C   UNL     1      -0.295   9.737  23.288  0.00  0.00    +0.000 A 
ATOM     27  C   UNL     1       0.398   8.959  22.364  0.00  0.00    +0.000 A 
ATOM     28  C   UNL     1       0.477   9.329  21.010  0.00  0.00    +0.000 A 
BRANCH  23  30
ATOM     29  C   UNL     1       0.779  11.790  18.743  0.00  0.00    +0.000 C 
ATOM     30  C   UNL     1      -0.206  10.997  19.202  0.00  0.00    +0.000 C 
BRANCH  29  32
ATOM     31  C   UNL     1       1.808  13.636  19.743  0.00  0.00    +0.000 C 
ATOM     32  O   UNL     1       1.812  12.228  19.533  0.00  0.00    +0.000 OA
ENDBRANCH  29  32
BRANCH  30  33
ATOM     33  C   UNL     1      -1.241  10.552  18.222  0.00  0.00    +0.000 C 
ATOM     34  O   UNL     1      -1.054   9.722  17.343  0.00  0.00    +0.000 OA
BRANCH  33  35
ATOM     35  O   UNL     1      -2.408  11.206  18.454  0.00  0.00    +0.000 OA
ATOM     36  C   UNL     1      -3.250  11.361  17.313  0.00  0.00    +0.000 C 
ENDBRANCH  33  35
ENDBRANCH  30  33
ENDBRANCH  23  30
ENDBRANCH  22  28
ENDBRANCH  21  22
ENDBRANCH   1  21
TORSDOF 8
ENDMDL
MODEL 8
REMARK VINA RESULT:      -7.9      4.018      8.721
REMARK  Name = 
REMARK  10 active torsions:
REMARK  status: ('A' for Active; 'I' for Inactive)
REMARK    1  A    between atoms: C_1  and  O_2
REMARK    2  A    between atoms: O_2  and  C_3
REMARK    3  A    between atoms: C_4  and  C_5
REMARK    4  A    between atoms: C_4  and  C_9
REMARK    5  A    between atoms: C_5  and  O_7
REMARK    6  A    between atoms: O_7  and  C_8
REMARK    7  A    between atoms: C_14  and  C_15
REMARK    8  A    between atoms: C_15  and  O_16
REMARK    9  A    between atoms: O_16  and  C_17
REMARK   10  A    between atoms: N_20  and  C_21
REMARK                            x       y       z     vdW  Elec       q    Type
REMARK                         _______ _______ _______ _____ _____    ______ ____
ROOT
ATOM      1  C   UNL     1       2.000   9.296  18.198  0.00  0.00    +0.000 A 
ATOM      2  N   UNL     1       2.362  10.421  17.550  0.00  0.00    +0.000 NA
ATOM      3  C   UNL     1       2.084  11.573  18.179  0.00  0.00    +0.000 A 
ATOM      4  N   UNL     1       2.322  12.778  17.500  0.00  0.00    +0.000 N 
ATOM      5  N   UNL     1       1.536  11.644  19.404  0.00  0.00    +0.000 NA
ATOM      6  C   UNL     1       1.196  10.501  20.019  0.00  0.00    +0.000 A 
ATOM      7  C   UNL     1       1.367   9.269  19.424  0.00  0.00    +0.000 A 
ATOM      8  C   UNL     1       0.795   8.022  20.026  0.00  0.00    +0.000 C 
ATOM      9  C   UNL     1       0.629   8.128  21.541  0.00  0.00    +0.000 C 
ATOM     10  C   UNL     1      -0.089   9.422  21.912  0.00  0.00    +0.000 C 
ATOM     11  C   UNL     1       0.699  10.636  21.431  0.00  0.00    +0.000 C 
ATOM     12  H   UNL     1       2.838  12.581  16.654  0.00  0.00    +0.000 HD
ENDROOT
BRANCH   4  13
ATOM     13  C   UNL     1       2.643  13.998  18.131  0.00  0.00    +0.000 A 
ATOM     14  C   UNL     1       1.612  14.814  18.627  0.00  0.00    +0.000 A 
ATOM     15  C   UNL     1       1.908  16.015  19.283  0.00  0.00    +0.000 A 
ATOM     16  C   UNL     1       3.233  16.421  19.418  0.00  0.00    +0.000 A 
ATOM     17  F   UNL     1       3.513  17.565  20.054  0.00  0.00    +0.000 F 
ATOM     18  C   UNL     1       4.268  15.662  18.895  0.00  0.00    +0.000 A 
ATOM     19  C   UNL     1       3.965  14.471  18.245  0.00  0.00    +0.000 A 
ATOM     20  F   UNL     1       4.980  13.782  17.698  0.00  0.00    +0.000 F 
ENDBRANCH   4  13
BRANCH   1  21
ATOM     21  O   UNL     1       2.165   8.062  17.584  0.00  0.00    +0.000 OA
BRANCH  21  22
ATOM     22  C   UNL     1       3.449   7.441  17.719  0.00  0.00    +0.000 C 
BRANCH  22  28
ATOM     23  C   UNL     1       4.484   5.136  17.320  0.00  0.00    +0.000 A 
ATOM     24  C   UNL     1       4.383   3.732  17.358  0.00  0.00    +0.000 A 
ATOM     25  C   UNL     1       3.225   3.110  17.819  0.00  0.00    +0.000 A 
ATOM     26  C   UNL     1       2.163   3.880  18.262  0.00  0.00    +0.000 A 
ATOM     27  C   UNL     1       2.249   5.269  18.241  0.00  0.00    +0.000 A 
ATOM     28  C   UNL     1       3.398   5.924  17.761  0.00  0.00    +0.000 A 
BRANCH  23  30
ATOM     29  C   UNL     1       6.071   5.603  15.507  0.00  0.00    +0.000 C 
ATOM     30  C   UNL     1       5.756   5.692  16.812  0.00  0.00    +0.000 C 
BRANCH  29  32
ATOM     31  C   UNL     1       5.983   4.015  13.793  0.00  0.00    +0.000 C 
ATOM     32  O   UNL     1       5.277   4.958  14.592  0.00  0.00    +0.000 OA
ENDBRANCH  29  32
BRANCH  30  33
ATOM     33  C   UNL     1       6.683   6.466  17.690  0.00  0.00    +0.000 C 
ATOM     34  O   UNL     1       6.973   6.158  18.837  0.00  0.00    +0.000 OA
BRANCH  33  35
ATOM     35  O   UNL     1       7.148   7.554  17.024  0.00  0.00    +0.000 OA
ATOM     36  C   UNL     1       7.936   8.449  17.806  0.00  0.00    +0.000 C 
ENDBRANCH  33  35
ENDBRANCH  30  33
ENDBRANCH  23  30
ENDBRANCH  22  28
ENDBRANCH  21  22
ENDBRANCH   1  21
TORSDOF 8
ENDMDL
MODEL 9
REMARK VINA RESULT:      -7.9      4.181      8.847
REMARK  Name = 
REMARK  10 active torsions:
REMARK  status: ('A' for Active; 'I' for Inactive)
REMARK    1  A    between atoms: C_1  and  O_2
REMARK    2  A    between atoms: O_2  and  C_3
REMARK    3  A    between atoms: C_4  and  C_5
REMARK    4  A    between atoms: C_4  and  C_9
REMARK    5  A    between atoms: C_5  and  O_7
REMARK    6  A    between atoms: O_7  and  C_8
REMARK    7  A    between atoms: C_14  and  C_15
REMARK    8  A    between atoms: C_15  and  O_16
REMARK    9  A    between atoms: O_16  and  C_17
REMARK   10  A    between atoms: N_20  and  C_21
REMARK                            x       y       z     vdW  Elec       q    Type
REMARK                         _______ _______ _______ _____ _____    ______ ____
ROOT
ATOM      1  C   UNL     1       1.889   9.251  18.287  0.00  0.00    +0.000 A 
ATOM      2  N   UNL     1       2.270  10.351  17.609  0.00  0.00    +0.000 NA
ATOM      3  C   UNL     1       2.024  11.524  18.212  0.00  0.00    +0.000 A 
ATOM      4  N   UNL     1       2.284  12.707  17.502  0.00  0.00    +0.000 N 
ATOM      5  N   UNL     1       1.489  11.637  19.439  0.00  0.00    +0.000 NA
ATOM      6  C   UNL     1       1.129  10.518  20.085  0.00  0.00    +0.000 A 
ATOM      7  C   UNL     1       1.266   9.269  19.518  0.00  0.00    +0.000 A 
ATOM      8  C   UNL     1       0.672   8.050  20.156  0.00  0.00    +0.000 C 
ATOM      9  C   UNL     1       0.522   8.197  21.668  0.00  0.00    +0.000 C 
ATOM     10  C   UNL     1      -0.164   9.515  22.014  0.00  0.00    +0.000 C 
ATOM     11  C   UNL     1       0.648  10.699  21.497  0.00  0.00    +0.000 C 
ATOM     12  H   UNL     1       2.788  12.478  16.656  0.00  0.00    +0.000 HD
ENDROOT
BRANCH   4  13
ATOM     13  C   UNL     1       2.639  13.934  18.100  0.00  0.00    +0.000 A 
ATOM     14  C   UNL     1       3.996  14.248  18.282  0.00  0.00    +0.000 A 
ATOM     15  C   UNL     1       4.372  15.473  18.846  0.00  0.00    +0.000 A 
ATOM     16  C   UNL     1       3.395  16.374  19.260  0.00  0.00    +0.000 A 
ATOM     17  F   UNL     1       3.759  17.548  19.791  0.00  0.00    +0.000 F 
ATOM     18  C   UNL     1       2.049  16.069  19.140  0.00  0.00    +0.000 A 
ATOM     19  C   UNL     1       1.683  14.851  18.579  0.00  0.00    +0.000 A 
ATOM     20  F   UNL     1       0.375  14.556  18.524  0.00  0.00    +0.000 F 
ENDBRANCH   4  13
BRANCH   1  21
ATOM     21  O   UNL     1       2.020   7.999  17.702  0.00  0.00    +0.000 OA
BRANCH  21  22
ATOM     22  C   UNL     1       3.332   7.424  17.698  0.00  0.00    +0.000 C 
BRANCH  22  28
ATOM     23  C   UNL     1       4.438   5.146  17.333  0.00  0.00    +0.000 A 
ATOM     24  C   UNL     1       4.392   3.742  17.418  0.00  0.00    +0.000 A 
ATOM     25  C   UNL     1       3.274   3.092  17.939  0.00  0.00    +0.000 A 
ATOM     26  C   UNL     1       2.200   3.837  18.395  0.00  0.00    +0.000 A 
ATOM     27  C   UNL     1       2.233   5.227  18.329  0.00  0.00    +0.000 A 
ATOM     28  C   UNL     1       3.339   5.907  17.788  0.00  0.00    +0.000 A 
BRANCH  23  30
ATOM     29  C   UNL     1       5.958   5.587  15.458  0.00  0.00    +0.000 C 
ATOM     30  C   UNL     1       5.670   5.731  16.764  0.00  0.00    +0.000 C 
BRANCH  29  32
ATOM     31  C   UNL     1       5.912   3.945  13.794  0.00  0.00    +0.000 C 
ATOM     32  O   UNL     1       5.174   4.859  14.599  0.00  0.00    +0.000 OA
ENDBRANCH  29  32
BRANCH  30  33
ATOM     33  C   UNL     1       6.581   6.593  17.576  0.00  0.00    +0.000 C 
ATOM     34  O   UNL     1       7.162   7.582  17.152  0.00  0.00    +0.000 OA
BRANCH  33  35
ATOM     35  O   UNL     1       6.663   6.112  18.843  0.00  0.00    +0.000 OA
ATOM     36  C   UNL     1       7.977   5.755  19.269  0.00  0.00    +0.000 C 
ENDBRANCH  33  35
ENDBRANCH  30  33
ENDBRANCH  23  30
ENDBRANCH  22  28
ENDBRANCH  21  22
ENDBRANCH   1  21
TORSDOF 8
ENDMDL
