MODEL 1
REMARK VINA RESULT:      -7.2      0.000      0.000
REMARK  Name = 
REMARK  15 active torsions:
REMARK  status: ('A' for Active; 'I' for Inactive)
REMARK    1  A    between atoms: C_1  and  O_2
REMARK    2  A    between atoms: O_2  and  C_3
REMARK    3  A    between atoms: C_6  and  C_7
REMARK    4  A    between atoms: N_9  and  C_10
REMARK    5  A    between atoms: C_10  and  C_11
REMARK    6  A    between atoms: C_13  and  C_14
REMARK    7  A    between atoms: C_14  and  C_15
REMARK    8  A    between atoms: C_14  and  C_16
REMARK    9  A    between atoms: C_20  and  O_21
REMARK   10  A    between atoms: O_21  and  C_22
REMARK   11  A    between atoms: C_22  and  C_23
REMARK   12  A    between atoms: C_22  and  C_24
REMARK   13  A    between atoms: C_24  and  N_25
REMARK   14  A    between atoms: N_25  and  C_26
REMARK   15  A    between atoms: N_25  and  C_27
REMARK                            x       y       z     vdW  Elec       q    Type
REMARK                         _______ _______ _______ _____ _____    ______ ____
ROOT
ATOM      1  C   UNL     1       4.574   5.067  16.787  0.00  0.00    +0.000 A 
ATOM      2  C   UNL     1       4.852   6.449  16.801  0.00  0.00    +0.000 A 
ATOM      3  C   UNL     1       4.006   7.362  17.455  0.00  0.00    +0.000 A 
ATOM      4  C   UNL     1       2.861   6.938  18.118  0.00  0.00    +0.000 A 
ATOM      5  C   UNL     1       2.518   5.570  18.040  0.00  0.00    +0.000 A 
ATOM      6  C   UNL     1       3.341   4.611  17.370  0.00  0.00    +0.000 A 
ENDROOT
BRANCH   4   7
ATOM      7  C   UNL     1       2.113   7.996  18.880  0.00  0.00    +0.000 C 
ATOM      8  O   UNL     1       1.929   7.867  20.094  0.00  0.00    +0.000 OA
ATOM      9  N   UNL     1       1.657   9.117  18.191  0.00  0.00    +0.000 N 
ATOM     10  H   UNL     1       1.974   9.280  17.252  0.00  0.00    +0.000 HD
BRANCH   9  11
ATOM     11  C   UNL     1       0.982  10.209  18.876  0.00  0.00    +0.000 C 
BRANCH  11  12
ATOM     12  C   UNL     1      -0.307  10.530  18.219  0.00  0.00    +0.000 A 
ATOM     13  C   UNL     1      -1.168   9.817  17.421  0.00  0.00    +0.000 A 
ATOM     14  C   UNL     1      -2.245  10.699  17.169  0.00  0.00    +0.000 A 
ATOM     15  N   UNL     1      -2.019  11.899  17.720  0.00  0.00    +0.000 NA
ATOM     16  O   UNL     1      -0.799  11.793  18.375  0.00  0.00    +0.000 OA
BRANCH  14  17
ATOM     17  C   UNL     1      -3.518  10.416  16.424  0.00  0.00    +0.000 C 
ATOM     18  C   UNL     1      -4.609  11.433  16.768  0.00  0.00    +0.000 C 
ATOM     19  C   UNL     1      -3.282  10.392  14.910  0.00  0.00    +0.000 C 
ENDBRANCH  14  17
ENDBRANCH  11  12
ENDBRANCH   9  11
ENDBRANCH   4   7
BRANCH   1  21
ATOM     20  C   UNL     1       5.588   4.307  14.657  0.00  0.00    +0.000 C 
ATOM     21  O   UNL     1       5.391   4.193  16.095  0.00  0.00    +0.000 OA
ENDBRANCH   1  21
BRANCH   6  22
ATOM     22  O   UNL     1       2.688   3.378  17.277  0.00  0.00    +0.000 OA
BRANCH  22  23
ATOM     23  C   UNL     1       2.681   2.372  18.316  0.00  0.00    +0.000 C 
ATOM     24  C   UNL     1       3.715   1.301  18.010  0.00  0.00    +0.000 C 
BRANCH  23  25
ATOM     25  C   UNL     1       2.909   2.887  19.850  0.00  0.00    +0.000 C 
BRANCH  25  26
ATOM     26  N   UNL     1       1.795   3.384  20.713  0.00  0.00    +0.000 NA
ATOM     27  C   UNL     1       1.455   2.432  21.764  0.00  0.00    +0.000 C 
ATOM     28  C   UNL     1       2.145   4.675  21.374  0.00  0.00    +0.000 C 
ENDBRANCH  25  26
ENDBRANCH  23  25
ENDBRANCH  22  23
ENDBRANCH   6  22
TORSDOF 9
ENDMDL
MODEL 2
REMARK VINA RESULT:      -7.1      1.904      3.665
REMARK  Name = 
REMARK  15 active torsions:
REMARK  status: ('A' for Active; 'I' for Inactive)
REMARK    1  A    between atoms: C_1  and  O_2
REMARK    2  A    between atoms: O_2  and  C_3
REMARK    3  A    between atoms: C_6  and  C_7
REMARK    4  A    between atoms: N_9  and  C_10
REMARK    5  A    between atoms: C_10  and  C_11
REMARK    6  A    between atoms: C_13  and  C_14
REMARK    7  A    between atoms: C_14  and  C_15
REMARK    8  A    between atoms: C_14  and  C_16
REMARK    9  A    between atoms: C_20  and  O_21
REMARK   10  A    between atoms: O_21  and  C_22
REMARK   11  A    between atoms: C_22  and  C_23
REMARK   12  A    between atoms: C_22  and  C_24
REMARK   13  A    between atoms: C_24  and  N_25
REMARK   14  A    between atoms: N_25  and  C_26
REMARK   15  A    between atoms: N_25  and  C_27
REMARK                            x       y       z     vdW  Elec       q    Type
REMARK                         _______ _______ _______ _____ _____    ______ ____
ROOT
ATOM      1  C   UNL     1       2.631   4.193  19.211  0.00  0.00    +0.000 A 
ATOM      2  C   UNL     1       2.066   4.474  20.472  0.00  0.00    +0.000 A 
ATOM      3  C   UNL     1       1.751   5.789  20.858  0.00  0.00    +0.000 A 
ATOM      4  C   UNL     1       1.982   6.866  20.012  0.00  0.00    +0.000 A 
ATOM      5  C   UNL     1       2.629   6.615  18.781  0.00  0.00    +0.000 A 
ATOM      6  C   UNL     1       2.981   5.295  18.357  0.00  0.00    +0.000 A 
ENDROOT
BRANCH   4   7
ATOM      7  C   UNL     1       1.487   8.200  20.495  0.00  0.00    +0.000 C 
ATOM      8  O   UNL     1       1.336   8.401  21.704  0.00  0.00    +0.000 OA
ATOM      9  N   UNL     1       1.225   9.194  19.555  0.00  0.00    +0.000 N 
ATOM     10  H   UNL     1       1.526   9.065  18.605  0.00  0.00    +0.000 HD
BRANCH   9  11
ATOM     11  C   UNL     1       0.806  10.528  19.956  0.00  0.00    +0.000 C 
BRANCH  11  12
ATOM     12  C   UNL     1      -0.430  10.931  19.243  0.00  0.00    +0.000 A 
ATOM     13  C   UNL     1      -1.017  10.535  18.066  0.00  0.00    +0.000 A 
ATOM     14  C   UNL     1      -2.214  11.286  17.986  0.00  0.00    +0.000 A 
ATOM     15  N   UNL     1      -2.313  12.137  19.016  0.00  0.00    +0.000 NA
ATOM     16  O   UNL     1      -1.189  11.917  19.802  0.00  0.00    +0.000 OA
BRANCH  14  17
ATOM     17  C   UNL     1      -3.297  11.193  16.950  0.00  0.00    +0.000 C 
ATOM     18  C   UNL     1      -2.976  10.133  15.894  0.00  0.00    +0.000 C 
ATOM     19  C   UNL     1      -4.656  10.898  17.593  0.00  0.00    +0.000 C 
ENDBRANCH  14  17
ENDBRANCH  11  12
ENDBRANCH   9  11
ENDBRANCH   4   7
BRANCH   1  21
ATOM     20  C   UNL     1       2.394   2.229  17.718  0.00  0.00    +0.000 C 
ATOM     21  O   UNL     1       2.980   2.899  18.871  0.00  0.00    +0.000 OA
ENDBRANCH   1  21
BRANCH   6  22
ATOM     22  O   UNL     1       3.771   5.341  17.204  0.00  0.00    +0.000 OA
BRANCH  22  23
ATOM     23  C   UNL     1       5.181   5.019  17.161  0.00  0.00    +0.000 C 
ATOM     24  C   UNL     1       5.446   3.984  16.080  0.00  0.00    +0.000 C 
BRANCH  23  25
ATOM     25  C   UNL     1       6.220   6.263  16.951  0.00  0.00    +0.000 C 
BRANCH  25  26
ATOM     26  N   UNL     1       6.949   6.911  18.082  0.00  0.00    +0.000 NA
ATOM     27  C   UNL     1       7.776   5.958  18.814  0.00  0.00    +0.000 C 
ATOM     28  C   UNL     1       7.843   8.006  17.606  0.00  0.00    +0.000 C 
ENDBRANCH  25  26
ENDBRANCH  23  25
ENDBRANCH  22  23
ENDBRANCH   6  22
TORSDOF 9
ENDMDL
MODEL 3
REMARK VINA RESULT:      -7.1      0.697      1.114
REMARK  Name = 
REMARK  15 active torsions:
REMARK  status: ('A' for Active; 'I' for Inactive)
REMARK    1  A    between atoms: C_1  and  O_2
REMARK    2  A    between atoms: O_2  and  C_3
REMARK    3  A    between atoms: C_6  and  C_7
REMARK    4  A    between atoms: N_9  and  C_10
REMARK    5  A    between atoms: C_10  and  C_11
REMARK    6  A    between atoms: C_13  and  C_14
REMARK    7  A    between atoms: C_14  and  C_15
REMARK    8  A    between atoms: C_14  and  C_16
REMARK    9  A    between atoms: C_20  and  O_21
REMARK   10  A    between atoms: O_21  and  C_22
REMARK   11  A    between atoms: C_22  and  C_23
REMARK   12  A    between atoms: C_22  and  C_24
REMARK   13  A    between atoms: C_24  and  N_25
REMARK   14  A    between atoms: N_25  and  C_26
REMARK   15  A    between atoms: N_25  and  C_27
REMARK                            x       y       z     vdW  Elec       q    Type
REMARK                         _______ _______ _______ _____ _____    ______ ____
ROOT
ATOM      1  C   UNL     1       4.322   4.884  16.746  0.00  0.00    +0.000 A 
ATOM      2  C   UNL     1       4.718   6.229  16.893  0.00  0.00    +0.000 A 
ATOM      3  C   UNL     1       3.946   7.146  17.629  0.00  0.00    +0.000 A 
ATOM      4  C   UNL     1       2.761   6.762  18.243  0.00  0.00    +0.000 A 
ATOM      5  C   UNL     1       2.302   5.443  18.033  0.00  0.00    +0.000 A 
ATOM      6  C   UNL     1       3.048   4.484  17.278  0.00  0.00    +0.000 A 
ENDROOT
BRANCH   4   7
ATOM      7  C   UNL     1       2.098   7.804  19.100  0.00  0.00    +0.000 C 
ATOM      8  O   UNL     1       1.948   7.604  20.309  0.00  0.00    +0.000 OA
ATOM      9  N   UNL     1       1.679   8.990  18.502  0.00  0.00    +0.000 N 
ATOM     10  H   UNL     1       1.972   9.199  17.565  0.00  0.00    +0.000 HD
BRANCH   9  11
ATOM     11  C   UNL     1       1.088  10.068  19.282  0.00  0.00    +0.000 C 
BRANCH  11  12
ATOM     12  C   UNL     1      -0.176  10.536  18.665  0.00  0.00    +0.000 A 
ATOM     13  C   UNL     1      -0.856  10.195  17.521  0.00  0.00    +0.000 A 
ATOM     14  C   UNL     1      -2.025  10.992  17.542  0.00  0.00    +0.000 A 
ATOM     15  N   UNL     1      -2.021  11.818  18.597  0.00  0.00    +0.000 NA
ATOM     16  O   UNL     1      -0.856  11.534  19.298  0.00  0.00    +0.000 OA
BRANCH  14  17
ATOM     17  C   UNL     1      -3.178  10.968  16.580  0.00  0.00    +0.000 C 
ATOM     18  C   UNL     1      -3.089   9.776  15.624  0.00  0.00    +0.000 C 
ATOM     19  C   UNL     1      -4.519  10.946  17.322  0.00  0.00    +0.000 C 
ENDBRANCH  14  17
ENDBRANCH  11  12
ENDBRANCH   9  11
ENDBRANCH   4   7
BRANCH   1  21
ATOM     20  C   UNL     1       6.510   4.166  15.830  0.00  0.00    +0.000 C 
ATOM     21  O   UNL     1       5.070   4.012  15.977  0.00  0.00    +0.000 OA
ENDBRANCH   1  21
BRANCH   6  22
ATOM     22  O   UNL     1       2.292   3.327  17.065  0.00  0.00    +0.000 OA
BRANCH  22  23
ATOM     23  C   UNL     1       2.230   2.207  17.979  0.00  0.00    +0.000 C 
ATOM     24  C   UNL     1       3.611   1.595  18.147  0.00  0.00    +0.000 C 
BRANCH  23  25
ATOM     25  C   UNL     1       1.607   2.493  19.462  0.00  0.00    +0.000 C 
BRANCH  25  26
ATOM     26  N   UNL     1       2.377   3.170  20.548  0.00  0.00    +0.000 NA
ATOM     27  C   UNL     1       1.610   4.243  21.171  0.00  0.00    +0.000 C 
ATOM     28  C   UNL     1       2.767   2.215  21.625  0.00  0.00    +0.000 C 
ENDBRANCH  25  26
ENDBRANCH  23  25
ENDBRANCH  22  23
ENDBRANCH   6  22
TORSDOF 9
ENDMDL
MODEL 4
REMARK VINA RESULT:      -7.1      3.174      8.278
REMARK  Name = 
REMARK  15 active torsions:
REMARK  status: ('A' for Active; 'I' for Inactive)
REMARK    1  A    between atoms: C_1  and  O_2
REMARK    2  A    between atoms: O_2  and  C_3
REMARK    3  A    between atoms: C_6  and  C_7
REMARK    4  A    between atoms: N_9  and  C_10
REMARK    5  A    between atoms: C_10  and  C_11
REMARK    6  A    between atoms: C_13  and  C_14
REMARK    7  A    between atoms: C_14  and  C_15
REMARK    8  A    between atoms: C_14  and  C_16
REMARK    9  A    between atoms: C_20  and  O_21
REMARK   10  A    between atoms: O_21  and  C_22
REMARK   11  A    between atoms: C_22  and  C_23
REMARK   12  A    between atoms: C_22  and  C_24
REMARK   13  A    between atoms: C_24  and  N_25
REMARK   14  A    between atoms: N_25  and  C_26
REMARK   15  A    between atoms: N_25  and  C_27
REMARK                            x       y       z     vdW  Elec       q    Type
REMARK                         _______ _______ _______ _____ _____    ______ ____
ROOT
ATOM      1  C   UNL     1       2.640   4.035  20.611  0.00  0.00    +0.000 A 
ATOM      2  C   UNL     1       3.576   3.041  20.255  0.00  0.00    +0.000 A 
ATOM      3  C   UNL     1       4.635   3.313  19.372  0.00  0.00    +0.000 A 
ATOM      4  C   UNL     1       4.806   4.573  18.814  0.00  0.00    +0.000 A 
ATOM      5  C   UNL     1       3.829   5.557  19.087  0.00  0.00    +0.000 A 
ATOM      6  C   UNL     1       2.727   5.317  19.967  0.00  0.00    +0.000 A 
ENDROOT
BRANCH   4   7
ATOM      7  C   UNL     1       6.045   4.764  17.986  0.00  0.00    +0.000 C 
ATOM      8  O   UNL     1       7.120   4.290  18.366  0.00  0.00    +0.000 OA
ATOM      9  N   UNL     1       5.945   5.465  16.787  0.00  0.00    +0.000 N 
ATOM     10  H   UNL     1       5.036   5.681  16.417  0.00  0.00    +0.000 HD
BRANCH   9  11
ATOM     11  C   UNL     1       7.090   5.632  15.905  0.00  0.00    +0.000 C 
BRANCH  11  12
ATOM     12  C   UNL     1       6.904   4.872  14.646  0.00  0.00    +0.000 A 
ATOM     13  C   UNL     1       6.156   3.770  14.306  0.00  0.00    +0.000 A 
ATOM     14  C   UNL     1       6.394   3.583  12.924  0.00  0.00    +0.000 A 
ATOM     15  N   UNL     1       7.285   4.473  12.467  0.00  0.00    +0.000 NA
ATOM     16  O   UNL     1       7.609   5.278  13.551  0.00  0.00    +0.000 OA
BRANCH  14  17
ATOM     17  C   UNL     1       5.762   2.577  12.004  0.00  0.00    +0.000 C 
ATOM     18  C   UNL     1       4.514   3.143  11.323  0.00  0.00    +0.000 C 
ATOM     19  C   UNL     1       6.760   2.088  10.948  0.00  0.00    +0.000 C 
ENDBRANCH  14  17
ENDBRANCH  11  12
ENDBRANCH   9  11
ENDBRANCH   4   7
BRANCH   1  21
ATOM     20  C   UNL     1       1.407   2.405  22.011  0.00  0.00    +0.000 C 
ATOM     21  O   UNL     1       1.577   3.734  21.441  0.00  0.00    +0.000 OA
ENDBRANCH   1  21
BRANCH   6  22
ATOM     22  O   UNL     1       1.815   6.377  19.917  0.00  0.00    +0.000 OA
BRANCH  22  23
ATOM     23  C   UNL     1       2.165   7.747  19.614  0.00  0.00    +0.000 C 
ATOM     24  C   UNL     1       2.150   7.968  18.110  0.00  0.00    +0.000 C 
BRANCH  23  25
ATOM     25  C   UNL     1       1.265   8.916  20.317  0.00  0.00    +0.000 C 
BRANCH  25  26
ATOM     26  N   UNL     1       0.418   9.867  19.536  0.00  0.00    +0.000 NA
ATOM     27  C   UNL     1      -0.664  10.421  20.342  0.00  0.00    +0.000 C 
ATOM     28  C   UNL     1       1.217  11.012  19.011  0.00  0.00    +0.000 C 
ENDBRANCH  25  26
ENDBRANCH  23  25
ENDBRANCH  22  23
ENDBRANCH   6  22
TORSDOF 9
ENDMDL
MODEL 5
REMARK VINA RESULT:      -7.0      1.757      3.267
REMARK  Name = 
REMARK  15 active torsions:
REMARK  status: ('A' for Active; 'I' for Inactive)
REMARK    1  A    between atoms: C_1  and  O_2
REMARK    2  A    between atoms: O_2  and  C_3
REMARK    3  A    between atoms: C_6  and  C_7
REMARK    4  A    between atoms: N_9  and  C_10
REMARK    5  A    between atoms: C_10  and  C_11
REMARK    6  A    between atoms: C_13  and  C_14
REMARK    7  A    between atoms: C_14  and  C_15
REMARK    8  A    between atoms: C_14  and  C_16
REMARK    9  A    between atoms: C_20  and  O_21
REMARK   10  A    between atoms: O_21  and  C_22
REMARK   11  A    between atoms: C_22  and  C_23
REMARK   12  A    between atoms: C_22  and  C_24
REMARK   13  A    between atoms: C_24  and  N_25
REMARK   14  A    between atoms: N_25  and  C_26
REMARK   15  A    between atoms: N_25  and  C_27
REMARK                            x       y       z     vdW  Elec       q    Type
REMARK                         _______ _______ _______ _____ _____    ______ ____
ROOT
ATOM      1  C   UNL     1       2.813   3.954  19.223  0.00  0.00    +0.000 A 
ATOM      2  C   UNL     1       2.462   4.495  20.478  0.00  0.00    +0.000 A 
ATOM      3  C   UNL     1       2.137   5.854  20.627  0.00  0.00    +0.000 A 
ATOM      4  C   UNL     1       2.146   6.722  19.542  0.00  0.00    +0.000 A 
ATOM      5  C   UNL     1       2.581   6.221  18.295  0.00  0.00    +0.000 A 
ATOM      6  C   UNL     1       2.936   4.848  18.104  0.00  0.00    +0.000 A 
ENDROOT
BRANCH   4   7
ATOM      7  C   UNL     1       1.661   8.118  19.813  0.00  0.00    +0.000 C 
ATOM      8  O   UNL     1       1.311   8.440  20.954  0.00  0.00    +0.000 OA
ATOM      9  N   UNL     1       1.633   9.031  18.761  0.00  0.00    +0.000 N 
ATOM     10  H   UNL     1       2.087   8.798  17.896  0.00  0.00    +0.000 HD
BRANCH   9  11
ATOM     11  C   UNL     1       1.236  10.416  18.965  0.00  0.00    +0.000 C 
BRANCH  11  12
ATOM     12  C   UNL     1      -0.101  10.675  18.380  0.00  0.00    +0.000 A 
ATOM     13  C   UNL     1      -0.951   9.936  17.593  0.00  0.00    +0.000 A 
ATOM     14  C   UNL     1      -2.093  10.754  17.424  0.00  0.00    +0.000 A 
ATOM     15  N   UNL     1      -1.919  11.945  18.011  0.00  0.00    +0.000 NA
ATOM     16  O   UNL     1      -0.665  11.896  18.607  0.00  0.00    +0.000 OA
BRANCH  14  17
ATOM     17  C   UNL     1      -3.379  10.414  16.726  0.00  0.00    +0.000 C 
ATOM     18  C   UNL     1      -4.541  11.265  17.244  0.00  0.00    +0.000 C 
ATOM     19  C   UNL     1      -3.246  10.576  15.208  0.00  0.00    +0.000 C 
ENDBRANCH  14  17
ENDBRANCH  11  12
ENDBRANCH   9  11
ENDBRANCH   4   7
BRANCH   1  21
ATOM     20  C   UNL     1       4.385   2.109  19.734  0.00  0.00    +0.000 C 
ATOM     21  O   UNL     1       3.177   2.626  19.108  0.00  0.00    +0.000 OA
ENDBRANCH   1  21
BRANCH   6  22
ATOM     22  O   UNL     1       3.505   4.656  16.841  0.00  0.00    +0.000 OA
BRANCH  22  23
ATOM     23  C   UNL     1       4.928   4.628  16.578  0.00  0.00    +0.000 C 
ATOM     24  C   UNL     1       5.177   4.483  15.085  0.00  0.00    +0.000 C 
BRANCH  23  25
ATOM     25  C   UNL     1       5.810   5.889  17.129  0.00  0.00    +0.000 C 
BRANCH  25  26
ATOM     26  N   UNL     1       6.896   5.736  18.143  0.00  0.00    +0.000 NA
ATOM     27  C   UNL     1       6.363   5.496  19.480  0.00  0.00    +0.000 C 
ATOM     28  C   UNL     1       7.802   4.598  17.812  0.00  0.00    +0.000 C 
ENDBRANCH  25  26
ENDBRANCH  23  25
ENDBRANCH  22  23
ENDBRANCH   6  22
TORSDOF 9
ENDMDL
MODEL 6
REMARK VINA RESULT:      -7.0      3.295      4.914
REMARK  Name = 
REMARK  15 active torsions:
REMARK  status: ('A' for Active; 'I' for Inactive)
REMARK    1  A    between atoms: C_1  and  O_2
REMARK    2  A    between atoms: O_2  and  C_3
REMARK    3  A    between atoms: C_6  and  C_7
REMARK    4  A    between atoms: N_9  and  C_10
REMARK    5  A    between atoms: C_10  and  C_11
REMARK    6  A    between atoms: C_13  and  C_14
REMARK    7  A    between atoms: C_14  and  C_15
REMARK    8  A    between atoms: C_14  and  C_16
REMARK    9  A    between atoms: C_20  and  O_21
REMARK   10  A    between atoms: O_21  and  C_22
REMARK   11  A    between atoms: C_22  and  C_23
REMARK   12  A    between atoms: C_22  and  C_24
REMARK   13  A    between atoms: C_24  and  N_25
REMARK   14  A    between atoms: N_25  and  C_26
REMARK   15  A    between atoms: N_25  and  C_27
REMARK                            x       y       z     vdW  Elec       q    Type
REMARK                         _______ _______ _______ _____ _____    ______ ____
ROOT
ATOM      1  C   UNL     1       2.651   4.584  19.492  0.00  0.00    +0.000 A 
ATOM      2  C   UNL     1       2.139   5.515  20.420  0.00  0.00    +0.000 A 
ATOM      3  C   UNL     1       1.947   6.864  20.076  0.00  0.00    +0.000 A 
ATOM      4  C   UNL     1       2.252   7.337  18.806  0.00  0.00    +0.000 A 
ATOM      5  C   UNL     1       2.848   6.441  17.891  0.00  0.00    +0.000 A 
ATOM      6  C   UNL     1       3.077   5.065  18.205  0.00  0.00    +0.000 A 
ENDROOT
BRANCH   4   7
ATOM      7  C   UNL     1       1.884   8.768  18.531  0.00  0.00    +0.000 C 
ATOM      8  O   UNL     1       2.094   9.255  17.416  0.00  0.00    +0.000 OA
ATOM      9  N   UNL     1       1.292   9.512  19.549  0.00  0.00    +0.000 N 
ATOM     10  H   UNL     1       0.971   9.044  20.378  0.00  0.00    +0.000 HD
BRANCH   9  11
ATOM     11  C   UNL     1       0.852  10.882  19.333  0.00  0.00    +0.000 C 
BRANCH  11  12
ATOM     12  C   UNL     1       0.143  11.404  20.526  0.00  0.00    +0.000 A 
ATOM     13  C   UNL     1      -0.823  12.364  20.710  0.00  0.00    +0.000 A 
ATOM     14  C   UNL     1      -1.099  12.339  22.097  0.00  0.00    +0.000 A 
ATOM     15  N   UNL     1      -0.301  11.469  22.728  0.00  0.00    +0.000 NA
ATOM     16  O   UNL     1       0.483  10.885  21.741  0.00  0.00    +0.000 OA
BRANCH  14  17
ATOM     17  C   UNL     1      -2.141  13.120  22.846  0.00  0.00    +0.000 C 
ATOM     18  C   UNL     1      -3.087  12.198  23.620  0.00  0.00    +0.000 C 
ATOM     19  C   UNL     1      -1.497  14.130  23.802  0.00  0.00    +0.000 C 
ENDBRANCH  14  17
ENDBRANCH  11  12
ENDBRANCH   9  11
ENDBRANCH   4   7
BRANCH   1  21
ATOM     20  C   UNL     1       2.500   2.777  21.181  0.00  0.00    +0.000 C 
ATOM     21  O   UNL     1       2.879   3.273  19.865  0.00  0.00    +0.000 OA
ENDBRANCH   1  21
BRANCH   6  22
ATOM     22  O   UNL     1       3.843   4.451  17.209  0.00  0.00    +0.000 OA
BRANCH  22  23
ATOM     23  C   UNL     1       5.281   4.560  17.095  0.00  0.00    +0.000 C 
ATOM     24  C   UNL     1       5.737   4.029  15.747  0.00  0.00    +0.000 C 
BRANCH  23  25
ATOM     25  C   UNL     1       5.932   6.043  17.314  0.00  0.00    +0.000 C 
BRANCH  25  26
ATOM     26  N   UNL     1       7.359   6.252  17.703  0.00  0.00    +0.000 NA
ATOM     27  C   UNL     1       7.740   7.659  17.640  0.00  0.00    +0.000 C 
ATOM     28  C   UNL     1       7.626   5.778  19.092  0.00  0.00    +0.000 C 
ENDBRANCH  25  26
ENDBRANCH  23  25
ENDBRANCH  22  23
ENDBRANCH   6  22
TORSDOF 9
ENDMDL
MODEL 7
REMARK VINA RESULT:      -7.0      1.115      1.297
REMARK  Name = 
REMARK  15 active torsions:
REMARK  status: ('A' for Active; 'I' for Inactive)
REMARK    1  A    between atoms: C_1  and  O_2
REMARK    2  A    between atoms: O_2  and  C_3
REMARK    3  A    between atoms: C_6  and  C_7
REMARK    4  A    between atoms: N_9  and  C_10
REMARK    5  A    between atoms: C_10  and  C_11
REMARK    6  A    between atoms: C_13  and  C_14
REMARK    7  A    between atoms: C_14  and  C_15
REMARK    8  A    between atoms: C_14  and  C_16
REMARK    9  A    between atoms: C_20  and  O_21
REMARK   10  A    between atoms: O_21  and  C_22
REMARK   11  A    between atoms: C_22  and  C_23
REMARK   12  A    between atoms: C_22  and  C_24
REMARK   13  A    between atoms: C_24  and  N_25
REMARK   14  A    between atoms: N_25  and  C_26
REMARK   15  A    between atoms: N_25  and  C_27
REMARK                            x       y       z     vdW  Elec       q    Type
REMARK                         _______ _______ _______ _____ _____    ______ ____
ROOT
ATOM      1  C   UNL     1       4.226   5.429  17.089  0.00  0.00    +0.000 A 
ATOM      2  C   UNL     1       4.717   6.731  16.860  0.00  0.00    +0.000 A 
ATOM      3  C   UNL     1       3.979   7.869  17.229  0.00  0.00    +0.000 A 
ATOM      4  C   UNL     1       2.734   7.758  17.836  0.00  0.00    +0.000 A 
ATOM      5  C   UNL     1       2.186   6.465  17.992  0.00  0.00    +0.000 A 
ATOM      6  C   UNL     1       2.897   5.282  17.616  0.00  0.00    +0.000 A 
ENDROOT
BRANCH   4   7
ATOM      7  C   UNL     1       2.107   9.045  18.291  0.00  0.00    +0.000 C 
ATOM      8  O   UNL     1       2.333  10.093  17.677  0.00  0.00    +0.000 OA
ATOM      9  N   UNL     1       1.263   9.021  19.398  0.00  0.00    +0.000 N 
ATOM     10  H   UNL     1       0.957   8.136  19.765  0.00  0.00    +0.000 HD
BRANCH   9  11
ATOM     11  C   UNL     1       0.571  10.217  19.855  0.00  0.00    +0.000 C 
BRANCH  11  12
ATOM     12  C   UNL     1      -0.655  10.456  19.058  0.00  0.00    +0.000 A 
ATOM     13  C   UNL     1      -1.150   9.916  17.895  0.00  0.00    +0.000 A 
ATOM     14  C   UNL     1      -2.397  10.557  17.700  0.00  0.00    +0.000 A 
ATOM     15  N   UNL     1      -2.614  11.479  18.646  0.00  0.00    +0.000 NA
ATOM     16  O   UNL     1      -1.517  11.419  19.496  0.00  0.00    +0.000 OA
BRANCH  14  17
ATOM     17  C   UNL     1      -3.417  10.289  16.630  0.00  0.00    +0.000 C 
ATOM     18  C   UNL     1      -4.609  11.243  16.738  0.00  0.00    +0.000 C 
ATOM     19  C   UNL     1      -2.794  10.385  15.233  0.00  0.00    +0.000 C 
ENDBRANCH  14  17
ENDBRANCH  11  12
ENDBRANCH   9  11
ENDBRANCH   4   7
BRANCH   1  21
ATOM     20  C   UNL     1       6.360   4.173  16.984  0.00  0.00    +0.000 C 
ATOM     21  O   UNL     1       4.945   4.324  16.673  0.00  0.00    +0.000 OA
ENDBRANCH   1  21
BRANCH   6  22
ATOM     22  O   UNL     1       2.066   4.160  17.697  0.00  0.00    +0.000 OA
BRANCH  22  23
ATOM     23  C   UNL     1       2.301   3.026  18.564  0.00  0.00    +0.000 C 
ATOM     24  C   UNL     1       2.991   1.914  17.791  0.00  0.00    +0.000 C 
BRANCH  23  25
ATOM     25  C   UNL     1       3.146   3.302  19.936  0.00  0.00    +0.000 C 
BRANCH  25  26
ATOM     26  N   UNL     1       2.497   3.690  21.223  0.00  0.00    +0.000 NA
ATOM     27  C   UNL     1       1.876   5.008  21.144  0.00  0.00    +0.000 C 
ATOM     28  C   UNL     1       1.437   2.720  21.620  0.00  0.00    +0.000 C 
ENDBRANCH  25  26
ENDBRANCH  23  25
ENDBRANCH  22  23
ENDBRANCH   6  22
TORSDOF 9
ENDMDL
MODEL 8
REMARK VINA RESULT:      -6.9      1.096      1.302
REMARK  Name = 
REMARK  15 active torsions:
REMARK  status: ('A' for Active; 'I' for Inactive)
REMARK    1  A    between atoms: C_1  and  O_2
REMARK    2  A    between atoms: O_2  and  C_3
REMARK    3  A    between atoms: C_6  and  C_7
REMARK    4  A    between atoms: N_9  and  C_10
REMARK    5  A    between atoms: C_10  and  C_11
REMARK    6  A    between atoms: C_13  and  C_14
REMARK    7  A    between atoms: C_14  and  C_15
REMARK    8  A    between atoms: C_14  and  C_16
REMARK    9  A    between atoms: C_20  and  O_21
REMARK   10  A    between atoms: O_21  and  C_22
REMARK   11  A    between atoms: C_22  and  C_23
REMARK   12  A    between atoms: C_22  and  C_24
REMARK   13  A    between atoms: C_24  and  N_25
REMARK   14  A    between atoms: N_25  and  C_26
REMARK   15  A    between atoms: N_25  and  C_27
REMARK                            x       y       z     vdW  Elec       q    Type
REMARK                         _______ _______ _______ _____ _____    ______ ____
ROOT
ATOM      1  C   UNL     1       4.791   5.647  17.289  0.00  0.00    +0.000 A 
ATOM      2  C   UNL     1       4.329   6.922  16.903  0.00  0.00    +0.000 A 
ATOM      3  C   UNL     1       3.357   7.608  17.652  0.00  0.00    +0.000 A 
ATOM      4  C   UNL     1       2.813   7.058  18.806  0.00  0.00    +0.000 A 
ATOM      5  C   UNL     1       3.197   5.746  19.160  0.00  0.00    +0.000 A 
ATOM      6  C   UNL     1       4.170   5.006  18.417  0.00  0.00    +0.000 A 
ENDROOT
BRANCH   4   7
ATOM      7  C   UNL     1       1.878   7.945  19.580  0.00  0.00    +0.000 C 
ATOM      8  O   UNL     1       1.498   7.608  20.705  0.00  0.00    +0.000 OA
ATOM      9  N   UNL     1       1.473   9.148  19.006  0.00  0.00    +0.000 N 
ATOM     10  H   UNL     1       1.934   9.478  18.177  0.00  0.00    +0.000 HD
BRANCH   9  11
ATOM     11  C   UNL     1       0.621  10.084  19.724  0.00  0.00    +0.000 C 
BRANCH  11  12
ATOM     12  C   UNL     1      -0.407  10.660  18.825  0.00  0.00    +0.000 A 
ATOM     13  C   UNL     1      -1.266  10.121  17.897  0.00  0.00    +0.000 A 
ATOM     14  C   UNL     1      -2.021  11.219  17.420  0.00  0.00    +0.000 A 
ATOM     15  N   UNL     1      -1.599  12.365  17.971  0.00  0.00    +0.000 NA
ATOM     16  O   UNL     1      -0.582  12.013  18.849  0.00  0.00    +0.000 OA
BRANCH  14  17
ATOM     17  C   UNL     1      -3.171  11.200  16.455  0.00  0.00    +0.000 C 
ATOM     18  C   UNL     1      -3.014  10.090  15.413  0.00  0.00    +0.000 C 
ATOM     19  C   UNL     1      -4.508  11.045  17.188  0.00  0.00    +0.000 C 
ENDBRANCH  14  17
ENDBRANCH  11  12
ENDBRANCH   9  11
ENDBRANCH   4   7
BRANCH   1  21
ATOM     20  C   UNL     1       7.064   5.469  16.317  0.00  0.00    +0.000 C 
ATOM     21  O   UNL     1       5.711   4.968  16.511  0.00  0.00    +0.000 OA
ENDBRANCH   1  21
BRANCH   6  22
ATOM     22  O   UNL     1       4.228   3.681  18.860  0.00  0.00    +0.000 OA
BRANCH  22  23
ATOM     23  C   UNL     1       3.184   2.701  18.656  0.00  0.00    +0.000 C 
ATOM     24  C   UNL     1       3.666   1.617  17.705  0.00  0.00    +0.000 C 
BRANCH  23  25
ATOM     25  C   UNL     1       2.569   1.983  19.989  0.00  0.00    +0.000 C 
BRANCH  25  26
ATOM     26  N   UNL     1       1.533   2.627  20.851  0.00  0.00    +0.000 NA
ATOM     27  C   UNL     1       2.131   3.434  21.909  0.00  0.00    +0.000 C 
ATOM     28  C   UNL     1       0.635   3.518  20.062  0.00  0.00    +0.000 C 
ENDBRANCH  25  26
ENDBRANCH  23  25
ENDBRANCH  22  23
ENDBRANCH   6  22
TORSDOF 9
ENDMDL
MODEL 9
REMARK VINA RESULT:      -6.9      1.928      3.609
REMARK  Name = 
REMARK  15 active torsions:
REMARK  status: ('A' for Active; 'I' for Inactive)
REMARK    1  A    between atoms: C_1  and  O_2
REMARK    2  A    between atoms: O_2  and  C_3
REMARK    3  A    between atoms: C_6  and  C_7
REMARK    4  A    between atoms: N_9  and  C_10
REMARK    5  A    between atoms: C_10  and  C_11
REMARK    6  A    between atoms: C_13  and  C_14
REMARK    7  A    between atoms: C_14  and  C_15
REMARK    8  A    between atoms: C_14  and  C_16
REMARK    9  A    between atoms: C_20  and  O_21
REMARK   10  A    between atoms: O_21  and  C_22
REMARK   11  A    between atoms: C_22  and  C_23
REMARK   12  A    between atoms: C_22  and  C_24
REMARK   13  A    between atoms: C_24  and  N_25
REMARK   14  A    between atoms: N_25  and  C_26
REMARK   15  A    between atoms: N_25  and  C_27
REMARK                            x       y       z     vdW  Elec       q    Type
REMARK                         _______ _______ _______ _____ _____    ______ ____
ROOT
ATOM      1  C   UNL     1       2.263   4.476  19.758  0.00  0.00    +0.000 A 
ATOM      2  C   UNL     1       1.809   5.371  20.748  0.00  0.00    +0.000 A 
ATOM      3  C   UNL     1       1.692   6.749  20.494  0.00  0.00    +0.000 A 
ATOM      4  C   UNL     1       2.019   7.285  19.255  0.00  0.00    +0.000 A 
ATOM      5  C   UNL     1       2.560   6.419  18.279  0.00  0.00    +0.000 A 
ATOM      6  C   UNL     1       2.710   5.014  18.502  0.00  0.00    +0.000 A 
ENDROOT
BRANCH   4   7
ATOM      7  C   UNL     1       1.733   8.749  19.077  0.00  0.00    +0.000 C 
ATOM      8  O   UNL     1       2.241   9.367  18.136  0.00  0.00    +0.000 OA
ATOM      9  N   UNL     1       0.876   9.377  19.978  0.00  0.00    +0.000 N 
ATOM     10  H   UNL     1       0.341   8.818  20.619  0.00  0.00    +0.000 HD
BRANCH   9  11
ATOM     11  C   UNL     1       0.504  10.775  19.828  0.00  0.00    +0.000 C 
BRANCH  11  12
ATOM     12  C   UNL     1      -0.575  10.931  18.824  0.00  0.00    +0.000 A 
ATOM     13  C   UNL     1      -1.468  10.059  18.248  0.00  0.00    +0.000 A 
ATOM     14  C   UNL     1      -2.262  10.863  17.397  0.00  0.00    +0.000 A 
ATOM     15  N   UNL     1      -1.833  12.132  17.400  0.00  0.00    +0.000 NA
ATOM     16  O   UNL     1      -0.770  12.172  18.292  0.00  0.00    +0.000 OA
BRANCH  14  17
ATOM     17  C   UNL     1      -3.457  10.450  16.585  0.00  0.00    +0.000 C 
ATOM     18  C   UNL     1      -4.679  11.316  16.903  0.00  0.00    +0.000 C 
ATOM     19  C   UNL     1      -3.153  10.503  15.084  0.00  0.00    +0.000 C 
ENDBRANCH  14  17
ENDBRANCH  11  12
ENDBRANCH   9  11
ENDBRANCH   4   7
BRANCH   1  21
ATOM     20  C   UNL     1       1.743   2.510  21.174  0.00  0.00    +0.000 C 
ATOM     21  O   UNL     1       2.418   3.132  20.044  0.00  0.00    +0.000 OA
ENDBRANCH   1  21
BRANCH   6  22
ATOM     22  O   UNL     1       3.436   4.423  17.463  0.00  0.00    +0.000 OA
BRANCH  22  23
ATOM     23  C   UNL     1       4.865   4.561  17.278  0.00  0.00    +0.000 C 
ATOM     24  C   UNL     1       5.152   5.584  16.191  0.00  0.00    +0.000 C 
BRANCH  23  25
ATOM     25  C   UNL     1       5.751   4.946  18.596  0.00  0.00    +0.000 C 
BRANCH  25  26
ATOM     26  N   UNL     1       7.244   4.914  18.607  0.00  0.00    +0.000 NA
ATOM     27  C   UNL     1       7.786   4.382  17.361  0.00  0.00    +0.000 C 
ATOM     28  C   UNL     1       7.822   6.276  18.800  0.00  0.00    +0.000 C 
ENDBRANCH  25  26
ENDBRANCH  23  25
ENDBRANCH  22  23
ENDBRANCH   6  22
TORSDOF 9
ENDMDL
