MODEL 1
REMARK VINA RESULT:      -7.7      0.000      0.000
REMARK  Name = 
REMARK  2 active torsions:
REMARK  status: ('A' for Active; 'I' for Inactive)
REMARK    1  A    between atoms: C_2  and  C_13
REMARK    2  A    between atoms: N_3  and  C_4
REMARK                            x       y       z     vdW  Elec       q    Type
REMARK                         _______ _______ _______ _____ _____    ______ ____
ROOT
ATOM      1  O   UNL     1       6.670   4.951  16.867  0.00  0.00    +0.000 OA
ATOM      2  C   UNL     1       5.805   4.643  16.052  0.00  0.00    +0.000 C 
ATOM      3  N   UNL     1       4.462   4.439  16.309  0.00  0.00    +0.000 N 
ATOM      4  H   UNL     1       3.909   3.978  15.594  0.00  0.00    +0.000 HD
ENDROOT
BRANCH   3   5
ATOM      5  C   UNL     1       3.846   4.603  17.576  0.00  0.00    +0.000 A 
ATOM      6  C   UNL     1       3.454   5.857  18.062  0.00  0.00    +0.000 A 
ATOM      7  C   UNL     1       2.918   6.025  19.344  0.00  0.00    +0.000 A 
ATOM      8  C   UNL     1       2.783   4.880  20.124  0.00  0.00    +0.000 A 
ATOM      9  N   UNL     1       2.338   4.705  21.407  0.00  0.00    +0.000 N 
ATOM     10  N   UNL     1       2.354   3.425  21.821  0.00  0.00    +0.000 NA
ATOM     11  C   UNL     1       2.831   2.764  20.763  0.00  0.00    +0.000 A 
ATOM     12  C   UNL     1       3.122   3.611  19.668  0.00  0.00    +0.000 A 
ATOM     13  C   UNL     1       3.640   3.459  18.366  0.00  0.00    +0.000 A 
ATOM     14  H   UNL     1       2.019   5.418  22.051  0.00  0.00    +0.000 HD
ENDBRANCH   3   5
BRANCH   2  15
ATOM     15  C   UNL     1       6.260   4.403  14.659  0.00  0.00    +0.000 A 
ATOM     16  C   UNL     1       7.335   5.174  14.181  0.00  0.00    +0.000 A 
ATOM     17  C   UNL     1       7.752   5.062  12.856  0.00  0.00    +0.000 A 
ATOM     18  C   UNL     1       7.091   4.184  12.001  0.00  0.00    +0.000 A 
ATOM     19  C   UNL     1       6.027   3.425  12.481  0.00  0.00    +0.000 A 
ATOM     20  F   UNL     1       5.385   2.600  11.645  0.00  0.00    +0.000 F 
ATOM     21  C   UNL     1       5.601   3.519  13.803  0.00  0.00    +0.000 A 
ENDBRANCH   2  15
TORSDOF 2
ENDMDL
MODEL 2
REMARK VINA RESULT:      -7.7      1.539      1.894
REMARK  Name = 
REMARK  2 active torsions:
REMARK  status: ('A' for Active; 'I' for Inactive)
REMARK    1  A    between atoms: C_2  and  C_13
REMARK    2  A    between atoms: N_3  and  C_4
REMARK                            x       y       z     vdW  Elec       q    Type
REMARK                         _______ _______ _______ _____ _____    ______ ____
ROOT
ATOM      1  O   UNL     1       5.398   5.676  16.687  0.00  0.00    +0.000 OA
ATOM      2  C   UNL     1       5.101   4.721  15.975  0.00  0.00    +0.000 C 
ATOM      3  N   UNL     1       4.214   3.705  16.284  0.00  0.00    +0.000 N 
ATOM      4  H   UNL     1       4.230   2.873  15.703  0.00  0.00    +0.000 HD
ENDROOT
BRANCH   3   5
ATOM      5  C   UNL     1       3.454   3.629  17.478  0.00  0.00    +0.000 A 
ATOM      6  C   UNL     1       2.198   4.236  17.608  0.00  0.00    +0.000 A 
ATOM      7  C   UNL     1       1.485   4.224  18.812  0.00  0.00    +0.000 A 
ATOM      8  C   UNL     1       2.080   3.571  19.888  0.00  0.00    +0.000 A 
ATOM      9  N   UNL     1       1.676   3.411  21.187  0.00  0.00    +0.000 N 
ATOM     10  N   UNL     1       2.536   2.706  21.943  0.00  0.00    +0.000 NA
ATOM     11  C   UNL     1       3.524   2.412  21.095  0.00  0.00    +0.000 A 
ATOM     12  C   UNL     1       3.306   2.923  19.795  0.00  0.00    +0.000 A 
ATOM     13  C   UNL     1       3.999   2.926  18.567  0.00  0.00    +0.000 A 
ATOM     14  H   UNL     1       0.830   3.766  21.617  0.00  0.00    +0.000 HD
ENDBRANCH   3   5
BRANCH   2  15
ATOM     15  C   UNL     1       5.814   4.611  14.678  0.00  0.00    +0.000 A 
ATOM     16  C   UNL     1       5.306   3.706  13.728  0.00  0.00    +0.000 A 
ATOM     17  C   UNL     1       5.977   3.490  12.527  0.00  0.00    +0.000 A 
ATOM     18  C   UNL     1       7.164   4.172  12.273  0.00  0.00    +0.000 A 
ATOM     19  C   UNL     1       7.661   5.066  13.218  0.00  0.00    +0.000 A 
ATOM     20  F   UNL     1       8.814   5.701  12.972  0.00  0.00    +0.000 F 
ATOM     21  C   UNL     1       7.000   5.299  14.420  0.00  0.00    +0.000 A 
ENDBRANCH   2  15
TORSDOF 2
ENDMDL
MODEL 3
REMARK VINA RESULT:      -7.5      1.276      1.690
REMARK  Name = 
REMARK  2 active torsions:
REMARK  status: ('A' for Active; 'I' for Inactive)
REMARK    1  A    between atoms: C_2  and  C_13
REMARK    2  A    between atoms: N_3  and  C_4
REMARK                            x       y       z     vdW  Elec       q    Type
REMARK                         _______ _______ _______ _____ _____    ______ ____
ROOT
ATOM      1  O   UNL     1       6.471   4.065  16.968  0.00  0.00    +0.000 OA
ATOM      2  C   UNL     1       5.660   4.369  16.097  0.00  0.00    +0.000 C 
ATOM      3  N   UNL     1       4.311   4.618  16.275  0.00  0.00    +0.000 N 
ATOM      4  H   UNL     1       3.723   4.640  15.449  0.00  0.00    +0.000 HD
ENDROOT
BRANCH   3   5
ATOM      5  C   UNL     1       3.644   4.607  17.526  0.00  0.00    +0.000 A 
ATOM      6  C   UNL     1       3.645   5.715  18.385  0.00  0.00    +0.000 A 
ATOM      7  C   UNL     1       3.051   5.675  19.652  0.00  0.00    +0.000 A 
ATOM      8  C   UNL     1       2.448   4.478  20.026  0.00  0.00    +0.000 A 
ATOM      9  N   UNL     1       1.824   4.102  21.186  0.00  0.00    +0.000 N 
ATOM     10  N   UNL     1       1.359   2.839  21.171  0.00  0.00    +0.000 NA
ATOM     11  C   UNL     1       1.705   2.397  19.960  0.00  0.00    +0.000 A 
ATOM     12  C   UNL     1       2.389   3.368  19.192  0.00  0.00    +0.000 A 
ATOM     13  C   UNL     1       2.974   3.433  17.911  0.00  0.00    +0.000 A 
ATOM     14  H   UNL     1       1.691   4.657  22.023  0.00  0.00    +0.000 HD
ENDBRANCH   3   5
BRANCH   2  15
ATOM     15  C   UNL     1       6.167   4.412  14.702  0.00  0.00    +0.000 A 
ATOM     16  C   UNL     1       5.576   3.544  13.766  0.00  0.00    +0.000 A 
ATOM     17  C   UNL     1       6.064   3.470  12.463  0.00  0.00    +0.000 A 
ATOM     18  C   UNL     1       7.150   4.259  12.093  0.00  0.00    +0.000 A 
ATOM     19  C   UNL     1       7.731   5.114  13.026  0.00  0.00    +0.000 A 
ATOM     20  F   UNL     1       8.788   5.852  12.664  0.00  0.00    +0.000 F 
ATOM     21  C   UNL     1       7.252   5.206  14.329  0.00  0.00    +0.000 A 
ENDBRANCH   2  15
TORSDOF 2
ENDMDL
MODEL 4
REMARK VINA RESULT:      -7.4      0.872      1.880
REMARK  Name = 
REMARK  2 active torsions:
REMARK  status: ('A' for Active; 'I' for Inactive)
REMARK    1  A    between atoms: C_2  and  C_13
REMARK    2  A    between atoms: N_3  and  C_4
REMARK                            x       y       z     vdW  Elec       q    Type
REMARK                         _______ _______ _______ _____ _____    ______ ____
ROOT
ATOM      1  O   UNL     1       6.731   5.485  16.485  0.00  0.00    +0.000 OA
ATOM      2  C   UNL     1       5.889   4.915  15.796  0.00  0.00    +0.000 C 
ATOM      3  N   UNL     1       4.614   4.547  16.187  0.00  0.00    +0.000 N 
ATOM      4  H   UNL     1       4.110   3.894  15.596  0.00  0.00    +0.000 HD
ENDROOT
BRANCH   3   5
ATOM      5  C   UNL     1       4.047   4.817  17.458  0.00  0.00    +0.000 A 
ATOM      6  C   UNL     1       3.963   3.845  18.463  0.00  0.00    +0.000 A 
ATOM      7  C   UNL     1       3.333   4.092  19.689  0.00  0.00    +0.000 A 
ATOM      8  C   UNL     1       2.792   5.362  19.872  0.00  0.00    +0.000 A 
ATOM      9  N   UNL     1       2.093   5.906  20.916  0.00  0.00    +0.000 N 
ATOM     10  N   UNL     1       1.731   7.187  20.722  0.00  0.00    +0.000 NA
ATOM     11  C   UNL     1       2.214   7.463  19.508  0.00  0.00    +0.000 A 
ATOM     12  C   UNL     1       2.887   6.368  18.919  0.00  0.00    +0.000 A 
ATOM     13  C   UNL     1       3.544   6.107  17.699  0.00  0.00    +0.000 A 
ATOM     14  H   UNL     1       1.826   5.453  21.782  0.00  0.00    +0.000 HD
ENDBRANCH   3   5
BRANCH   2  15
ATOM     15  C   UNL     1       6.304   4.525  14.425  0.00  0.00    +0.000 A 
ATOM     16  C   UNL     1       7.397   5.201  13.856  0.00  0.00    +0.000 A 
ATOM     17  C   UNL     1       7.782   4.946  12.542  0.00  0.00    +0.000 A 
ATOM     18  C   UNL     1       7.069   4.018  11.787  0.00  0.00    +0.000 A 
ATOM     19  C   UNL     1       5.986   3.354  12.357  0.00  0.00    +0.000 A 
ATOM     20  F   UNL     1       5.294   2.479  11.615  0.00  0.00    +0.000 F 
ATOM     21  C   UNL     1       5.593   3.591  13.670  0.00  0.00    +0.000 A 
ENDBRANCH   2  15
TORSDOF 2
ENDMDL
MODEL 5
REMARK VINA RESULT:      -7.4      1.481      1.529
REMARK  Name = 
REMARK  2 active torsions:
REMARK  status: ('A' for Active; 'I' for Inactive)
REMARK    1  A    between atoms: C_2  and  C_13
REMARK    2  A    between atoms: N_3  and  C_4
REMARK                            x       y       z     vdW  Elec       q    Type
REMARK                         _______ _______ _______ _____ _____    ______ ____
ROOT
ATOM      1  O   UNL     1       4.588   5.640  16.662  0.00  0.00    +0.000 OA
ATOM      2  C   UNL     1       4.712   4.529  16.155  0.00  0.00    +0.000 C 
ATOM      3  N   UNL     1       4.119   3.354  16.582  0.00  0.00    +0.000 N 
ATOM      4  H   UNL     1       4.479   2.482  16.210  0.00  0.00    +0.000 HD
ENDROOT
BRANCH   3   5
ATOM      5  C   UNL     1       3.216   3.253  17.670  0.00  0.00    +0.000 A 
ATOM      6  C   UNL     1       1.863   3.601  17.556  0.00  0.00    +0.000 A 
ATOM      7  C   UNL     1       0.992   3.572  18.652  0.00  0.00    +0.000 A 
ATOM      8  C   UNL     1       1.530   3.174  19.872  0.00  0.00    +0.000 A 
ATOM      9  N   UNL     1       0.971   3.075  21.119  0.00  0.00    +0.000 N 
ATOM     10  N   UNL     1       1.824   2.645  22.066  0.00  0.00    +0.000 NA
ATOM     11  C   UNL     1       2.966   2.470  21.397  0.00  0.00    +0.000 A 
ATOM     12  C   UNL     1       2.854   2.783  20.023  0.00  0.00    +0.000 A 
ATOM     13  C   UNL     1       3.712   2.797  18.904  0.00  0.00    +0.000 A 
ATOM     14  H   UNL     1       0.019   3.294  21.386  0.00  0.00    +0.000 HD
ENDBRANCH   3   5
BRANCH   2  15
ATOM     15  C   UNL     1       5.644   4.424  15.004  0.00  0.00    +0.000 A 
ATOM     16  C   UNL     1       6.836   5.168  15.058  0.00  0.00    +0.000 A 
ATOM     17  C   UNL     1       7.711   5.184  13.974  0.00  0.00    +0.000 A 
ATOM     18  C   UNL     1       7.393   4.461  12.827  0.00  0.00    +0.000 A 
ATOM     19  C   UNL     1       6.210   3.728  12.780  0.00  0.00    +0.000 A 
ATOM     20  F   UNL     1       5.905   3.053  11.664  0.00  0.00    +0.000 F 
ATOM     21  C   UNL     1       5.329   3.695  13.856  0.00  0.00    +0.000 A 
ENDBRANCH   2  15
TORSDOF 2
ENDMDL
MODEL 6
REMARK VINA RESULT:      -7.3      1.394      2.264
REMARK  Name = 
REMARK  2 active torsions:
REMARK  status: ('A' for Active; 'I' for Inactive)
REMARK    1  A    between atoms: C_2  and  C_13
REMARK    2  A    between atoms: N_3  and  C_4
REMARK                            x       y       z     vdW  Elec       q    Type
REMARK                         _______ _______ _______ _____ _____    ______ ____
ROOT
ATOM      1  O   UNL     1       6.731   4.148  16.772  0.00  0.00    +0.000 OA
ATOM      2  C   UNL     1       5.885   4.139  15.883  0.00  0.00    +0.000 C 
ATOM      3  N   UNL     1       4.528   3.916  16.036  0.00  0.00    +0.000 N 
ATOM      4  H   UNL     1       3.985   3.720  15.202  0.00  0.00    +0.000 HD
ENDROOT
BRANCH   3   5
ATOM      5  C   UNL     1       3.878   3.704  17.278  0.00  0.00    +0.000 A 
ATOM      6  C   UNL     1       3.636   2.422  17.788  0.00  0.00    +0.000 A 
ATOM      7  C   UNL     1       2.925   2.215  18.977  0.00  0.00    +0.000 A 
ATOM      8  C   UNL     1       2.468   3.349  19.642  0.00  0.00    +0.000 A 
ATOM      9  N   UNL     1       1.727   3.492  20.784  0.00  0.00    +0.000 N 
ATOM     10  N   UNL     1       1.480   4.772  21.118  0.00  0.00    +0.000 NA
ATOM     11  C   UNL     1       2.083   5.465  20.150  0.00  0.00    +0.000 A 
ATOM     12  C   UNL     1       2.719   4.640  19.193  0.00  0.00    +0.000 A 
ATOM     13  C   UNL     1       3.455   4.830  18.006  0.00  0.00    +0.000 A 
ATOM     14  H   UNL     1       1.354   2.757  21.373  0.00  0.00    +0.000 HD
ENDBRANCH   3   5
BRANCH   2  15
ATOM     15  C   UNL     1       6.376   4.323  14.494  0.00  0.00    +0.000 A 
ATOM     16  C   UNL     1       5.853   3.479  13.499  0.00  0.00    +0.000 A 
ATOM     17  C   UNL     1       6.336   3.539  12.193  0.00  0.00    +0.000 A 
ATOM     18  C   UNL     1       7.350   4.440  11.879  0.00  0.00    +0.000 A 
ATOM     19  C   UNL     1       7.865   5.272  12.871  0.00  0.00    +0.000 A 
ATOM     20  F   UNL     1       8.855   6.119  12.563  0.00  0.00    +0.000 F 
ATOM     21  C   UNL     1       7.389   5.230  14.177  0.00  0.00    +0.000 A 
ENDBRANCH   2  15
TORSDOF 2
ENDMDL
MODEL 7
REMARK VINA RESULT:      -7.3      1.123      1.154
REMARK  Name = 
REMARK  2 active torsions:
REMARK  status: ('A' for Active; 'I' for Inactive)
REMARK    1  A    between atoms: C_2  and  C_13
REMARK    2  A    between atoms: N_3  and  C_4
REMARK                            x       y       z     vdW  Elec       q    Type
REMARK                         _______ _______ _______ _____ _____    ______ ____
ROOT
ATOM      1  O   UNL     1       5.391   6.273  15.483  0.00  0.00    +0.000 OA
ATOM      2  C   UNL     1       5.365   5.055  15.325  0.00  0.00    +0.000 C 
ATOM      3  N   UNL     1       4.871   4.118  16.214  0.00  0.00    +0.000 N 
ATOM      4  H   UNL     1       5.110   3.145  16.055  0.00  0.00    +0.000 HD
ENDROOT
BRANCH   3   5
ATOM      5  C   UNL     1       4.261   4.424  17.457  0.00  0.00    +0.000 A 
ATOM      6  C   UNL     1       4.915   5.162  18.452  0.00  0.00    +0.000 A 
ATOM      7  C   UNL     1       4.340   5.396  19.706  0.00  0.00    +0.000 A 
ATOM      8  C   UNL     1       3.073   4.863  19.926  0.00  0.00    +0.000 A 
ATOM      9  N   UNL     1       2.264   4.877  21.030  0.00  0.00    +0.000 N 
ATOM     10  N   UNL     1       1.090   4.243  20.855  0.00  0.00    +0.000 NA
ATOM     11  C   UNL     1       1.160   3.807  19.595  0.00  0.00    +0.000 A 
ATOM     12  C   UNL     1       2.371   4.158  18.956  0.00  0.00    +0.000 A 
ATOM     13  C   UNL     1       2.958   3.951  17.690  0.00  0.00    +0.000 A 
ATOM     14  H   UNL     1       2.459   5.293  21.933  0.00  0.00    +0.000 HD
ENDBRANCH   3   5
BRANCH   2  15
ATOM     15  C   UNL     1       5.983   4.532  14.081  0.00  0.00    +0.000 A 
ATOM     16  C   UNL     1       7.173   5.136  13.638  0.00  0.00    +0.000 A 
ATOM     17  C   UNL     1       7.756   4.753  12.432  0.00  0.00    +0.000 A 
ATOM     18  C   UNL     1       7.146   3.768  11.659  0.00  0.00    +0.000 A 
ATOM     19  C   UNL     1       5.967   3.176  12.103  0.00  0.00    +0.000 A 
ATOM     20  F   UNL     1       5.377   2.245  11.342  0.00  0.00    +0.000 F 
ATOM     21  C   UNL     1       5.375   3.541  13.308  0.00  0.00    +0.000 A 
ENDBRANCH   2  15
TORSDOF 2
ENDMDL
MODEL 8
REMARK VINA RESULT:      -7.3      4.459      7.940
REMARK  Name = 
REMARK  2 active torsions:
REMARK  status: ('A' for Active; 'I' for Inactive)
REMARK    1  A    between atoms: C_2  and  C_13
REMARK    2  A    between atoms: N_3  and  C_4
REMARK                            x       y       z     vdW  Elec       q    Type
REMARK                         _______ _______ _______ _____ _____    ______ ____
ROOT
ATOM      1  O   UNL     1       2.335   8.616  17.377  0.00  0.00    +0.000 OA
ATOM      2  C   UNL     1       2.213   8.099  18.484  0.00  0.00    +0.000 C 
ATOM      3  N   UNL     1       2.723   6.878  18.886  0.00  0.00    +0.000 N 
ATOM      4  H   UNL     1       2.364   6.477  19.747  0.00  0.00    +0.000 HD
ENDROOT
BRANCH   3   5
ATOM      5  C   UNL     1       3.526   6.031  18.081  0.00  0.00    +0.000 A 
ATOM      6  C   UNL     1       3.103   4.757  17.680  0.00  0.00    +0.000 A 
ATOM      7  C   UNL     1       3.928   3.893  16.951  0.00  0.00    +0.000 A 
ATOM      8  C   UNL     1       5.200   4.359  16.632  0.00  0.00    +0.000 A 
ATOM      9  N   UNL     1       6.244   3.765  15.974  0.00  0.00    +0.000 N 
ATOM     10  N   UNL     1       7.332   4.548  15.857  0.00  0.00    +0.000 NA
ATOM     11  C   UNL     1       6.965   5.678  16.466  0.00  0.00    +0.000 A 
ATOM     12  C   UNL     1       5.647   5.629  16.974  0.00  0.00    +0.000 A 
ATOM     13  C   UNL     1       4.794   6.494  17.690  0.00  0.00    +0.000 A 
ATOM     14  H   UNL     1       6.278   2.827  15.592  0.00  0.00    +0.000 HD
ENDBRANCH   3   5
BRANCH   2  15
ATOM     15  C   UNL     1       1.379   8.830  19.471  0.00  0.00    +0.000 A 
ATOM     16  C   UNL     1       1.362   8.351  20.793  0.00  0.00    +0.000 A 
ATOM     17  C   UNL     1       0.533   8.937  21.748  0.00  0.00    +0.000 A 
ATOM     18  C   UNL     1      -0.289  10.000  21.381  0.00  0.00    +0.000 A 
ATOM     19  C   UNL     1      -0.267  10.468  20.070  0.00  0.00    +0.000 A 
ATOM     20  F   UNL     1      -1.077  11.476  19.724  0.00  0.00    +0.000 F 
ATOM     21  C   UNL     1       0.560   9.900  19.106  0.00  0.00    +0.000 A 
ENDBRANCH   2  15
TORSDOF 2
ENDMDL
MODEL 9
REMARK VINA RESULT:      -7.3      3.333      7.437
REMARK  Name = 
REMARK  2 active torsions:
REMARK  status: ('A' for Active; 'I' for Inactive)
REMARK    1  A    between atoms: C_2  and  C_13
REMARK    2  A    between atoms: N_3  and  C_4
REMARK                            x       y       z     vdW  Elec       q    Type
REMARK                         _______ _______ _______ _____ _____    ______ ____
ROOT
ATOM      1  O   UNL     1       3.587   5.720  17.587  0.00  0.00    +0.000 OA
ATOM      2  C   UNL     1       3.747   4.521  17.800  0.00  0.00    +0.000 C 
ATOM      3  N   UNL     1       4.638   3.680  17.159  0.00  0.00    +0.000 N 
ATOM      4  H   UNL     1       4.512   2.680  17.278  0.00  0.00    +0.000 HD
ENDROOT
BRANCH   3   5
ATOM      5  C   UNL     1       5.563   4.087  16.165  0.00  0.00    +0.000 A 
ATOM      6  C   UNL     1       6.589   5.004  16.426  0.00  0.00    +0.000 A 
ATOM      7  C   UNL     1       7.452   5.462  15.423  0.00  0.00    +0.000 A 
ATOM      8  C   UNL     1       7.250   4.958  14.142  0.00  0.00    +0.000 A 
ATOM      9  N   UNL     1       7.881   5.221  12.955  0.00  0.00    +0.000 N 
ATOM     10  N   UNL     1       7.395   4.523  11.912  0.00  0.00    +0.000 NA
ATOM     11  C   UNL     1       6.418   3.795  12.456  0.00  0.00    +0.000 A 
ATOM     12  C   UNL     1       6.271   4.017  13.845  0.00  0.00    +0.000 A 
ATOM     13  C   UNL     1       5.425   3.551  14.872  0.00  0.00    +0.000 A 
ATOM     14  H   UNL     1       8.641   5.871  12.792  0.00  0.00    +0.000 HD
ENDBRANCH   3   5
BRANCH   2  15
ATOM     15  C   UNL     1       2.847   3.898  18.804  0.00  0.00    +0.000 A 
ATOM     16  C   UNL     1       1.722   3.201  18.329  0.00  0.00    +0.000 A 
ATOM     17  C   UNL     1       0.791   2.670  19.219  0.00  0.00    +0.000 A 
ATOM     18  C   UNL     1       0.978   2.840  20.588  0.00  0.00    +0.000 A 
ATOM     19  C   UNL     1       2.094   3.533  21.051  0.00  0.00    +0.000 A 
ATOM     20  F   UNL     1       2.252   3.709  22.369  0.00  0.00    +0.000 F 
ATOM     21  C   UNL     1       3.037   4.064  20.177  0.00  0.00    +0.000 A 
ENDBRANCH   2  15
TORSDOF 2
ENDMDL
