MODEL 1
REMARK VINA RESULT:      -8.4      0.000      0.000
REMARK  Name = 
REMARK  9 active torsions:
REMARK  status: ('A' for Active; 'I' for Inactive)
REMARK    1  A    between atoms: C_1  and  C_2
REMARK    2  A    between atoms: C_2  and  C_3
REMARK    3  A    between atoms: C_3  and  C_4
REMARK    4  A    between atoms: C_4  and  N_5
REMARK    5  A    between atoms: C_6  and  C_8
REMARK    6  A    between atoms: C_8  and  O_9
REMARK    7  A    between atoms: N_20  and  C_21
REMARK    8  A    between atoms: C_25  and  O_26
REMARK    9  A    between atoms: O_26  and  C_27
REMARK                            x       y       z     vdW  Elec       q    Type
REMARK                         _______ _______ _______ _____ _____    ______ ____
ROOT
ATOM      1  C   UNL     1       5.888   4.809  17.146  0.00  0.00    +0.000 C 
ATOM      2  C   UNL     1       4.614   4.802  17.976  0.00  0.00    +0.000 A 
ATOM      3  C   UNL     1       4.353   3.870  18.995  0.00  0.00    +0.000 A 
ATOM      4  C   UNL     1       3.155   3.925  19.708  0.00  0.00    +0.000 A 
ATOM      5 BR   UNL     1       2.823   2.670  21.081  0.00  0.00    +0.000 Br
ATOM      6  C   UNL     1       2.205   4.904  19.424  0.00  0.00    +0.000 A 
ATOM      7  C   UNL     1       2.474   5.861  18.447  0.00  0.00    +0.000 A 
ATOM      8  C   UNL     1       3.677   5.809  17.743  0.00  0.00    +0.000 A 
ATOM      9  N   UNL     1       3.950   6.772  16.780  0.00  0.00    +0.000 N 
ATOM     10  C   UNL     1       4.894   6.629  15.808  0.00  0.00    +0.000 C 
ATOM     11  O   UNL     1       4.977   7.485  14.926  0.00  0.00    +0.000 OA
ATOM     12  N   UNL     1       5.668   5.484  15.858  0.00  0.00    +0.000 N 
ATOM     13  H   UNL     1       3.316   7.550  16.641  0.00  0.00    +0.000 HD
ENDROOT
BRANCH  12  14
ATOM     14  C   UNL     1       6.135   4.914  14.641  0.00  0.00    +0.000 A 
ATOM     15  C   UNL     1       7.389   5.311  14.157  0.00  0.00    +0.000 A 
ATOM     16  C   UNL     1       7.838   4.873  12.915  0.00  0.00    +0.000 A 
ATOM     17  C   UNL     1       7.048   3.998  12.171  0.00  0.00    +0.000 A 
ATOM     18  C   UNL     1       5.812   3.562  12.655  0.00  0.00    +0.000 A 
ATOM     19  C   UNL     1       5.351   4.031  13.887  0.00  0.00    +0.000 A 
BRANCH  18  20
ATOM     20  O   UNL     1       5.148   2.696  11.829  0.00  0.00    +0.000 OA
ATOM     21  C   UNL     1       3.974   3.186  11.194  0.00  0.00    +0.000 C 
ENDBRANCH  18  20
ENDBRANCH  12  14
BRANCH   1  23
ATOM     22  N   UNL     1       7.244   6.835  17.794  0.00  0.00    +0.000 N 
ATOM     23  C   UNL     1       7.072   5.476  17.953  0.00  0.00    +0.000 C 
ATOM     24  O   UNL     1       7.834   4.795  18.645  0.00  0.00    +0.000 OA
ATOM     25  H   UNL     1       6.729   7.296  17.048  0.00  0.00    +0.000 HD
BRANCH  22  26
ATOM     26  C   UNL     1       8.279   7.578  18.481  0.00  0.00    +0.000 C 
BRANCH  26  27
ATOM     27  C   UNL     1       8.283   9.045  18.058  0.00  0.00    +0.000 C 
BRANCH  27  29
ATOM     28  C   UNL     1       9.696  11.123  18.300  0.00  0.00    +0.000 C 
ATOM     29  C   UNL     1       9.104   9.917  19.011  0.00  0.00    +0.000 C 
ENDBRANCH  27  29
ENDBRANCH  26  27
ENDBRANCH  22  26
ENDBRANCH   1  23
BRANCH   1  30
ATOM     30  O   UNL     1       6.246   3.438  16.917  0.00  0.00    +0.000 OA
ATOM     31  H   UNL     1       6.777   3.172  17.690  0.00  0.00    +0.000 HD
ENDBRANCH   1  30
TORSDOF 7
ENDMDL
MODEL 2
REMARK VINA RESULT:      -7.9      0.916      1.138
REMARK  Name = 
REMARK  9 active torsions:
REMARK  status: ('A' for Active; 'I' for Inactive)
REMARK    1  A    between atoms: C_1  and  C_2
REMARK    2  A    between atoms: C_2  and  C_3
REMARK    3  A    between atoms: C_3  and  C_4
REMARK    4  A    between atoms: C_4  and  N_5
REMARK    5  A    between atoms: C_6  and  C_8
REMARK    6  A    between atoms: C_8  and  O_9
REMARK    7  A    between atoms: N_20  and  C_21
REMARK    8  A    between atoms: C_25  and  O_26
REMARK    9  A    between atoms: O_26  and  C_27
REMARK                            x       y       z     vdW  Elec       q    Type
REMARK                         _______ _______ _______ _____ _____    ______ ____
ROOT
ATOM      1  C   UNL     1       5.638   4.265  16.817  0.00  0.00    +0.000 C 
ATOM      2  C   UNL     1       4.377   4.409  17.653  0.00  0.00    +0.000 A 
ATOM      3  C   UNL     1       3.940   3.445  18.577  0.00  0.00    +0.000 A 
ATOM      4  C   UNL     1       2.765   3.648  19.303  0.00  0.00    +0.000 A 
ATOM      5 BR   UNL     1       2.195   2.346  20.548  0.00  0.00    +0.000 Br
ATOM      6  C   UNL     1       2.013   4.808  19.125  0.00  0.00    +0.000 A 
ATOM      7  C   UNL     1       2.462   5.791  18.245  0.00  0.00    +0.000 A 
ATOM      8  C   UNL     1       3.641   5.589  17.529  0.00  0.00    +0.000 A 
ATOM      9  N   UNL     1       4.096   6.576  16.664  0.00  0.00    +0.000 N 
ATOM     10  C   UNL     1       5.007   6.360  15.674  0.00  0.00    +0.000 C 
ATOM     11  O   UNL     1       5.254   7.269  14.881  0.00  0.00    +0.000 OA
ATOM     12  N   UNL     1       5.558   5.094  15.604  0.00  0.00    +0.000 N 
ATOM     13  H   UNL     1       3.616   7.467  16.608  0.00  0.00    +0.000 HD
ENDROOT
BRANCH  12  14
ATOM     14  C   UNL     1       5.924   4.570  14.332  0.00  0.00    +0.000 A 
ATOM     15  C   UNL     1       7.201   4.863  13.834  0.00  0.00    +0.000 A 
ATOM     16  C   UNL     1       7.563   4.475  12.548  0.00  0.00    +0.000 A 
ATOM     17  C   UNL     1       6.660   3.752  11.771  0.00  0.00    +0.000 A 
ATOM     18  C   UNL     1       5.396   3.419  12.266  0.00  0.00    +0.000 A 
ATOM     19  C   UNL     1       5.026   3.839  13.545  0.00  0.00    +0.000 A 
BRANCH  18  20
ATOM     20  O   UNL     1       4.618   2.696  11.403  0.00  0.00    +0.000 OA
ATOM     21  C   UNL     1       3.584   3.401  10.727  0.00  0.00    +0.000 C 
ENDBRANCH  18  20
ENDBRANCH  12  14
BRANCH   1  23
ATOM     22  N   UNL     1       6.736   5.496  18.726  0.00  0.00    +0.000 N 
ATOM     23  C   UNL     1       6.917   4.621  17.675  0.00  0.00    +0.000 C 
ATOM     24  O   UNL     1       8.028   4.174  17.376  0.00  0.00    +0.000 OA
ATOM     25  H   UNL     1       5.852   5.995  18.784  0.00  0.00    +0.000 HD
BRANCH  22  26
ATOM     26  C   UNL     1       7.816   5.899  19.602  0.00  0.00    +0.000 C 
BRANCH  26  27
ATOM     27  C   UNL     1       8.530   7.139  19.068  0.00  0.00    +0.000 C 
BRANCH  27  29
ATOM     28  C   UNL     1       7.973   9.242  17.788  0.00  0.00    +0.000 C 
ATOM     29  C   UNL     1       7.821   7.731  17.847  0.00  0.00    +0.000 C 
ENDBRANCH  27  29
ENDBRANCH  26  27
ENDBRANCH  22  26
ENDBRANCH   1  23
BRANCH   1  30
ATOM     30  O   UNL     1       5.741   2.882  16.451  0.00  0.00    +0.000 OA
ATOM     31  H   UNL     1       5.994   2.876  15.509  0.00  0.00    +0.000 HD
ENDBRANCH   1  30
TORSDOF 7
ENDMDL
MODEL 3
REMARK VINA RESULT:      -6.7      2.768      5.533
REMARK  Name = 
REMARK  9 active torsions:
REMARK  status: ('A' for Active; 'I' for Inactive)
REMARK    1  A    between atoms: C_1  and  C_2
REMARK    2  A    between atoms: C_2  and  C_3
REMARK    3  A    between atoms: C_3  and  C_4
REMARK    4  A    between atoms: C_4  and  N_5
REMARK    5  A    between atoms: C_6  and  C_8
REMARK    6  A    between atoms: C_8  and  O_9
REMARK    7  A    between atoms: N_20  and  C_21
REMARK    8  A    between atoms: C_25  and  O_26
REMARK    9  A    between atoms: O_26  and  C_27
REMARK                            x       y       z     vdW  Elec       q    Type
REMARK                         _______ _______ _______ _____ _____    ______ ____
ROOT
ATOM      1  C   UNL     1       3.722   5.536  18.691  0.00  0.00    +0.000 C 
ATOM      2  C   UNL     1       3.132   4.173  19.017  0.00  0.00    +0.000 A 
ATOM      3  C   UNL     1       2.436   3.889  20.204  0.00  0.00    +0.000 A 
ATOM      4  C   UNL     1       1.929   2.609  20.432  0.00  0.00    +0.000 A 
ATOM      5 BR   UNL     1       0.989   2.244  22.030  0.00  0.00    +0.000 Br
ATOM      6  C   UNL     1       2.102   1.598  19.489  0.00  0.00    +0.000 A 
ATOM      7  C   UNL     1       2.750   1.883  18.288  0.00  0.00    +0.000 A 
ATOM      8  C   UNL     1       3.246   3.165  18.058  0.00  0.00    +0.000 A 
ATOM      9  N   UNL     1       3.879   3.451  16.855  0.00  0.00    +0.000 N 
ATOM     10  C   UNL     1       4.694   4.525  16.661  0.00  0.00    +0.000 C 
ATOM     11  O   UNL     1       5.306   4.626  15.596  0.00  0.00    +0.000 OA
ATOM     12  N   UNL     1       4.815   5.412  17.715  0.00  0.00    +0.000 N 
ATOM     13  H   UNL     1       3.914   2.756  16.119  0.00  0.00    +0.000 HD
ENDROOT
BRANCH  12  14
ATOM     14  C   UNL     1       6.048   6.098  17.903  0.00  0.00    +0.000 A 
ATOM     15  C   UNL     1       7.038   5.485  18.683  0.00  0.00    +0.000 A 
ATOM     16  C   UNL     1       8.212   6.164  18.993  0.00  0.00    +0.000 A 
ATOM     17  C   UNL     1       8.418   7.445  18.485  0.00  0.00    +0.000 A 
ATOM     18  C   UNL     1       7.457   8.056  17.675  0.00  0.00    +0.000 A 
ATOM     19  C   UNL     1       6.266   7.384  17.393  0.00  0.00    +0.000 A 
BRANCH  18  20
ATOM     20  O   UNL     1       7.794   9.307  17.234  0.00  0.00    +0.000 OA
ATOM     21  C   UNL     1       8.634  10.081  18.082  0.00  0.00    +0.000 C 
ENDBRANCH  18  20
ENDBRANCH  12  14
BRANCH   1  23
ATOM     22  N   UNL     1       2.751   7.855  18.483  0.00  0.00    +0.000 N 
ATOM     23  C   UNL     1       2.597   6.520  18.176  0.00  0.00    +0.000 C 
ATOM     24  O   UNL     1       1.606   6.094  17.577  0.00  0.00    +0.000 OA
ATOM     25  H   UNL     1       3.466   8.108  19.161  0.00  0.00    +0.000 HD
BRANCH  22  26
ATOM     26  C   UNL     1       1.806   8.868  18.065  0.00  0.00    +0.000 C 
BRANCH  26  27
ATOM     27  C   UNL     1       1.073   9.471  19.261  0.00  0.00    +0.000 C 
BRANCH  27  29
ATOM     28  C   UNL     1       0.100   8.852  21.506  0.00  0.00    +0.000 C 
ATOM     29  C   UNL     1       1.237   8.623  20.524  0.00  0.00    +0.000 C 
ENDBRANCH  27  29
ENDBRANCH  26  27
ENDBRANCH  22  26
ENDBRANCH   1  23
BRANCH   1  30
ATOM     30  O   UNL     1       4.231   6.075  19.920  0.00  0.00    +0.000 OA
ATOM     31  H   UNL     1       3.455   6.192  20.499  0.00  0.00    +0.000 HD
ENDBRANCH   1  30
TORSDOF 7
ENDMDL
MODEL 4
REMARK VINA RESULT:      -6.6      8.499     11.264
REMARK  Name = 
REMARK  9 active torsions:
REMARK  status: ('A' for Active; 'I' for Inactive)
REMARK    1  A    between atoms: C_1  and  C_2
REMARK    2  A    between atoms: C_2  and  C_3
REMARK    3  A    between atoms: C_3  and  C_4
REMARK    4  A    between atoms: C_4  and  N_5
REMARK    5  A    between atoms: C_6  and  C_8
REMARK    6  A    between atoms: C_8  and  O_9
REMARK    7  A    between atoms: N_20  and  C_21
REMARK    8  A    between atoms: C_25  and  O_26
REMARK    9  A    between atoms: O_26  and  C_27
REMARK                            x       y       z     vdW  Elec       q    Type
REMARK                         _______ _______ _______ _____ _____    ______ ____
ROOT
ATOM      1  C   UNL     1      -1.070  12.303  18.984  0.00  0.00    +0.000 C 
ATOM      2  C   UNL     1      -2.504  12.341  19.486  0.00  0.00    +0.000 A 
ATOM      3  C   UNL     1      -3.617  12.008  18.694  0.00  0.00    +0.000 A 
ATOM      4  C   UNL     1      -4.904  12.074  19.229  0.00  0.00    +0.000 A 
ATOM      5 BR   UNL     1      -6.390  11.616  18.154  0.00  0.00    +0.000 Br
ATOM      6  C   UNL     1      -5.105  12.466  20.550  0.00  0.00    +0.000 A 
ATOM      7  C   UNL     1      -4.006  12.753  21.358  0.00  0.00    +0.000 A 
ATOM      8  C   UNL     1      -2.720  12.676  20.824  0.00  0.00    +0.000 A 
ATOM      9  N   UNL     1      -1.624  12.947  21.633  0.00  0.00    +0.000 N 
ATOM     10  C   UNL     1      -0.382  13.247  21.158  0.00  0.00    +0.000 C 
ATOM     11  O   UNL     1       0.494  13.593  21.952  0.00  0.00    +0.000 OA
ATOM     12  N   UNL     1      -0.212  13.187  19.787  0.00  0.00    +0.000 N 
ATOM     13  H   UNL     1      -1.751  13.127  22.622  0.00  0.00    +0.000 HD
ENDROOT
BRANCH  12  14
ATOM     14  C   UNL     1       0.710  14.076  19.167  0.00  0.00    +0.000 A 
ATOM     15  C   UNL     1       1.940  13.563  18.731  0.00  0.00    +0.000 A 
ATOM     16  C   UNL     1       2.920  14.412  18.228  0.00  0.00    +0.000 A 
ATOM     17  C   UNL     1       2.655  15.776  18.118  0.00  0.00    +0.000 A 
ATOM     18  C   UNL     1       1.420  16.299  18.512  0.00  0.00    +0.000 A 
ATOM     19  C   UNL     1       0.452  15.447  19.048  0.00  0.00    +0.000 A 
BRANCH  18  20
ATOM     20  O   UNL     1       1.290  17.650  18.336  0.00  0.00    +0.000 OA
ATOM     21  C   UNL     1       1.009  18.424  19.496  0.00  0.00    +0.000 C 
ENDBRANCH  18  20
ENDBRANCH  12  14
BRANCH   1  23
ATOM     22  N   UNL     1       0.155  10.414  17.845  0.00  0.00    +0.000 N 
ATOM     23  C   UNL     1      -0.523  10.820  18.975  0.00  0.00    +0.000 C 
ATOM     24  O   UNL     1      -0.746  10.055  19.917  0.00  0.00    +0.000 OA
ATOM     25  H   UNL     1       0.113  11.013  17.024  0.00  0.00    +0.000 HD
BRANCH  22  26
ATOM     26  C   UNL     1       0.720   9.089  17.706  0.00  0.00    +0.000 C 
BRANCH  26  27
ATOM     27  C   UNL     1       2.235   9.109  17.892  0.00  0.00    +0.000 C 
BRANCH  27  29
ATOM     28  C   UNL     1       2.460   7.025  19.298  0.00  0.00    +0.000 C 
ATOM     29  C   UNL     1       2.823   7.699  17.986  0.00  0.00    +0.000 C 
ENDBRANCH  27  29
ENDBRANCH  26  27
ENDBRANCH  22  26
ENDBRANCH   1  23
BRANCH   1  30
ATOM     30  O   UNL     1      -1.092  12.758  17.623  0.00  0.00    +0.000 OA
ATOM     31  H   UNL     1      -2.012  12.643  17.321  0.00  0.00    +0.000 HD
ENDBRANCH   1  30
TORSDOF 7
ENDMDL
MODEL 5
REMARK VINA RESULT:      -6.5      8.607     11.256
REMARK  Name = 
REMARK  9 active torsions:
REMARK  status: ('A' for Active; 'I' for Inactive)
REMARK    1  A    between atoms: C_1  and  C_2
REMARK    2  A    between atoms: C_2  and  C_3
REMARK    3  A    between atoms: C_3  and  C_4
REMARK    4  A    between atoms: C_4  and  N_5
REMARK    5  A    between atoms: C_6  and  C_8
REMARK    6  A    between atoms: C_8  and  O_9
REMARK    7  A    between atoms: N_20  and  C_21
REMARK    8  A    between atoms: C_25  and  O_26
REMARK    9  A    between atoms: O_26  and  C_27
REMARK                            x       y       z     vdW  Elec       q    Type
REMARK                         _______ _______ _______ _____ _____    ______ ____
ROOT
ATOM      1  C   UNL     1      -0.571  12.799  19.535  0.00  0.00    +0.000 C 
ATOM      2  C   UNL     1      -1.821  12.933  20.389  0.00  0.00    +0.000 A 
ATOM      3  C   UNL     1      -3.120  12.685  19.913  0.00  0.00    +0.000 A 
ATOM      4  C   UNL     1      -4.219  12.836  20.759  0.00  0.00    +0.000 A 
ATOM      5 BR   UNL     1      -5.959  12.491  20.107  0.00  0.00    +0.000 Br
ATOM      6  C   UNL     1      -4.046  13.232  22.084  0.00  0.00    +0.000 A 
ATOM      7  C   UNL     1      -2.759  13.436  22.578  0.00  0.00    +0.000 A 
ATOM      8  C   UNL     1      -1.662  13.273  21.733  0.00  0.00    +0.000 A 
ATOM      9  N   UNL     1      -0.379  13.462  22.230  0.00  0.00    +0.000 N 
ATOM     10  C   UNL     1       0.717  13.677  21.448  0.00  0.00    +0.000 C 
ATOM     11  O   UNL     1       1.789  13.956  21.987  0.00  0.00    +0.000 OA
ATOM     12  N   UNL     1       0.525  13.615  20.080  0.00  0.00    +0.000 N 
ATOM     13  H   UNL     1      -0.235  13.643  23.217  0.00  0.00    +0.000 HD
ENDROOT
BRANCH  12  14
ATOM     14  C   UNL     1       1.316  14.442  19.234  0.00  0.00    +0.000 A 
ATOM     15  C   UNL     1       2.387  13.857  18.545  0.00  0.00    +0.000 A 
ATOM     16  C   UNL     1       3.260  14.644  17.800  0.00  0.00    +0.000 A 
ATOM     17  C   UNL     1       3.036  16.017  17.707  0.00  0.00    +0.000 A 
ATOM     18  C   UNL     1       1.950  16.610  18.357  0.00  0.00    +0.000 A 
ATOM     19  C   UNL     1       1.097  15.821  19.131  0.00  0.00    +0.000 A 
BRANCH  18  20
ATOM     20  O   UNL     1       1.842  17.961  18.170  0.00  0.00    +0.000 OA
ATOM     21  C   UNL     1       0.747  18.414  17.384  0.00  0.00    +0.000 C 
ENDBRANCH  18  20
ENDBRANCH  12  14
BRANCH   1  23
ATOM     22  N   UNL     1       0.115  10.817  18.131  0.00  0.00    +0.000 N 
ATOM     23  C   UNL     1      -0.148  11.281  19.403  0.00  0.00    +0.000 C 
ATOM     24  O   UNL     1      -0.112  10.543  20.391  0.00  0.00    +0.000 OA
ATOM     25  H   UNL     1      -0.145  11.409  17.346  0.00  0.00    +0.000 HD
BRANCH  22  26
ATOM     26  C   UNL     1       0.523   9.455  17.864  0.00  0.00    +0.000 C 
BRANCH  26  27
ATOM     27  C   UNL     1       2.042   9.309  17.922  0.00  0.00    +0.000 C 
BRANCH  27  29
ATOM     28  C   UNL     1       3.623   7.376  17.556  0.00  0.00    +0.000 C 
ATOM     29  C   UNL     1       2.470   7.915  18.386  0.00  0.00    +0.000 C 
ENDBRANCH  27  29
ENDBRANCH  26  27
ENDBRANCH  22  26
ENDBRANCH   1  23
BRANCH   1  30
ATOM     30  O   UNL     1      -0.910  13.263  18.220  0.00  0.00    +0.000 OA
ATOM     31  H   UNL     1      -1.025  14.227  18.302  0.00  0.00    +0.000 HD
ENDBRANCH   1  30
TORSDOF 7
ENDMDL
MODEL 6
REMARK VINA RESULT:      -6.5      8.342     10.914
REMARK  Name = 
REMARK  9 active torsions:
REMARK  status: ('A' for Active; 'I' for Inactive)
REMARK    1  A    between atoms: C_1  and  C_2
REMARK    2  A    between atoms: C_2  and  C_3
REMARK    3  A    between atoms: C_3  and  C_4
REMARK    4  A    between atoms: C_4  and  N_5
REMARK    5  A    between atoms: C_6  and  C_8
REMARK    6  A    between atoms: C_8  and  O_9
REMARK    7  A    between atoms: N_20  and  C_21
REMARK    8  A    between atoms: C_25  and  O_26
REMARK    9  A    between atoms: O_26  and  C_27
REMARK                            x       y       z     vdW  Elec       q    Type
REMARK                         _______ _______ _______ _____ _____    ______ ____
ROOT
ATOM      1  C   UNL     1      -0.610  13.009  19.518  0.00  0.00    +0.000 C 
ATOM      2  C   UNL     1       0.770  13.545  19.174  0.00  0.00    +0.000 A 
ATOM      3  C   UNL     1       1.163  14.878  19.386  0.00  0.00    +0.000 A 
ATOM      4  C   UNL     1       2.449  15.295  19.037  0.00  0.00    +0.000 A 
ATOM      5 BR   UNL     1       2.965  17.088  19.336  0.00  0.00    +0.000 Br
ATOM      6  C   UNL     1       3.358  14.400  18.478  0.00  0.00    +0.000 A 
ATOM      7  C   UNL     1       2.993  13.066  18.307  0.00  0.00    +0.000 A 
ATOM      8  C   UNL     1       1.712  12.650  18.667  0.00  0.00    +0.000 A 
ATOM      9  N   UNL     1       1.354  11.317  18.509  0.00  0.00    +0.000 N 
ATOM     10  C   UNL     1       0.066  10.872  18.486  0.00  0.00    +0.000 C 
ATOM     11  O   UNL     1      -0.152   9.689  18.219  0.00  0.00    +0.000 OA
ATOM     12  N   UNL     1      -0.919  11.813  18.720  0.00  0.00    +0.000 N 
ATOM     13  H   UNL     1       2.041  10.636  18.206  0.00  0.00    +0.000 HD
ENDROOT
BRANCH  12  14
ATOM     14  C   UNL     1      -2.181  11.664  18.079  0.00  0.00    +0.000 A 
ATOM     15  C   UNL     1      -3.335  11.647  18.875  0.00  0.00    +0.000 A 
ATOM     16  C   UNL     1      -4.579  11.386  18.309  0.00  0.00    +0.000 A 
ATOM     17  C   UNL     1      -4.677  11.185  16.933  0.00  0.00    +0.000 A 
ATOM     18  C   UNL     1      -3.542  11.237  16.120  0.00  0.00    +0.000 A 
ATOM     19  C   UNL     1      -2.291  11.466  16.697  0.00  0.00    +0.000 A 
BRANCH  18  20
ATOM     20  O   UNL     1      -3.785  11.036  14.788  0.00  0.00    +0.000 OA
ATOM     21  C   UNL     1      -3.095   9.959  14.165  0.00  0.00    +0.000 C 
ENDBRANCH  18  20
ENDBRANCH  12  14
BRANCH   1  23
ATOM     22  N   UNL     1      -0.797  11.389  21.443  0.00  0.00    +0.000 N 
ATOM     23  C   UNL     1      -0.721  12.714  21.067  0.00  0.00    +0.000 C 
ATOM     24  O   UNL     1      -0.790  13.634  21.887  0.00  0.00    +0.000 OA
ATOM     25  H   UNL     1      -0.957  10.696  20.716  0.00  0.00    +0.000 HD
BRANCH  22  26
ATOM     26  C   UNL     1      -0.890  10.973  22.826  0.00  0.00    +0.000 C 
BRANCH  26  27
ATOM     27  C   UNL     1      -0.270   9.593  23.033  0.00  0.00    +0.000 C 
BRANCH  27  29
ATOM     28  C   UNL     1       1.156   8.385  21.337  0.00  0.00    +0.000 C 
ATOM     29  C   UNL     1      -0.257   8.768  21.745  0.00  0.00    +0.000 C 
ENDBRANCH  27  29
ENDBRANCH  26  27
ENDBRANCH  22  26
ENDBRANCH   1  23
BRANCH   1  30
ATOM     30  O   UNL     1      -1.550  14.049  19.213  0.00  0.00    +0.000 OA
ATOM     31  H   UNL     1      -2.413  13.606  19.120  0.00  0.00    +0.000 HD
ENDBRANCH   1  30
TORSDOF 7
ENDMDL
MODEL 7
REMARK VINA RESULT:      -6.4      9.498     12.032
REMARK  Name = 
REMARK  9 active torsions:
REMARK  status: ('A' for Active; 'I' for Inactive)
REMARK    1  A    between atoms: C_1  and  C_2
REMARK    2  A    between atoms: C_2  and  C_3
REMARK    3  A    between atoms: C_3  and  C_4
REMARK    4  A    between atoms: C_4  and  N_5
REMARK    5  A    between atoms: C_6  and  C_8
REMARK    6  A    between atoms: C_8  and  O_9
REMARK    7  A    between atoms: N_20  and  C_21
REMARK    8  A    between atoms: C_25  and  O_26
REMARK    9  A    between atoms: O_26  and  C_27
REMARK                            x       y       z     vdW  Elec       q    Type
REMARK                         _______ _______ _______ _____ _____    ______ ____
ROOT
ATOM      1  C   UNL     1      -1.259  12.680  19.725  0.00  0.00    +0.000 C 
ATOM      2  C   UNL     1      -2.304  12.766  20.824  0.00  0.00    +0.000 A 
ATOM      3  C   UNL     1      -3.536  13.428  20.679  0.00  0.00    +0.000 A 
ATOM      4  C   UNL     1      -4.442  13.468  21.739  0.00  0.00    +0.000 A 
ATOM      5 BR   UNL     1      -6.096  14.356  21.526  0.00  0.00    +0.000 Br
ATOM      6  C   UNL     1      -4.142  12.853  22.953  0.00  0.00    +0.000 A 
ATOM      7  C   UNL     1      -2.944  12.154  23.092  0.00  0.00    +0.000 A 
ATOM      8  C   UNL     1      -2.045  12.107  22.026  0.00  0.00    +0.000 A 
ATOM      9  N   UNL     1      -0.858  11.398  22.161  0.00  0.00    +0.000 N 
ATOM     10  C   UNL     1       0.225  11.567  21.352  0.00  0.00    +0.000 C 
ATOM     11  O   UNL     1       1.273  10.981  21.627  0.00  0.00    +0.000 OA
ATOM     12  N   UNL     1       0.077  12.442  20.292  0.00  0.00    +0.000 N 
ATOM     13  H   UNL     1      -0.679  10.856  22.999  0.00  0.00    +0.000 HD
ENDROOT
BRANCH  12  14
ATOM     14  C   UNL     1       1.206  13.189  19.851  0.00  0.00    +0.000 A 
ATOM     15  C   UNL     1       1.832  12.806  18.657  0.00  0.00    +0.000 A 
ATOM     16  C   UNL     1       3.007  13.429  18.246  0.00  0.00    +0.000 A 
ATOM     17  C   UNL     1       3.535  14.469  19.009  0.00  0.00    +0.000 A 
ATOM     18  C   UNL     1       2.902  14.887  20.182  0.00  0.00    +0.000 A 
ATOM     19  C   UNL     1       1.742  14.238  20.609  0.00  0.00    +0.000 A 
BRANCH  18  20
ATOM     20  O   UNL     1       3.520  15.926  20.825  0.00  0.00    +0.000 OA
ATOM     21  C   UNL     1       3.346  16.004  22.234  0.00  0.00    +0.000 C 
ENDBRANCH  18  20
ENDBRANCH  12  14
BRANCH   1  23
ATOM     22  N   UNL     1      -2.201  11.993  17.487  0.00  0.00    +0.000 N 
ATOM     23  C   UNL     1      -1.647  11.563  18.675  0.00  0.00    +0.000 C 
ATOM     24  O   UNL     1      -1.506  10.366  18.939  0.00  0.00    +0.000 OA
ATOM     25  H   UNL     1      -2.492  12.965  17.422  0.00  0.00    +0.000 HD
BRANCH  22  26
ATOM     26  C   UNL     1      -2.592  11.082  16.433  0.00  0.00    +0.000 C 
BRANCH  26  27
ATOM     27  C   UNL     1      -4.082  10.758  16.503  0.00  0.00    +0.000 C 
BRANCH  27  29
ATOM     28  C   UNL     1      -5.642  11.254  18.424  0.00  0.00    +0.000 C 
ATOM     29  C   UNL     1      -4.872  11.835  17.251  0.00  0.00    +0.000 C 
ENDBRANCH  27  29
ENDBRANCH  26  27
ENDBRANCH  22  26
ENDBRANCH   1  23
BRANCH   1  30
ATOM     30  O   UNL     1      -1.273  13.938  19.035  0.00  0.00    +0.000 OA
ATOM     31  H   UNL     1      -0.830  13.776  18.182  0.00  0.00    +0.000 HD
ENDBRANCH   1  30
TORSDOF 7
ENDMDL
MODEL 8
REMARK VINA RESULT:      -6.4      8.554     11.371
REMARK  Name = 
REMARK  9 active torsions:
REMARK  status: ('A' for Active; 'I' for Inactive)
REMARK    1  A    between atoms: C_1  and  C_2
REMARK    2  A    between atoms: C_2  and  C_3
REMARK    3  A    between atoms: C_3  and  C_4
REMARK    4  A    between atoms: C_4  and  N_5
REMARK    5  A    between atoms: C_6  and  C_8
REMARK    6  A    between atoms: C_8  and  O_9
REMARK    7  A    between atoms: N_20  and  C_21
REMARK    8  A    between atoms: C_25  and  O_26
REMARK    9  A    between atoms: O_26  and  C_27
REMARK                            x       y       z     vdW  Elec       q    Type
REMARK                         _______ _______ _______ _____ _____    ______ ____
ROOT
ATOM      1  C   UNL     1      -0.865  12.077  18.782  0.00  0.00    +0.000 C 
ATOM      2  C   UNL     1      -2.184  11.747  18.102  0.00  0.00    +0.000 A 
ATOM      3  C   UNL     1      -2.279  11.198  16.812  0.00  0.00    +0.000 A 
ATOM      4  C   UNL     1      -3.530  10.929  16.254  0.00  0.00    +0.000 A 
ATOM      5 BR   UNL     1      -3.642  10.183  14.521  0.00  0.00    +0.000 Br
ATOM      6  C   UNL     1      -4.697  11.198  16.965  0.00  0.00    +0.000 A 
ATOM      7  C   UNL     1      -4.612  11.699  18.263  0.00  0.00    +0.000 A 
ATOM      8  C   UNL     1      -3.361  11.957  18.822  0.00  0.00    +0.000 A 
ATOM      9  N   UNL     1      -3.276  12.442  20.120  0.00  0.00    +0.000 N 
ATOM     10  C   UNL     1      -2.171  13.051  20.635  0.00  0.00    +0.000 C 
ATOM     11  O   UNL     1      -2.236  13.558  21.756  0.00  0.00    +0.000 OA
ATOM     12  N   UNL     1      -1.054  13.100  19.822  0.00  0.00    +0.000 N 
ATOM     13  H   UNL     1      -4.112  12.538  20.685  0.00  0.00    +0.000 HD
ENDROOT
BRANCH  12  14
ATOM     14  C   UNL     1      -0.172  14.213  19.926  0.00  0.00    +0.000 A 
ATOM     15  C   UNL     1       0.956  14.092  20.749  0.00  0.00    +0.000 A 
ATOM     16  C   UNL     1       1.782  15.188  20.977  0.00  0.00    +0.000 A 
ATOM     17  C   UNL     1       1.505  16.399  20.345  0.00  0.00    +0.000 A 
ATOM     18  C   UNL     1       0.405  16.525  19.492  0.00  0.00    +0.000 A 
ATOM     19  C   UNL     1      -0.440  15.432  19.292  0.00  0.00    +0.000 A 
BRANCH  18  20
ATOM     20  O   UNL     1       0.260  17.764  18.928  0.00  0.00    +0.000 OA
ATOM     21  C   UNL     1      -0.691  17.883  17.877  0.00  0.00    +0.000 C 
ENDBRANCH  18  20
ENDBRANCH  12  14
BRANCH   1  23
ATOM     22  N   UNL     1       0.871  10.248  18.683  0.00  0.00    +0.000 N 
ATOM     23  C   UNL     1      -0.203  10.769  19.374  0.00  0.00    +0.000 C 
ATOM     24  O   UNL     1      -0.667  10.219  20.376  0.00  0.00    +0.000 OA
ATOM     25  H   UNL     1       1.064  10.617  17.755  0.00  0.00    +0.000 HD
BRANCH  22  26
ATOM     26  C   UNL     1       1.580   9.064  19.117  0.00  0.00    +0.000 C 
BRANCH  26  27
ATOM     27  C   UNL     1       2.187   8.315  17.933  0.00  0.00    +0.000 C 
BRANCH  27  29
ATOM     28  C   UNL     1       4.063   6.684  17.496  0.00  0.00    +0.000 C 
ATOM     29  C   UNL     1       2.856   7.007  18.360  0.00  0.00    +0.000 C 
ENDBRANCH  27  29
ENDBRANCH  26  27
ENDBRANCH  22  26
ENDBRANCH   1  23
BRANCH   1  30
ATOM     30  O   UNL     1       0.016  12.578  17.766  0.00  0.00    +0.000 OA
ATOM     31  H   UNL     1       0.276  11.803  17.236  0.00  0.00    +0.000 HD
ENDBRANCH   1  30
TORSDOF 7
ENDMDL
MODEL 9
REMARK VINA RESULT:      -6.4      9.362     11.949
REMARK  Name = 
REMARK  9 active torsions:
REMARK  status: ('A' for Active; 'I' for Inactive)
REMARK    1  A    between atoms: C_1  and  C_2
REMARK    2  A    between atoms: C_2  and  C_3
REMARK    3  A    between atoms: C_3  and  C_4
REMARK    4  A    between atoms: C_4  and  N_5
REMARK    5  A    between atoms: C_6  and  C_8
REMARK    6  A    between atoms: C_8  and  O_9
REMARK    7  A    between atoms: N_20  and  C_21
REMARK    8  A    between atoms: C_25  and  O_26
REMARK    9  A    between atoms: O_26  and  C_27
REMARK                            x       y       z     vdW  Elec       q    Type
REMARK                         _______ _______ _______ _____ _____    ______ ____
ROOT
ATOM      1  C   UNL     1      -1.603  12.605  20.029  0.00  0.00    +0.000 C 
ATOM      2  C   UNL     1      -2.509  12.793  21.235  0.00  0.00    +0.000 A 
ATOM      3  C   UNL     1      -3.698  13.543  21.207  0.00  0.00    +0.000 A 
ATOM      4  C   UNL     1      -4.473  13.673  22.360  0.00  0.00    +0.000 A 
ATOM      5 BR   UNL     1      -6.073  14.678  22.304  0.00  0.00    +0.000 Br
ATOM      6  C   UNL     1      -4.084  13.063  23.550  0.00  0.00    +0.000 A 
ATOM      7  C   UNL     1      -2.931  12.280  23.576  0.00  0.00    +0.000 A 
ATOM      8  C   UNL     1      -2.164  12.142  22.420  0.00  0.00    +0.000 A 
ATOM      9  N   UNL     1      -1.024  11.350  22.443  0.00  0.00    +0.000 N 
ATOM     10  C   UNL     1      -0.029  11.420  21.515  0.00  0.00    +0.000 C 
ATOM     11  O   UNL     1       0.999  10.763  21.690  0.00  0.00    +0.000 OA
ATOM     12  N   UNL     1      -0.232  12.280  20.452  0.00  0.00    +0.000 N 
ATOM     13  H   UNL     1      -0.791  10.815  23.272  0.00  0.00    +0.000 HD
ENDROOT
BRANCH  12  14
ATOM     14  C   UNL     1       0.891  12.931  19.867  0.00  0.00    +0.000 A 
ATOM     15  C   UNL     1       1.419  12.407  18.679  0.00  0.00    +0.000 A 
ATOM     16  C   UNL     1       2.585  12.934  18.133  0.00  0.00    +0.000 A 
ATOM     17  C   UNL     1       3.202  14.019  18.753  0.00  0.00    +0.000 A 
ATOM     18  C   UNL     1       2.668  14.577  19.917  0.00  0.00    +0.000 A 
ATOM     19  C   UNL     1       1.516  14.023  20.480  0.00  0.00    +0.000 A 
BRANCH  18  20
ATOM     20  O   UNL     1       3.367  15.645  20.411  0.00  0.00    +0.000 OA
ATOM     21  C   UNL     1       3.903  16.557  19.460  0.00  0.00    +0.000 C 
ENDBRANCH  18  20
ENDBRANCH  12  14
BRANCH   1  23
ATOM     22  N   UNL     1      -3.406  11.765  18.477  0.00  0.00    +0.000 N 
ATOM     23  C   UNL     1      -2.186  11.499  19.063  0.00  0.00    +0.000 C 
ATOM     24  O   UNL     1      -1.595  10.429  18.891  0.00  0.00    +0.000 OA
ATOM     25  H   UNL     1      -3.939  12.557  18.828  0.00  0.00    +0.000 HD
BRANCH  22  26
ATOM     26  C   UNL     1      -4.051  10.848  17.563  0.00  0.00    +0.000 C 
BRANCH  26  27
ATOM     27  C   UNL     1      -3.807  11.249  16.110  0.00  0.00    +0.000 C 
BRANCH  27  29
ATOM     28  C   UNL     1      -3.145   9.977  14.033  0.00  0.00    +0.000 C 
ATOM     29  C   UNL     1      -2.741  10.377  15.442  0.00  0.00    +0.000 C 
ENDBRANCH  27  29
ENDBRANCH  26  27
ENDBRANCH  22  26
ENDBRANCH   1  23
BRANCH   1  30
ATOM     30  O   UNL     1      -1.604  13.846  19.308  0.00  0.00    +0.000 OA
ATOM     31  H   UNL     1      -1.840  14.530  19.960  0.00  0.00    +0.000 HD
ENDBRANCH   1  30
TORSDOF 7
ENDMDL
