MODEL 1
REMARK VINA RESULT:      -7.5      0.000      0.000
REMARK  Name = 
REMARK  7 active torsions:
REMARK  status: ('A' for Active; 'I' for Inactive)
REMARK    1  A    between atoms: C_2  and  C_3
REMARK    2  A    between atoms: C_2  and  C_12
REMARK    3  A    between atoms: C_3  and  N_4
REMARK    4  A    between atoms: C_9  and  C_10
REMARK    5  A    between atoms: C_10  and  O_11
REMARK    6  A    between atoms: C_15  and  O_16
REMARK    7  A    between atoms: O_16  and  C_17
REMARK                            x       y       z     vdW  Elec       q    Type
REMARK                         _______ _______ _______ _____ _____    ______ ____
ROOT
ATOM      1  O   UNL     1       6.609   5.204  19.770  0.00  0.00    +0.000 OA
ATOM      2  C   UNL     1       5.681   5.385  18.978  0.00  0.00    +0.000 C 
ENDROOT
BRANCH   2   3
ATOM      3  C   UNL     1       5.966   5.328  17.506  0.00  0.00    +0.000 A 
ATOM      4  C   UNL     1       7.073   4.584  17.071  0.00  0.00    +0.000 A 
ATOM      5  C   UNL     1       7.332   4.427  15.706  0.00  0.00    +0.000 A 
ATOM      6  C   UNL     1       6.475   4.988  14.759  0.00  0.00    +0.000 A 
ATOM      7  C   UNL     1       5.416   5.788  15.181  0.00  0.00    +0.000 A 
ATOM      8  C   UNL     1       5.167   5.961  16.547  0.00  0.00    +0.000 A 
BRANCH   6   9
ATOM      9  O   UNL     1       6.772   4.712  13.454  0.00  0.00    +0.000 OA
BRANCH   9  10
ATOM     10  C   UNL     1       6.204   3.506  12.964  0.00  0.00    +0.000 C 
ATOM     11  F   UNL     1       4.908   3.736  12.640  0.00  0.00    +0.000 F 
ATOM     12  F   UNL     1       6.847   3.193  11.811  0.00  0.00    +0.000 F 
ENDBRANCH   9  10
ENDBRANCH   6   9
ENDBRANCH   2   3
BRANCH   2  13
ATOM     13  C   UNL     1       4.279   5.710  19.495  0.00  0.00    +0.000 C 
BRANCH  13  14
ATOM     14  N   UNL     1       3.539   4.516  19.936  0.00  0.00    +0.000 NA
ATOM     15  C   UNL     1       2.328   4.832  20.705  0.00  0.00    +0.000 C 
ATOM     16  C   UNL     1       1.723   3.561  21.311  0.00  0.00    +0.000 C 
ATOM     17  C   UNL     1       1.515   2.453  20.283  0.00  0.00    +0.000 C 
ATOM     18  C   UNL     1       2.771   2.250  19.442  0.00  0.00    +0.000 C 
ATOM     19  C   UNL     1       3.273   3.572  18.829  0.00  0.00    +0.000 C 
BRANCH  19  20
ATOM     20  C   UNL     1       2.327   4.086  17.711  0.00  0.00    +0.000 C 
BRANCH  20  21
ATOM     21  O   UNL     1       1.962   3.038  16.815  0.00  0.00    +0.000 OA
ATOM     22  H   UNL     1       2.452   2.241  17.081  0.00  0.00    +0.000 HD
ENDBRANCH  20  21
ENDBRANCH  19  20
ENDBRANCH  13  14
ENDBRANCH   2  13
TORSDOF 7
ENDMDL
MODEL 2
REMARK VINA RESULT:      -7.1      1.576      2.123
REMARK  Name = 
REMARK  7 active torsions:
REMARK  status: ('A' for Active; 'I' for Inactive)
REMARK    1  A    between atoms: C_2  and  C_3
REMARK    2  A    between atoms: C_2  and  C_12
REMARK    3  A    between atoms: C_3  and  N_4
REMARK    4  A    between atoms: C_9  and  C_10
REMARK    5  A    between atoms: C_10  and  O_11
REMARK    6  A    between atoms: C_15  and  O_16
REMARK    7  A    between atoms: O_16  and  C_17
REMARK                            x       y       z     vdW  Elec       q    Type
REMARK                         _______ _______ _______ _____ _____    ______ ____
ROOT
ATOM      1  O   UNL     1       5.541   5.743  19.772  0.00  0.00    +0.000 OA
ATOM      2  C   UNL     1       5.389   4.815  18.976  0.00  0.00    +0.000 C 
ENDROOT
BRANCH   2   3
ATOM      3  C   UNL     1       5.795   5.016  17.546  0.00  0.00    +0.000 A 
ATOM      4  C   UNL     1       7.031   4.500  17.126  0.00  0.00    +0.000 A 
ATOM      5  C   UNL     1       7.417   4.584  15.785  0.00  0.00    +0.000 A 
ATOM      6  C   UNL     1       6.565   5.159  14.843  0.00  0.00    +0.000 A 
ATOM      7  C   UNL     1       5.369   5.738  15.262  0.00  0.00    +0.000 A 
ATOM      8  C   UNL     1       4.990   5.671  16.607  0.00  0.00    +0.000 A 
BRANCH   6   9
ATOM      9  O   UNL     1       7.001   5.123  13.549  0.00  0.00    +0.000 OA
BRANCH   9  10
ATOM     10  C   UNL     1       6.750   3.897  12.877  0.00  0.00    +0.000 C 
ATOM     11  F   UNL     1       5.411   3.752  12.725  0.00  0.00    +0.000 F 
ATOM     12  F   UNL     1       7.277   4.000  11.631  0.00  0.00    +0.000 F 
ENDBRANCH   9  10
ENDBRANCH   6   9
ENDBRANCH   2   3
BRANCH   2  13
ATOM     13  C   UNL     1       4.752   3.503  19.435  0.00  0.00    +0.000 C 
BRANCH  13  14
ATOM     14  N   UNL     1       3.296   3.467  19.224  0.00  0.00    +0.000 NA
ATOM     15  C   UNL     1       2.841   2.267  18.508  0.00  0.00    +0.000 C 
ATOM     16  C   UNL     1       1.360   2.388  18.134  0.00  0.00    +0.000 C 
ATOM     17  C   UNL     1       0.474   2.757  19.321  0.00  0.00    +0.000 C 
ATOM     18  C   UNL     1       1.060   3.938  20.088  0.00  0.00    +0.000 C 
ATOM     19  C   UNL     1       2.535   3.701  20.470  0.00  0.00    +0.000 C 
BRANCH  19  20
ATOM     20  C   UNL     1       2.681   2.616  21.570  0.00  0.00    +0.000 C 
BRANCH  20  21
ATOM     21  O   UNL     1       1.541   2.587  22.427  0.00  0.00    +0.000 OA
ATOM     22  H   UNL     1       1.778   3.052  23.247  0.00  0.00    +0.000 HD
ENDBRANCH  20  21
ENDBRANCH  19  20
ENDBRANCH  13  14
ENDBRANCH   2  13
TORSDOF 7
ENDMDL
MODEL 3
REMARK VINA RESULT:      -7.1      1.388      2.097
REMARK  Name = 
REMARK  7 active torsions:
REMARK  status: ('A' for Active; 'I' for Inactive)
REMARK    1  A    between atoms: C_2  and  C_3
REMARK    2  A    between atoms: C_2  and  C_12
REMARK    3  A    between atoms: C_3  and  N_4
REMARK    4  A    between atoms: C_9  and  C_10
REMARK    5  A    between atoms: C_10  and  O_11
REMARK    6  A    between atoms: C_15  and  O_16
REMARK    7  A    between atoms: O_16  and  C_17
REMARK                            x       y       z     vdW  Elec       q    Type
REMARK                         _______ _______ _______ _____ _____    ______ ____
ROOT
ATOM      1  O   UNL     1       6.881   5.364  19.842  0.00  0.00    +0.000 OA
ATOM      2  C   UNL     1       5.897   5.247  19.109  0.00  0.00    +0.000 C 
ENDROOT
BRANCH   2   3
ATOM      3  C   UNL     1       6.110   5.120  17.629  0.00  0.00    +0.000 A 
ATOM      4  C   UNL     1       5.252   5.824  16.771  0.00  0.00    +0.000 A 
ATOM      5  C   UNL     1       5.461   5.808  15.388  0.00  0.00    +0.000 A 
ATOM      6  C   UNL     1       6.542   5.111  14.848  0.00  0.00    +0.000 A 
ATOM      7  C   UNL     1       7.354   4.350  15.685  0.00  0.00    +0.000 A 
ATOM      8  C   UNL     1       7.135   4.350  17.067  0.00  0.00    +0.000 A 
BRANCH   6   9
ATOM      9  O   UNL     1       6.702   5.222  13.496  0.00  0.00    +0.000 OA
BRANCH   9  10
ATOM     10  C   UNL     1       6.714   3.983  12.802  0.00  0.00    +0.000 C 
ATOM     11  F   UNL     1       5.435   3.628  12.524  0.00  0.00    +0.000 F 
ATOM     12  F   UNL     1       7.330   4.190  11.611  0.00  0.00    +0.000 F 
ENDBRANCH   9  10
ENDBRANCH   6   9
ENDBRANCH   2   3
BRANCH   2  13
ATOM     13  C   UNL     1       4.488   5.283  19.700  0.00  0.00    +0.000 C 
BRANCH  13  14
ATOM     14  N   UNL     1       3.584   4.294  19.088  0.00  0.00    +0.000 NA
ATOM     15  C   UNL     1       3.761   2.936  19.619  0.00  0.00    +0.000 C 
ATOM     16  C   UNL     1       2.951   1.924  18.802  0.00  0.00    +0.000 C 
ATOM     17  C   UNL     1       1.487   2.325  18.640  0.00  0.00    +0.000 C 
ATOM     18  C   UNL     1       1.369   3.779  18.195  0.00  0.00    +0.000 C 
ATOM     19  C   UNL     1       2.170   4.727  19.109  0.00  0.00    +0.000 C 
BRANCH  19  20
ATOM     20  C   UNL     1       1.522   4.863  20.512  0.00  0.00    +0.000 C 
BRANCH  20  21
ATOM     21  O   UNL     1       1.665   6.185  21.026  0.00  0.00    +0.000 OA
ATOM     22  H   UNL     1       2.615   6.395  21.036  0.00  0.00    +0.000 HD
ENDBRANCH  20  21
ENDBRANCH  19  20
ENDBRANCH  13  14
ENDBRANCH   2  13
TORSDOF 7
ENDMDL
MODEL 4
REMARK VINA RESULT:      -7.0      1.388      1.823
REMARK  Name = 
REMARK  7 active torsions:
REMARK  status: ('A' for Active; 'I' for Inactive)
REMARK    1  A    between atoms: C_2  and  C_3
REMARK    2  A    between atoms: C_2  and  C_12
REMARK    3  A    between atoms: C_3  and  N_4
REMARK    4  A    between atoms: C_9  and  C_10
REMARK    5  A    between atoms: C_10  and  O_11
REMARK    6  A    between atoms: C_15  and  O_16
REMARK    7  A    between atoms: O_16  and  C_17
REMARK                            x       y       z     vdW  Elec       q    Type
REMARK                         _______ _______ _______ _____ _____    ______ ____
ROOT
ATOM      1  O   UNL     1       7.246   5.203  19.376  0.00  0.00    +0.000 OA
ATOM      2  C   UNL     1       6.185   5.195  18.748  0.00  0.00    +0.000 C 
ENDROOT
BRANCH   2   3
ATOM      3  C   UNL     1       6.233   5.166  17.249  0.00  0.00    +0.000 A 
ATOM      4  C   UNL     1       7.328   4.543  16.630  0.00  0.00    +0.000 A 
ATOM      5  C   UNL     1       7.378   4.412  15.239  0.00  0.00    +0.000 A 
ATOM      6  C   UNL     1       6.325   4.876  14.451  0.00  0.00    +0.000 A 
ATOM      7  C   UNL     1       5.269   5.560  15.050  0.00  0.00    +0.000 A 
ATOM      8  C   UNL     1       5.227   5.709  16.441  0.00  0.00    +0.000 A 
BRANCH   6   9
ATOM      9  O   UNL     1       6.434   4.631  13.111  0.00  0.00    +0.000 OA
BRANCH   9  10
ATOM     10  C   UNL     1       5.869   3.399  12.690  0.00  0.00    +0.000 C 
ATOM     11  F   UNL     1       4.850   3.658  11.833  0.00  0.00    +0.000 F 
ATOM     12  F   UNL     1       6.817   2.736  11.982  0.00  0.00    +0.000 F 
ENDBRANCH   9  10
ENDBRANCH   6   9
ENDBRANCH   2   3
BRANCH   2  13
ATOM     13  C   UNL     1       4.850   5.265  19.490  0.00  0.00    +0.000 C 
BRANCH  13  14
ATOM     14  N   UNL     1       3.875   4.272  19.011  0.00  0.00    +0.000 NA
ATOM     15  C   UNL     1       4.096   2.927  19.560  0.00  0.00    +0.000 C 
ATOM     16  C   UNL     1       3.190   1.903  18.867  0.00  0.00    +0.000 C 
ATOM     17  C   UNL     1       1.722   2.319  18.855  0.00  0.00    +0.000 C 
ATOM     18  C   UNL     1       1.570   3.761  18.382  0.00  0.00    +0.000 C 
ATOM     19  C   UNL     1       2.477   4.724  19.174  0.00  0.00    +0.000 C 
BRANCH  19  20
ATOM     20  C   UNL     1       1.988   4.908  20.635  0.00  0.00    +0.000 C 
BRANCH  20  21
ATOM     21  O   UNL     1       1.827   6.287  20.961  0.00  0.00    +0.000 OA
ATOM     22  H   UNL     1       1.396   6.335  21.832  0.00  0.00    +0.000 HD
ENDBRANCH  20  21
ENDBRANCH  19  20
ENDBRANCH  13  14
ENDBRANCH   2  13
TORSDOF 7
ENDMDL
MODEL 5
REMARK VINA RESULT:      -7.0      1.751      2.282
REMARK  Name = 
REMARK  7 active torsions:
REMARK  status: ('A' for Active; 'I' for Inactive)
REMARK    1  A    between atoms: C_2  and  C_3
REMARK    2  A    between atoms: C_2  and  C_12
REMARK    3  A    between atoms: C_3  and  N_4
REMARK    4  A    between atoms: C_9  and  C_10
REMARK    5  A    between atoms: C_10  and  O_11
REMARK    6  A    between atoms: C_15  and  O_16
REMARK    7  A    between atoms: O_16  and  C_17
REMARK                            x       y       z     vdW  Elec       q    Type
REMARK                         _______ _______ _______ _____ _____    ______ ____
ROOT
ATOM      1  O   UNL     1       7.365   4.578  18.673  0.00  0.00    +0.000 OA
ATOM      2  C   UNL     1       6.343   4.730  18.001  0.00  0.00    +0.000 C 
ENDROOT
BRANCH   2   3
ATOM      3  C   UNL     1       6.411   4.495  16.520  0.00  0.00    +0.000 A 
ATOM      4  C   UNL     1       5.465   3.637  15.939  0.00  0.00    +0.000 A 
ATOM      5  C   UNL     1       5.431   3.453  14.553  0.00  0.00    +0.000 A 
ATOM      6  C   UNL     1       6.321   4.143  13.730  0.00  0.00    +0.000 A 
ATOM      7  C   UNL     1       7.310   4.939  14.303  0.00  0.00    +0.000 A 
ATOM      8  C   UNL     1       7.357   5.109  15.691  0.00  0.00    +0.000 A 
BRANCH   6   9
ATOM      9  O   UNL     1       6.155   3.953  12.387  0.00  0.00    +0.000 OA
BRANCH   9  10
ATOM     10  C   UNL     1       5.071   3.102  12.043  0.00  0.00    +0.000 C 
ATOM     11  F   UNL     1       4.278   3.749  11.153  0.00  0.00    +0.000 F 
ATOM     12  F   UNL     1       5.587   2.027  11.398  0.00  0.00    +0.000 F 
ENDBRANCH   9  10
ENDBRANCH   6   9
ENDBRANCH   2   3
BRANCH   2  13
ATOM     13  C   UNL     1       5.047   5.196  18.664  0.00  0.00    +0.000 C 
BRANCH  13  14
ATOM     14  N   UNL     1       3.902   4.319  18.365  0.00  0.00    +0.000 NA
ATOM     15  C   UNL     1       3.955   3.031  19.071  0.00  0.00    +0.000 C 
ATOM     16  C   UNL     1       2.861   2.088  18.561  0.00  0.00    +0.000 C 
ATOM     17  C   UNL     1       1.474   2.726  18.568  0.00  0.00    +0.000 C 
ATOM     18  C   UNL     1       1.509   4.107  17.922  0.00  0.00    +0.000 C 
ATOM     19  C   UNL     1       2.602   5.002  18.538  0.00  0.00    +0.000 C 
BRANCH  19  20
ATOM     20  C   UNL     1       2.249   5.434  19.986  0.00  0.00    +0.000 C 
BRANCH  20  21
ATOM     21  O   UNL     1       2.409   6.840  20.164  0.00  0.00    +0.000 OA
ATOM     22  H   UNL     1       2.076   7.277  19.361  0.00  0.00    +0.000 HD
ENDBRANCH  20  21
ENDBRANCH  19  20
ENDBRANCH  13  14
ENDBRANCH   2  13
TORSDOF 7
ENDMDL
MODEL 6
REMARK VINA RESULT:      -6.9      1.918      2.346
REMARK  Name = 
REMARK  7 active torsions:
REMARK  status: ('A' for Active; 'I' for Inactive)
REMARK    1  A    between atoms: C_2  and  C_3
REMARK    2  A    between atoms: C_2  and  C_12
REMARK    3  A    between atoms: C_3  and  N_4
REMARK    4  A    between atoms: C_9  and  C_10
REMARK    5  A    between atoms: C_10  and  O_11
REMARK    6  A    between atoms: C_15  and  O_16
REMARK    7  A    between atoms: O_16  and  C_17
REMARK                            x       y       z     vdW  Elec       q    Type
REMARK                         _______ _______ _______ _____ _____    ______ ____
ROOT
ATOM      1  O   UNL     1       2.729   7.007  18.172  0.00  0.00    +0.000 OA
ATOM      2  C   UNL     1       3.045   5.868  17.823  0.00  0.00    +0.000 C 
ENDROOT
BRANCH   2   3
ATOM      3  C   UNL     1       4.356   5.665  17.122  0.00  0.00    +0.000 A 
ATOM      4  C   UNL     1       4.485   4.567  16.257  0.00  0.00    +0.000 A 
ATOM      5  C   UNL     1       5.655   4.382  15.514  0.00  0.00    +0.000 A 
ATOM      6  C   UNL     1       6.699   5.303  15.605  0.00  0.00    +0.000 A 
ATOM      7  C   UNL     1       6.609   6.354  16.514  0.00  0.00    +0.000 A 
ATOM      8  C   UNL     1       5.446   6.530  17.272  0.00  0.00    +0.000 A 
BRANCH   6   9
ATOM      9  O   UNL     1       7.765   5.074  14.781  0.00  0.00    +0.000 OA
BRANCH   9  10
ATOM     10  C   UNL     1       7.525   5.368  13.413  0.00  0.00    +0.000 C 
ATOM     11  F   UNL     1       8.683   5.799  12.852  0.00  0.00    +0.000 F 
ATOM     12  F   UNL     1       7.202   4.204  12.796  0.00  0.00    +0.000 F 
ENDBRANCH   9  10
ENDBRANCH   6   9
ENDBRANCH   2   3
BRANCH   2  13
ATOM     13  C   UNL     1       2.091   4.697  18.059  0.00  0.00    +0.000 C 
BRANCH  13  14
ATOM     14  N   UNL     1       2.287   4.053  19.369  0.00  0.00    +0.000 NA
ATOM     15  C   UNL     1       1.038   3.569  19.972  0.00  0.00    +0.000 C 
ATOM     16  C   UNL     1       1.277   3.106  21.413  0.00  0.00    +0.000 C 
ATOM     17  C   UNL     1       2.432   2.115  21.537  0.00  0.00    +0.000 C 
ATOM     18  C   UNL     1       3.663   2.624  20.795  0.00  0.00    +0.000 C 
ATOM     19  C   UNL     1       3.338   3.013  19.339  0.00  0.00    +0.000 C 
BRANCH  19  20
ATOM     20  C   UNL     1       3.037   1.768  18.462  0.00  0.00    +0.000 C 
BRANCH  20  21
ATOM     21  O   UNL     1       4.108   0.827  18.508  0.00  0.00    +0.000 OA
ATOM     22  H   UNL     1       4.495   0.867  19.400  0.00  0.00    +0.000 HD
ENDBRANCH  20  21
ENDBRANCH  19  20
ENDBRANCH  13  14
ENDBRANCH   2  13
TORSDOF 7
ENDMDL
MODEL 7
REMARK VINA RESULT:      -6.9      1.663      2.309
REMARK  Name = 
REMARK  7 active torsions:
REMARK  status: ('A' for Active; 'I' for Inactive)
REMARK    1  A    between atoms: C_2  and  C_3
REMARK    2  A    between atoms: C_2  and  C_12
REMARK    3  A    between atoms: C_3  and  N_4
REMARK    4  A    between atoms: C_9  and  C_10
REMARK    5  A    between atoms: C_10  and  O_11
REMARK    6  A    between atoms: C_15  and  O_16
REMARK    7  A    between atoms: O_16  and  C_17
REMARK                            x       y       z     vdW  Elec       q    Type
REMARK                         _______ _______ _______ _____ _____    ______ ____
ROOT
ATOM      1  O   UNL     1       5.966   5.529  19.349  0.00  0.00    +0.000 OA
ATOM      2  C   UNL     1       5.623   4.539  18.699  0.00  0.00    +0.000 C 
ENDROOT
BRANCH   2   3
ATOM      3  C   UNL     1       6.000   4.461  17.248  0.00  0.00    +0.000 A 
ATOM      4  C   UNL     1       5.112   3.830  16.364  0.00  0.00    +0.000 A 
ATOM      5  C   UNL     1       5.374   3.807  14.991  0.00  0.00    +0.000 A 
ATOM      6  C   UNL     1       6.511   4.434  14.481  0.00  0.00    +0.000 A 
ATOM      7  C   UNL     1       7.435   4.999  15.359  0.00  0.00    +0.000 A 
ATOM      8  C   UNL     1       7.182   5.006  16.735  0.00  0.00    +0.000 A 
BRANCH   6   9
ATOM      9  O   UNL     1       6.636   4.421  13.121  0.00  0.00    +0.000 OA
BRANCH   9  10
ATOM     10  C   UNL     1       6.044   3.298  12.486  0.00  0.00    +0.000 C 
ATOM     11  F   UNL     1       5.118   3.739  11.599  0.00  0.00    +0.000 F 
ATOM     12  F   UNL     1       7.012   2.679  11.766  0.00  0.00    +0.000 F 
ENDBRANCH   9  10
ENDBRANCH   6   9
ENDBRANCH   2   3
BRANCH   2  13
ATOM     13  C   UNL     1       4.786   3.439  19.353  0.00  0.00    +0.000 C 
BRANCH  13  14
ATOM     14  N   UNL     1       3.341   3.719  19.316  0.00  0.00    +0.000 NA
ATOM     15  C   UNL     1       2.595   2.809  18.437  0.00  0.00    +0.000 C 
ATOM     16  C   UNL     1       1.145   3.278  18.275  0.00  0.00    +0.000 C 
ATOM     17  C   UNL     1       0.451   3.536  19.610  0.00  0.00    +0.000 C 
ATOM     18  C   UNL     1       1.325   4.393  20.520  0.00  0.00    +0.000 C 
ATOM     19  C   UNL     1       2.745   3.812  20.666  0.00  0.00    +0.000 C 
BRANCH  19  20
ATOM     20  C   UNL     1       2.752   2.505  21.504  0.00  0.00    +0.000 C 
BRANCH  20  21
ATOM     21  O   UNL     1       1.606   2.422  22.348  0.00  0.00    +0.000 OA
ATOM     22  H   UNL     1       1.682   3.126  23.016  0.00  0.00    +0.000 HD
ENDBRANCH  20  21
ENDBRANCH  19  20
ENDBRANCH  13  14
ENDBRANCH   2  13
TORSDOF 7
ENDMDL
MODEL 8
REMARK VINA RESULT:      -6.9      4.289      7.021
REMARK  Name = 
REMARK  7 active torsions:
REMARK  status: ('A' for Active; 'I' for Inactive)
REMARK    1  A    between atoms: C_2  and  C_3
REMARK    2  A    between atoms: C_2  and  C_12
REMARK    3  A    between atoms: C_3  and  N_4
REMARK    4  A    between atoms: C_9  and  C_10
REMARK    5  A    between atoms: C_10  and  O_11
REMARK    6  A    between atoms: C_15  and  O_16
REMARK    7  A    between atoms: O_16  and  C_17
REMARK                            x       y       z     vdW  Elec       q    Type
REMARK                         _______ _______ _______ _____ _____    ______ ____
ROOT
ATOM      1  O   UNL     1       1.845   3.545  16.969  0.00  0.00    +0.000 OA
ATOM      2  C   UNL     1       2.753   4.180  17.508  0.00  0.00    +0.000 C 
ENDROOT
BRANCH   2   3
ATOM      3  C   UNL     1       2.397   5.319  18.418  0.00  0.00    +0.000 A 
ATOM      4  C   UNL     1       2.001   5.023  19.731  0.00  0.00    +0.000 A 
ATOM      5  C   UNL     1       1.743   6.050  20.644  0.00  0.00    +0.000 A 
ATOM      6  C   UNL     1       1.902   7.383  20.265  0.00  0.00    +0.000 A 
ATOM      7  C   UNL     1       2.224   7.688  18.945  0.00  0.00    +0.000 A 
ATOM      8  C   UNL     1       2.464   6.661  18.025  0.00  0.00    +0.000 A 
BRANCH   6   9
ATOM      9  O   UNL     1       1.700   8.307  21.251  0.00  0.00    +0.000 OA
BRANCH   9  10
ATOM     10  C   UNL     1       0.682   9.256  20.969  0.00  0.00    +0.000 C 
ATOM     11  F   UNL     1      -0.518   8.718  21.301  0.00  0.00    +0.000 F 
ATOM     12  F   UNL     1       0.876  10.318  21.791  0.00  0.00    +0.000 F 
ENDBRANCH   9  10
ENDBRANCH   6   9
ENDBRANCH   2   3
BRANCH   2  13
ATOM     13  C   UNL     1       4.214   3.838  17.212  0.00  0.00    +0.000 C 
BRANCH  13  14
ATOM     14  N   UNL     1       5.150   4.878  17.669  0.00  0.00    +0.000 NA
ATOM     15  C   UNL     1       6.052   4.422  18.735  0.00  0.00    +0.000 C 
ATOM     16  C   UNL     1       6.850   5.597  19.310  0.00  0.00    +0.000 C 
ATOM     17  C   UNL     1       7.552   6.422  18.235  0.00  0.00    +0.000 C 
ATOM     18  C   UNL     1       6.591   6.769  17.103  0.00  0.00    +0.000 C 
ATOM     19  C   UNL     1       5.878   5.518  16.552  0.00  0.00    +0.000 C 
BRANCH  19  20
ATOM     20  C   UNL     1       6.848   4.601  15.759  0.00  0.00    +0.000 C 
BRANCH  20  21
ATOM     21  O   UNL     1       7.641   5.353  14.842  0.00  0.00    +0.000 OA
ATOM     22  H   UNL     1       7.097   5.523  14.054  0.00  0.00    +0.000 HD
ENDBRANCH  20  21
ENDBRANCH  19  20
ENDBRANCH  13  14
ENDBRANCH   2  13
TORSDOF 7
ENDMDL
MODEL 9
REMARK VINA RESULT:      -6.8      1.252      1.809
REMARK  Name = 
REMARK  7 active torsions:
REMARK  status: ('A' for Active; 'I' for Inactive)
REMARK    1  A    between atoms: C_2  and  C_3
REMARK    2  A    between atoms: C_2  and  C_12
REMARK    3  A    between atoms: C_3  and  N_4
REMARK    4  A    between atoms: C_9  and  C_10
REMARK    5  A    between atoms: C_10  and  O_11
REMARK    6  A    between atoms: C_15  and  O_16
REMARK    7  A    between atoms: O_16  and  C_17
REMARK                            x       y       z     vdW  Elec       q    Type
REMARK                         _______ _______ _______ _____ _____    ______ ____
ROOT
ATOM      1  O   UNL     1       6.910   5.450  19.826  0.00  0.00    +0.000 OA
ATOM      2  C   UNL     1       5.934   5.294  19.090  0.00  0.00    +0.000 C 
ENDROOT
BRANCH   2   3
ATOM      3  C   UNL     1       6.142   5.302  17.604  0.00  0.00    +0.000 A 
ATOM      4  C   UNL     1       7.279   4.662  17.087  0.00  0.00    +0.000 A 
ATOM      5  C   UNL     1       7.474   4.566  15.706  0.00  0.00    +0.000 A 
ATOM      6  C   UNL     1       6.525   5.083  14.824  0.00  0.00    +0.000 A 
ATOM      7  C   UNL     1       5.431   5.783  15.327  0.00  0.00    +0.000 A 
ATOM      8  C   UNL     1       5.244   5.896  16.709  0.00  0.00    +0.000 A 
BRANCH   6   9
ATOM      9  O   UNL     1       6.771   4.869  13.497  0.00  0.00    +0.000 OA
BRANCH   9  10
ATOM     10  C   UNL     1       6.211   3.670  12.981  0.00  0.00    +0.000 C 
ATOM     11  F   UNL     1       5.974   2.822  14.012  0.00  0.00    +0.000 F 
ATOM     12  F   UNL     1       5.005   3.982  12.444  0.00  0.00    +0.000 F 
ENDBRANCH   9  10
ENDBRANCH   6   9
ENDBRANCH   2   3
BRANCH   2  13
ATOM     13  C   UNL     1       4.535   5.145  19.687  0.00  0.00    +0.000 C 
BRANCH  13  14
ATOM     14  N   UNL     1       3.724   4.126  19.000  0.00  0.00    +0.000 NA
ATOM     15  C   UNL     1       4.072   2.750  19.381  0.00  0.00    +0.000 C 
ATOM     16  C   UNL     1       3.349   1.739  18.485  0.00  0.00    +0.000 C 
ATOM     17  C   UNL     1       1.844   1.984  18.407  0.00  0.00    +0.000 C 
ATOM     18  C   UNL     1       1.547   3.452  18.119  0.00  0.00    +0.000 C 
ATOM     19  C   UNL     1       2.273   4.389  19.104  0.00  0.00    +0.000 C 
BRANCH  19  20
ATOM     20  C   UNL     1       1.668   4.307  20.532  0.00  0.00    +0.000 C 
BRANCH  20  21
ATOM     21  O   UNL     1       0.370   3.715  20.514  0.00  0.00    +0.000 OA
ATOM     22  H   UNL     1      -0.057   3.920  21.364  0.00  0.00    +0.000 HD
ENDBRANCH  20  21
ENDBRANCH  19  20
ENDBRANCH  13  14
ENDBRANCH   2  13
TORSDOF 7
ENDMDL
