MODEL 1
REMARK VINA RESULT:      -5.8      0.000      0.000
REMARK  Name = 
REMARK  5 active torsions:
REMARK  status: ('A' for Active; 'I' for Inactive)
REMARK    1  A    between atoms: C_4  and  C_6
REMARK    2  A    between atoms: C_6  and  C_7
REMARK    3  A    between atoms: C_7  and  S_8
REMARK    4  A    between atoms: S_8  and  C_9
REMARK    5  A    between atoms: C_12  and  S_13
REMARK                            x       y       z     vdW  Elec       q    Type
REMARK                         _______ _______ _______ _____ _____    ______ ____
ROOT
ATOM      1  S   UNL     1       5.776   5.154  19.000  0.00  0.00    +0.000 S 
ENDROOT
BRANCH   1   2
ATOM      2  C   UNL     1       6.218   4.988  17.316  0.00  0.00    +0.000 A 
ATOM      3  N   UNL     1       7.301   5.527  16.797  0.00  0.00    +0.000 NA
ATOM      4  N   UNL     1       7.431   5.225  15.452  0.00  0.00    +0.000 NA
ATOM      5  C   UNL     1       6.440   4.476  15.021  0.00  0.00    +0.000 A 
ATOM      6  S   UNL     1       5.268   4.091  16.204  0.00  0.00    +0.000 S 
BRANCH   5   7
ATOM      7  S   UNL     1       6.360   3.926  13.371  0.00  0.00    +0.000 S 
ATOM      8  H   UNL     1       7.442   3.137  13.426  0.00  0.00    +0.000 HD
ENDBRANCH   5   7
ENDBRANCH   1   2
BRANCH   1   9
ATOM      9  C   UNL     1       4.754   3.666  19.249  0.00  0.00    +0.000 C 
BRANCH   9  10
ATOM     10  C   UNL     1       3.316   4.082  19.557  0.00  0.00    +0.000 C 
BRANCH  10  14
ATOM     11  F   UNL     1       0.609   4.197  20.482  0.00  0.00    +0.000 F 
ATOM     12  C   UNL     1       1.459   3.321  21.058  0.00  0.00    +0.000 C 
ATOM     13  F   UNL     1       1.018   2.515  22.046  0.00  0.00    +0.000 F 
ATOM     14  C   UNL     1       2.732   3.244  20.655  0.00  0.00    +0.000 C 
ATOM     15  F   UNL     1       3.539   2.342  21.259  0.00  0.00    +0.000 F 
ENDBRANCH  10  14
ENDBRANCH   9  10
ENDBRANCH   1   9
TORSDOF 5
ENDMDL
MODEL 2
REMARK VINA RESULT:      -5.7      1.335      1.488
REMARK  Name = 
REMARK  5 active torsions:
REMARK  status: ('A' for Active; 'I' for Inactive)
REMARK    1  A    between atoms: C_4  and  C_6
REMARK    2  A    between atoms: C_6  and  C_7
REMARK    3  A    between atoms: C_7  and  S_8
REMARK    4  A    between atoms: S_8  and  C_9
REMARK    5  A    between atoms: C_12  and  S_13
REMARK                            x       y       z     vdW  Elec       q    Type
REMARK                         _______ _______ _______ _____ _____    ______ ____
ROOT
ATOM      1  S   UNL     1       5.913   5.151  18.952  0.00  0.00    +0.000 S 
ENDROOT
BRANCH   1   2
ATOM      2  C   UNL     1       6.315   4.984  17.258  0.00  0.00    +0.000 A 
ATOM      3  N   UNL     1       7.378   5.532  16.710  0.00  0.00    +0.000 NA
ATOM      4  N   UNL     1       7.478   5.227  15.363  0.00  0.00    +0.000 NA
ATOM      5  C   UNL     1       6.485   4.465  14.960  0.00  0.00    +0.000 A 
ATOM      6  S   UNL     1       5.347   4.072  16.173  0.00  0.00    +0.000 S 
BRANCH   5   7
ATOM      7  S   UNL     1       6.370   3.907  13.315  0.00  0.00    +0.000 S 
ATOM      8  H   UNL     1       6.919   4.993  12.752  0.00  0.00    +0.000 HD
ENDBRANCH   5   7
ENDBRANCH   1   2
BRANCH   1   9
ATOM      9  C   UNL     1       4.772   3.751  19.188  0.00  0.00    +0.000 C 
BRANCH   9  10
ATOM     10  C   UNL     1       3.354   4.281  19.404  0.00  0.00    +0.000 C 
BRANCH  10  14
ATOM     11  F   UNL     1       0.722   3.876  20.453  0.00  0.00    +0.000 F 
ATOM     12  C   UNL     1       1.106   3.173  19.367  0.00  0.00    +0.000 C 
ATOM     13  F   UNL     1       0.247   2.305  18.795  0.00  0.00    +0.000 F 
ATOM     14  C   UNL     1       2.331   3.332  18.854  0.00  0.00    +0.000 C 
ATOM     15  F   UNL     1       2.662   2.611  17.758  0.00  0.00    +0.000 F 
ENDBRANCH  10  14
ENDBRANCH   9  10
ENDBRANCH   1   9
TORSDOF 5
ENDMDL
MODEL 3
REMARK VINA RESULT:      -5.7      2.337      2.890
REMARK  Name = 
REMARK  5 active torsions:
REMARK  status: ('A' for Active; 'I' for Inactive)
REMARK    1  A    between atoms: C_4  and  C_6
REMARK    2  A    between atoms: C_6  and  C_7
REMARK    3  A    between atoms: C_7  and  S_8
REMARK    4  A    between atoms: S_8  and  C_9
REMARK    5  A    between atoms: C_12  and  S_13
REMARK                            x       y       z     vdW  Elec       q    Type
REMARK                         _______ _______ _______ _____ _____    ______ ____
ROOT
ATOM      1  S   UNL     1       3.889   2.880  18.427  0.00  0.00    +0.000 S 
ENDROOT
BRANCH   1   2
ATOM      2  C   UNL     1       5.093   4.147  18.450  0.00  0.00    +0.000 A 
ATOM      3  N   UNL     1       6.002   4.263  19.393  0.00  0.00    +0.000 NA
ATOM      4  N   UNL     1       6.849   5.335  19.164  0.00  0.00    +0.000 NA
ATOM      5  C   UNL     1       6.535   5.976  18.059  0.00  0.00    +0.000 A 
ATOM      6  S   UNL     1       5.186   5.343  17.223  0.00  0.00    +0.000 S 
BRANCH   5   7
ATOM      7  S   UNL     1       7.449   7.354  17.512  0.00  0.00    +0.000 S 
ATOM      8  H   UNL     1       8.623   6.969  18.032  0.00  0.00    +0.000 HD
ENDBRANCH   5   7
ENDBRANCH   1   2
BRANCH   1   9
ATOM      9  C   UNL     1       2.673   3.563  17.255  0.00  0.00    +0.000 C 
BRANCH   9  10
ATOM     10  C   UNL     1       1.502   4.167  18.031  0.00  0.00    +0.000 C 
BRANCH  10  14
ATOM     11  F   UNL     1       1.589   4.820  20.817  0.00  0.00    +0.000 F 
ATOM     12  C   UNL     1       1.122   3.610  20.445  0.00  0.00    +0.000 C 
ATOM     13  F   UNL     1       0.699   2.740  21.385  0.00  0.00    +0.000 F 
ATOM     14  C   UNL     1       1.073   3.269  19.152  0.00  0.00    +0.000 C 
ATOM     15  F   UNL     1       0.586   2.048  18.833  0.00  0.00    +0.000 F 
ENDBRANCH  10  14
ENDBRANCH   9  10
ENDBRANCH   1   9
TORSDOF 5
ENDMDL
MODEL 4
REMARK VINA RESULT:      -5.7      1.385      1.535
REMARK  Name = 
REMARK  5 active torsions:
REMARK  status: ('A' for Active; 'I' for Inactive)
REMARK    1  A    between atoms: C_4  and  C_6
REMARK    2  A    between atoms: C_6  and  C_7
REMARK    3  A    between atoms: C_7  and  S_8
REMARK    4  A    between atoms: S_8  and  C_9
REMARK    5  A    between atoms: C_12  and  S_13
REMARK                            x       y       z     vdW  Elec       q    Type
REMARK                         _______ _______ _______ _____ _____    ______ ____
ROOT
ATOM      1  S   UNL     1       5.859   5.045  18.928  0.00  0.00    +0.000 S 
ENDROOT
BRANCH   1   2
ATOM      2  C   UNL     1       6.260   4.914  17.231  0.00  0.00    +0.000 A 
ATOM      3  N   UNL     1       7.304   5.501  16.688  0.00  0.00    +0.000 NA
ATOM      4  N   UNL     1       7.408   5.218  15.336  0.00  0.00    +0.000 NA
ATOM      5  C   UNL     1       6.436   4.434  14.925  0.00  0.00    +0.000 A 
ATOM      6  S   UNL     1       5.315   3.989  16.137  0.00  0.00    +0.000 S 
BRANCH   5   7
ATOM      7  S   UNL     1       6.332   3.896  13.272  0.00  0.00    +0.000 S 
ATOM      8  H   UNL     1       5.161   3.256  13.398  0.00  0.00    +0.000 HD
ENDBRANCH   5   7
ENDBRANCH   1   2
BRANCH   1   9
ATOM      9  C   UNL     1       4.603   3.738  19.101  0.00  0.00    +0.000 C 
BRANCH   9  10
ATOM     10  C   UNL     1       3.312   4.342  19.655  0.00  0.00    +0.000 C 
BRANCH  10  14
ATOM     11  F   UNL     1       1.454   4.100  17.491  0.00  0.00    +0.000 F 
ATOM     12  C   UNL     1       1.332   3.273  18.551  0.00  0.00    +0.000 C 
ATOM     13  F   UNL     1       0.349   2.349  18.569  0.00  0.00    +0.000 F 
ATOM     14  C   UNL     1       2.179   3.363  19.583  0.00  0.00    +0.000 C 
ATOM     15  F   UNL     1       2.019   2.504  20.615  0.00  0.00    +0.000 F 
ENDBRANCH  10  14
ENDBRANCH   9  10
ENDBRANCH   1   9
TORSDOF 5
ENDMDL
MODEL 5
REMARK VINA RESULT:      -5.6      4.193      6.088
REMARK  Name = 
REMARK  5 active torsions:
REMARK  status: ('A' for Active; 'I' for Inactive)
REMARK    1  A    between atoms: C_4  and  C_6
REMARK    2  A    between atoms: C_6  and  C_7
REMARK    3  A    between atoms: C_7  and  S_8
REMARK    4  A    between atoms: S_8  and  C_9
REMARK    5  A    between atoms: C_12  and  S_13
REMARK                            x       y       z     vdW  Elec       q    Type
REMARK                         _______ _______ _______ _____ _____    ______ ____
ROOT
ATOM      1  S   UNL     1       6.873   5.609  19.000  0.00  0.00    +0.000 S 
ENDROOT
BRANCH   1   2
ATOM      2  C   UNL     1       5.354   4.765  19.197  0.00  0.00    +0.000 A 
ATOM      3  N   UNL     1       5.269   3.470  19.410  0.00  0.00    +0.000 NA
ATOM      4  N   UNL     1       3.955   3.057  19.555  0.00  0.00    +0.000 NA
ATOM      5  C   UNL     1       3.113   4.061  19.442  0.00  0.00    +0.000 A 
ATOM      6  S   UNL     1       3.843   5.576  19.137  0.00  0.00    +0.000 S 
BRANCH   5   7
ATOM      7  S   UNL     1       1.394   3.834  19.605  0.00  0.00    +0.000 S 
ATOM      8  H   UNL     1       1.035   4.832  18.786  0.00  0.00    +0.000 HD
ENDBRANCH   5   7
ENDBRANCH   1   2
BRANCH   1   9
ATOM      9  C   UNL     1       6.911   5.860  17.196  0.00  0.00    +0.000 C 
BRANCH   9  10
ATOM     10  C   UNL     1       7.135   4.518  16.499  0.00  0.00    +0.000 C 
BRANCH  10  14
ATOM     11  F   UNL     1       7.205   4.810  13.653  0.00  0.00    +0.000 F 
ATOM     12  C   UNL     1       6.080   4.342  14.233  0.00  0.00    +0.000 C 
ATOM     13  F   UNL     1       5.020   4.015  13.466  0.00  0.00    +0.000 F 
ATOM     14  C   UNL     1       6.010   4.199  15.561  0.00  0.00    +0.000 C 
ATOM     15  F   UNL     1       4.863   3.716  16.090  0.00  0.00    +0.000 F 
ENDBRANCH  10  14
ENDBRANCH   9  10
ENDBRANCH   1   9
TORSDOF 5
ENDMDL
MODEL 6
REMARK VINA RESULT:      -5.5      1.291      1.799
REMARK  Name = 
REMARK  5 active torsions:
REMARK  status: ('A' for Active; 'I' for Inactive)
REMARK    1  A    between atoms: C_4  and  C_6
REMARK    2  A    between atoms: C_6  and  C_7
REMARK    3  A    between atoms: C_7  and  S_8
REMARK    4  A    between atoms: S_8  and  C_9
REMARK    5  A    between atoms: C_12  and  S_13
REMARK                            x       y       z     vdW  Elec       q    Type
REMARK                         _______ _______ _______ _____ _____    ______ ____
ROOT
ATOM      1  S   UNL     1       4.999   4.781  19.412  0.00  0.00    +0.000 S 
ENDROOT
BRANCH   1   2
ATOM      2  C   UNL     1       5.954   4.735  17.949  0.00  0.00    +0.000 A 
ATOM      3  N   UNL     1       7.242   4.465  17.934  0.00  0.00    +0.000 NA
ATOM      4  N   UNL     1       7.754   4.468  16.648  0.00  0.00    +0.000 NA
ATOM      5  C   UNL     1       6.829   4.742  15.755  0.00  0.00    +0.000 A 
ATOM      6  S   UNL     1       5.274   5.032  16.402  0.00  0.00    +0.000 S 
BRANCH   5   7
ATOM      7  S   UNL     1       7.188   4.789  14.051  0.00  0.00    +0.000 S 
ATOM      8  H   UNL     1       6.063   5.416  13.680  0.00  0.00    +0.000 HD
ENDBRANCH   5   7
ENDBRANCH   1   2
BRANCH   1   9
ATOM      9  C   UNL     1       4.470   3.044  19.550  0.00  0.00    +0.000 C 
BRANCH   9  10
ATOM     10  C   UNL     1       3.276   2.801  18.626  0.00  0.00    +0.000 C 
BRANCH  10  14
ATOM     11  F   UNL     1       1.556   2.340  20.868  0.00  0.00    +0.000 F 
ATOM     12  C   UNL     1       1.325   3.410  20.078  0.00  0.00    +0.000 C 
ATOM     13  F   UNL     1       0.301   4.241  20.360  0.00  0.00    +0.000 F 
ATOM     14  C   UNL     1       2.105   3.652  19.018  0.00  0.00    +0.000 C 
ATOM     15  F   UNL     1       1.836   4.743  18.265  0.00  0.00    +0.000 F 
ENDBRANCH  10  14
ENDBRANCH   9  10
ENDBRANCH   1   9
TORSDOF 5
ENDMDL
MODEL 7
REMARK VINA RESULT:      -5.5      0.979      1.522
REMARK  Name = 
REMARK  5 active torsions:
REMARK  status: ('A' for Active; 'I' for Inactive)
REMARK    1  A    between atoms: C_4  and  C_6
REMARK    2  A    between atoms: C_6  and  C_7
REMARK    3  A    between atoms: C_7  and  S_8
REMARK    4  A    between atoms: S_8  and  C_9
REMARK    5  A    between atoms: C_12  and  S_13
REMARK                            x       y       z     vdW  Elec       q    Type
REMARK                         _______ _______ _______ _____ _____    ______ ____
ROOT
ATOM      1  S   UNL     1       6.029   5.567  18.448  0.00  0.00    +0.000 S 
ENDROOT
BRANCH   1   2
ATOM      2  C   UNL     1       6.359   5.250  16.760  0.00  0.00    +0.000 A 
ATOM      3  N   UNL     1       7.326   5.839  16.090  0.00  0.00    +0.000 NA
ATOM      4  N   UNL     1       7.390   5.393  14.780  0.00  0.00    +0.000 NA
ATOM      5  C   UNL     1       6.467   4.491  14.526  0.00  0.00    +0.000 A 
ATOM      6  S   UNL     1       5.444   4.124  15.844  0.00  0.00    +0.000 S 
BRANCH   5   7
ATOM      7  S   UNL     1       6.331   3.740  12.961  0.00  0.00    +0.000 S 
ATOM      8  H   UNL     1       7.235   4.515  12.346  0.00  0.00    +0.000 HD
ENDBRANCH   5   7
ENDBRANCH   1   2
BRANCH   1   9
ATOM      9  C   UNL     1       4.234   5.266  18.523  0.00  0.00    +0.000 C 
BRANCH   9  10
ATOM     10  C   UNL     1       3.960   4.037  19.389  0.00  0.00    +0.000 C 
BRANCH  10  14
ATOM     11  F   UNL     1       2.857   2.853  21.751  0.00  0.00    +0.000 F 
ATOM     12  C   UNL     1       2.018   3.352  20.819  0.00  0.00    +0.000 C 
ATOM     13  F   UNL     1       0.685   3.292  21.019  0.00  0.00    +0.000 F 
ATOM     14  C   UNL     1       2.499   3.907  19.701  0.00  0.00    +0.000 C 
ATOM     15  F   UNL     1       1.615   4.400  18.803  0.00  0.00    +0.000 F 
ENDBRANCH  10  14
ENDBRANCH   9  10
ENDBRANCH   1   9
TORSDOF 5
ENDMDL
MODEL 8
REMARK VINA RESULT:      -5.5      2.368      2.929
REMARK  Name = 
REMARK  5 active torsions:
REMARK  status: ('A' for Active; 'I' for Inactive)
REMARK    1  A    between atoms: C_4  and  C_6
REMARK    2  A    between atoms: C_6  and  C_7
REMARK    3  A    between atoms: C_7  and  S_8
REMARK    4  A    between atoms: S_8  and  C_9
REMARK    5  A    between atoms: C_12  and  S_13
REMARK                            x       y       z     vdW  Elec       q    Type
REMARK                         _______ _______ _______ _____ _____    ______ ____
ROOT
ATOM      1  S   UNL     1       4.153   3.650  18.417  0.00  0.00    +0.000 S 
ENDROOT
BRANCH   1   2
ATOM      2  C   UNL     1       5.476   4.791  18.367  0.00  0.00    +0.000 A 
ATOM      3  N   UNL     1       6.651   4.561  18.914  0.00  0.00    +0.000 NA
ATOM      4  N   UNL     1       7.528   5.613  18.711  0.00  0.00    +0.000 NA
ATOM      5  C   UNL     1       6.972   6.586  18.024  0.00  0.00    +0.000 A 
ATOM      6  S   UNL     1       5.344   6.311  17.582  0.00  0.00    +0.000 S 
BRANCH   5   7
ATOM      7  S   UNL     1       7.855   8.026  17.601  0.00  0.00    +0.000 S 
ATOM      8  H   UNL     1       8.627   7.458  16.665  0.00  0.00    +0.000 HD
ENDBRANCH   5   7
ENDBRANCH   1   2
BRANCH   1   9
ATOM      9  C   UNL     1       2.729   4.739  18.098  0.00  0.00    +0.000 C 
BRANCH   9  10
ATOM     10  C   UNL     1       1.432   3.969  18.352  0.00  0.00    +0.000 C 
BRANCH  10  14
ATOM     11  F   UNL     1       1.640   1.522  19.822  0.00  0.00    +0.000 F 
ATOM     12  C   UNL     1       1.288   2.648  20.477  0.00  0.00    +0.000 C 
ATOM     13  F   UNL     1       1.049   2.603  21.804  0.00  0.00    +0.000 F 
ATOM     14  C   UNL     1       1.175   3.808  19.820  0.00  0.00    +0.000 C 
ATOM     15  F   UNL     1       0.829   4.909  20.526  0.00  0.00    +0.000 F 
ENDBRANCH  10  14
ENDBRANCH   9  10
ENDBRANCH   1   9
TORSDOF 5
ENDMDL
MODEL 9
REMARK VINA RESULT:      -5.5      1.367      1.603
REMARK  Name = 
REMARK  5 active torsions:
REMARK  status: ('A' for Active; 'I' for Inactive)
REMARK    1  A    between atoms: C_4  and  C_6
REMARK    2  A    between atoms: C_6  and  C_7
REMARK    3  A    between atoms: C_7  and  S_8
REMARK    4  A    between atoms: S_8  and  C_9
REMARK    5  A    between atoms: C_12  and  S_13
REMARK                            x       y       z     vdW  Elec       q    Type
REMARK                         _______ _______ _______ _____ _____    ______ ____
ROOT
ATOM      1  S   UNL     1       5.882   5.760  18.054  0.00  0.00    +0.000 S 
ENDROOT
BRANCH   1   2
ATOM      2  C   UNL     1       6.308   5.341  16.411  0.00  0.00    +0.000 A 
ATOM      3  N   UNL     1       7.369   5.816  15.795  0.00  0.00    +0.000 NA
ATOM      4  N   UNL     1       7.491   5.308  14.513  0.00  0.00    +0.000 NA
ATOM      5  C   UNL     1       6.516   4.475  14.223  0.00  0.00    +0.000 A 
ATOM      6  S   UNL     1       5.369   4.254  15.471  0.00  0.00    +0.000 S 
BRANCH   5   7
ATOM      7  S   UNL     1       6.431   3.667  12.683  0.00  0.00    +0.000 S 
ATOM      8  H   UNL     1       6.685   4.749  11.934  0.00  0.00    +0.000 HD
ENDBRANCH   5   7
ENDBRANCH   1   2
BRANCH   1   9
ATOM      9  C   UNL     1       4.095   5.411  18.060  0.00  0.00    +0.000 C 
BRANCH   9  10
ATOM     10  C   UNL     1       3.826   4.150  18.882  0.00  0.00    +0.000 C 
BRANCH  10  14
ATOM     11  F   UNL     1       1.149   3.405  18.195  0.00  0.00    +0.000 F 
ATOM     12  C   UNL     1       1.383   3.953  19.406  0.00  0.00    +0.000 C 
ATOM     13  F   UNL     1       0.360   4.132  20.267  0.00  0.00    +0.000 F 
ATOM     14  C   UNL     1       2.620   4.319  19.758  0.00  0.00    +0.000 C 
ATOM     15  F   UNL     1       2.802   4.855  20.986  0.00  0.00    +0.000 F 
ENDBRANCH  10  14
ENDBRANCH   9  10
ENDBRANCH   1   9
TORSDOF 5
ENDMDL
