MODEL 1
REMARK VINA RESULT:      -7.0      0.000      0.000
REMARK  Name = 
REMARK  6 active torsions:
REMARK  status: ('A' for Active; 'I' for Inactive)
REMARK    1  A    between atoms: C_1  and  O_2
REMARK    2  A    between atoms: O_2  and  C_3
REMARK    3  A    between atoms: C_6  and  C_7
REMARK    4  A    between atoms: C_10  and  C_11
REMARK    5  A    between atoms: C_16  and  O_17
REMARK    6  A    between atoms: O_17  and  C_18
REMARK                            x       y       z     vdW  Elec       q    Type
REMARK                         _______ _______ _______ _____ _____    ______ ____
ROOT
ATOM      1  C   UNL     1       6.997   5.085  15.053  0.00  0.00    +0.000 A 
ATOM      2  C   UNL     1       6.368   3.844  14.855  0.00  0.00    +0.000 A 
ATOM      3  C   UNL     1       5.425   3.364  15.766  0.00  0.00    +0.000 A 
ATOM      4  C   UNL     1       5.124   4.105  16.906  0.00  0.00    +0.000 A 
ATOM      5  C   UNL     1       5.818   5.291  17.151  0.00  0.00    +0.000 A 
ATOM      6  C   UNL     1       6.761   5.789  16.241  0.00  0.00    +0.000 A 
ENDROOT
BRANCH   4   7
ATOM      7  C   UNL     1       4.059   3.651  17.825  0.00  0.00    +0.000 C 
ATOM      8  N   UNL     1       3.454   4.432  18.670  0.00  0.00    +0.000 NA
ATOM      9  N   UNL     1       2.569   3.650  19.361  0.00  0.00    +0.000 N 
ATOM     10  C   UNL     1       1.728   4.117  20.349  0.00  0.00    +0.000 C 
ATOM     11  C   UNL     1       1.771   5.593  20.656  0.00  0.00    +0.000 C 
ATOM     12  O   UNL     1       0.952   3.378  20.961  0.00  0.00    +0.000 OA
ATOM     13  C   UNL     1       2.618   2.254  18.983  0.00  0.00    +0.000 C 
ATOM     14  C   UNL     1       3.613   2.211  17.848  0.00  0.00    +0.000 C 
ENDBRANCH   4   7
BRANCH   1  16
ATOM     15  C   UNL     1       7.638   5.138  12.778  0.00  0.00    +0.000 C 
ATOM     16  O   UNL     1       7.853   5.594  14.115  0.00  0.00    +0.000 OA
ENDBRANCH   1  16
BRANCH   6  17
ATOM     17  O   UNL     1       7.307   6.967  16.677  0.00  0.00    +0.000 OA
ATOM     18  C   UNL     1       7.726   7.078  18.026  0.00  0.00    +0.000 C 
ENDBRANCH   6  17
TORSDOF 3
ENDMDL
MODEL 2
REMARK VINA RESULT:      -6.8      1.866      6.629
REMARK  Name = 
REMARK  6 active torsions:
REMARK  status: ('A' for Active; 'I' for Inactive)
REMARK    1  A    between atoms: C_1  and  O_2
REMARK    2  A    between atoms: O_2  and  C_3
REMARK    3  A    between atoms: C_6  and  C_7
REMARK    4  A    between atoms: C_10  and  C_11
REMARK    5  A    between atoms: C_16  and  O_17
REMARK    6  A    between atoms: O_17  and  C_18
REMARK                            x       y       z     vdW  Elec       q    Type
REMARK                         _______ _______ _______ _____ _____    ______ ____
ROOT
ATOM      1  C   UNL     1       1.899   3.208  19.544  0.00  0.00    +0.000 A 
ATOM      2  C   UNL     1       2.528   2.373  18.604  0.00  0.00    +0.000 A 
ATOM      3  C   UNL     1       3.517   2.869  17.753  0.00  0.00    +0.000 A 
ATOM      4  C   UNL     1       3.867   4.216  17.807  0.00  0.00    +0.000 A 
ATOM      5  C   UNL     1       3.175   5.066  18.673  0.00  0.00    +0.000 A 
ATOM      6  C   UNL     1       2.186   4.580  19.540  0.00  0.00    +0.000 A 
ENDROOT
BRANCH   4   7
ATOM      7  C   UNL     1       4.978   4.728  16.978  0.00  0.00    +0.000 C 
ATOM      8  N   UNL     1       5.239   4.300  15.777  0.00  0.00    +0.000 NA
ATOM      9  N   UNL     1       6.349   4.979  15.353  0.00  0.00    +0.000 N 
ATOM     10  C   UNL     1       6.935   4.810  14.116  0.00  0.00    +0.000 C 
ATOM     11  C   UNL     1       6.284   3.836  13.167  0.00  0.00    +0.000 C 
ATOM     12  O   UNL     1       7.945   5.430  13.774  0.00  0.00    +0.000 OA
ATOM     13  C   UNL     1       6.886   5.882  16.347  0.00  0.00    +0.000 C 
ATOM     14  C   UNL     1       5.910   5.792  17.497  0.00  0.00    +0.000 C 
ENDBRANCH   4   7
BRANCH   1  16
ATOM     15  C   UNL     1       1.486   2.509  21.764  0.00  0.00    +0.000 C 
ATOM     16  O   UNL     1       0.994   2.701  20.436  0.00  0.00    +0.000 OA
ENDBRANCH   1  16
BRANCH   6  17
ATOM     17  O   UNL     1       1.652   5.582  20.304  0.00  0.00    +0.000 OA
ATOM     18  C   UNL     1       2.134   6.906  20.147  0.00  0.00    +0.000 C 
ENDBRANCH   6  17
TORSDOF 3
ENDMDL
MODEL 3
REMARK VINA RESULT:      -6.8      0.991      1.598
REMARK  Name = 
REMARK  6 active torsions:
REMARK  status: ('A' for Active; 'I' for Inactive)
REMARK    1  A    between atoms: C_1  and  O_2
REMARK    2  A    between atoms: O_2  and  C_3
REMARK    3  A    between atoms: C_6  and  C_7
REMARK    4  A    between atoms: C_10  and  C_11
REMARK    5  A    between atoms: C_16  and  O_17
REMARK    6  A    between atoms: O_17  and  C_18
REMARK                            x       y       z     vdW  Elec       q    Type
REMARK                         _______ _______ _______ _____ _____    ______ ____
ROOT
ATOM      1  C   UNL     1       6.944   5.219  15.133  0.00  0.00    +0.000 A 
ATOM      2  C   UNL     1       6.063   4.125  15.108  0.00  0.00    +0.000 A 
ATOM      3  C   UNL     1       5.151   3.915  16.144  0.00  0.00    +0.000 A 
ATOM      4  C   UNL     1       5.132   4.778  17.237  0.00  0.00    +0.000 A 
ATOM      5  C   UNL     1       6.072   5.809  17.307  0.00  0.00    +0.000 A 
ATOM      6  C   UNL     1       6.987   6.037  16.270  0.00  0.00    +0.000 A 
ENDROOT
BRANCH   4   7
ATOM      7  C   UNL     1       4.108   4.619  18.290  0.00  0.00    +0.000 C 
ATOM      8  N   UNL     1       3.125   3.769  18.219  0.00  0.00    +0.000 NA
ATOM      9  N   UNL     1       2.377   3.941  19.352  0.00  0.00    +0.000 N 
ATOM     10  C   UNL     1       1.246   3.212  19.652  0.00  0.00    +0.000 C 
ATOM     11  C   UNL     1       0.835   2.137  18.678  0.00  0.00    +0.000 C 
ATOM     12  O   UNL     1       0.589   3.405  20.678  0.00  0.00    +0.000 OA
ATOM     13  C   UNL     1       2.866   4.999  20.209  0.00  0.00    +0.000 C 
ATOM     14  C   UNL     1       4.133   5.470  19.534  0.00  0.00    +0.000 C 
ENDBRANCH   4   7
BRANCH   1  16
ATOM     15  C   UNL     1       7.358   4.926  12.824  0.00  0.00    +0.000 C 
ATOM     16  O   UNL     1       7.775   5.473  14.076  0.00  0.00    +0.000 OA
ENDBRANCH   1  16
BRANCH   6  17
ATOM     17  O   UNL     1       7.802   7.102  16.544  0.00  0.00    +0.000 OA
ATOM     18  C   UNL     1       7.818   7.643  17.855  0.00  0.00    +0.000 C 
ENDBRANCH   6  17
TORSDOF 3
ENDMDL
MODEL 4
REMARK VINA RESULT:      -6.5      1.082      1.344
REMARK  Name = 
REMARK  6 active torsions:
REMARK  status: ('A' for Active; 'I' for Inactive)
REMARK    1  A    between atoms: C_1  and  O_2
REMARK    2  A    between atoms: O_2  and  C_3
REMARK    3  A    between atoms: C_6  and  C_7
REMARK    4  A    between atoms: C_10  and  C_11
REMARK    5  A    between atoms: C_16  and  O_17
REMARK    6  A    between atoms: O_17  and  C_18
REMARK                            x       y       z     vdW  Elec       q    Type
REMARK                         _______ _______ _______ _____ _____    ______ ____
ROOT
ATOM      1  C   UNL     1       6.781   5.148  15.404  0.00  0.00    +0.000 A 
ATOM      2  C   UNL     1       6.117   3.914  15.296  0.00  0.00    +0.000 A 
ATOM      3  C   UNL     1       5.054   3.594  16.144  0.00  0.00    +0.000 A 
ATOM      4  C   UNL     1       4.664   4.492  17.135  0.00  0.00    +0.000 A 
ATOM      5  C   UNL     1       5.386   5.676  17.305  0.00  0.00    +0.000 A 
ATOM      6  C   UNL     1       6.449   6.013  16.455  0.00  0.00    +0.000 A 
ENDROOT
BRANCH   4   7
ATOM      7  C   UNL     1       3.481   4.204  17.972  0.00  0.00    +0.000 C 
ATOM      8  N   UNL     1       3.539   3.580  19.113  0.00  0.00    +0.000 NA
ATOM      9  N   UNL     1       2.252   3.472  19.565  0.00  0.00    +0.000 N 
ATOM     10  C   UNL     1       1.897   2.875  20.756  0.00  0.00    +0.000 C 
ATOM     11  C   UNL     1       3.008   2.340  21.623  0.00  0.00    +0.000 C 
ATOM     12  O   UNL     1       0.723   2.784  21.124  0.00  0.00    +0.000 OA
ATOM     13  C   UNL     1       1.274   4.019  18.651  0.00  0.00    +0.000 C 
ATOM     14  C   UNL     1       2.099   4.611  17.533  0.00  0.00    +0.000 C 
ENDBRANCH   4   7
BRANCH   1  16
ATOM     15  C   UNL     1       7.578   5.017  13.182  0.00  0.00    +0.000 C 
ATOM     16  O   UNL     1       7.762   5.495  14.516  0.00  0.00    +0.000 OA
ENDBRANCH   1  16
BRANCH   6  17
ATOM     17  O   UNL     1       7.002   7.218  16.796  0.00  0.00    +0.000 OA
ATOM     18  C   UNL     1       7.794   7.310  17.969  0.00  0.00    +0.000 C 
ENDBRANCH   6  17
TORSDOF 3
ENDMDL
MODEL 5
REMARK VINA RESULT:      -6.5      2.552      6.463
REMARK  Name = 
REMARK  6 active torsions:
REMARK  status: ('A' for Active; 'I' for Inactive)
REMARK    1  A    between atoms: C_1  and  O_2
REMARK    2  A    between atoms: O_2  and  C_3
REMARK    3  A    between atoms: C_6  and  C_7
REMARK    4  A    between atoms: C_10  and  C_11
REMARK    5  A    between atoms: C_16  and  O_17
REMARK    6  A    between atoms: O_17  and  C_18
REMARK                            x       y       z     vdW  Elec       q    Type
REMARK                         _______ _______ _______ _____ _____    ______ ____
ROOT
ATOM      1  C   UNL     1       2.999   4.399  19.577  0.00  0.00    +0.000 A 
ATOM      2  C   UNL     1       3.558   3.218  19.059  0.00  0.00    +0.000 A 
ATOM      3  C   UNL     1       4.321   3.238  17.890  0.00  0.00    +0.000 A 
ATOM      4  C   UNL     1       4.506   4.435  17.203  0.00  0.00    +0.000 A 
ATOM      5  C   UNL     1       3.871   5.590  17.664  0.00  0.00    +0.000 A 
ATOM      6  C   UNL     1       3.110   5.587  18.841  0.00  0.00    +0.000 A 
ENDROOT
BRANCH   4   7
ATOM      7  C   UNL     1       5.389   4.482  16.019  0.00  0.00    +0.000 C 
ATOM      8  N   UNL     1       5.052   4.025  14.848  0.00  0.00    +0.000 NA
ATOM      9  N   UNL     1       6.132   4.212  14.030  0.00  0.00    +0.000 N 
ATOM     10  C   UNL     1       6.165   3.862  12.697  0.00  0.00    +0.000 C 
ATOM     11  C   UNL     1       4.913   3.265  12.105  0.00  0.00    +0.000 C 
ATOM     12  O   UNL     1       7.164   4.033  11.993  0.00  0.00    +0.000 OA
ATOM     13  C   UNL     1       7.274   4.788  14.707  0.00  0.00    +0.000 C 
ATOM     14  C   UNL     1       6.777   5.062  16.107  0.00  0.00    +0.000 C 
ENDBRANCH   4   7
BRANCH   1  16
ATOM     15  C   UNL     1       1.391   3.327  20.938  0.00  0.00    +0.000 C 
ATOM     16  O   UNL     1       2.328   4.393  20.769  0.00  0.00    +0.000 OA
ENDBRANCH   1  16
BRANCH   6  17
ATOM     17  O   UNL     1       2.593   6.826  19.109  0.00  0.00    +0.000 OA
ATOM     18  C   UNL     1       2.590   7.811  18.089  0.00  0.00    +0.000 C 
ENDBRANCH   6  17
TORSDOF 3
ENDMDL
MODEL 6
REMARK VINA RESULT:      -6.5      2.615      6.728
REMARK  Name = 
REMARK  6 active torsions:
REMARK  status: ('A' for Active; 'I' for Inactive)
REMARK    1  A    between atoms: C_1  and  O_2
REMARK    2  A    between atoms: O_2  and  C_3
REMARK    3  A    between atoms: C_6  and  C_7
REMARK    4  A    between atoms: C_10  and  C_11
REMARK    5  A    between atoms: C_16  and  O_17
REMARK    6  A    between atoms: O_17  and  C_18
REMARK                            x       y       z     vdW  Elec       q    Type
REMARK                         _______ _______ _______ _____ _____    ______ ____
ROOT
ATOM      1  C   UNL     1       2.762   4.944  19.020  0.00  0.00    +0.000 A 
ATOM      2  C   UNL     1       3.357   6.104  18.494  0.00  0.00    +0.000 A 
ATOM      3  C   UNL     1       4.264   6.028  17.436  0.00  0.00    +0.000 A 
ATOM      4  C   UNL     1       4.614   4.786  16.911  0.00  0.00    +0.000 A 
ATOM      5  C   UNL     1       4.097   3.628  17.496  0.00  0.00    +0.000 A 
ATOM      6  C   UNL     1       3.178   3.690  18.553  0.00  0.00    +0.000 A 
ENDROOT
BRANCH   4   7
ATOM      7  C   UNL     1       5.499   4.703  15.730  0.00  0.00    +0.000 C 
ATOM      8  N   UNL     1       5.153   4.145  14.606  0.00  0.00    +0.000 NA
ATOM      9  N   UNL     1       6.238   4.232  13.777  0.00  0.00    +0.000 N 
ATOM     10  C   UNL     1       6.264   3.756  12.483  0.00  0.00    +0.000 C 
ATOM     11  C   UNL     1       5.000   3.133  11.947  0.00  0.00    +0.000 C 
ATOM     12  O   UNL     1       7.267   3.840  11.769  0.00  0.00    +0.000 OA
ATOM     13  C   UNL     1       7.390   4.846  14.399  0.00  0.00    +0.000 C 
ATOM     14  C   UNL     1       6.899   5.260  15.766  0.00  0.00    +0.000 C 
ENDBRANCH   4   7
BRANCH   1  16
ATOM     15  C   UNL     1       1.705   6.297  20.645  0.00  0.00    +0.000 C 
ATOM     16  O   UNL     1       1.807   5.028  19.996  0.00  0.00    +0.000 OA
ENDBRANCH   1  16
BRANCH   6  17
ATOM     17  O   UNL     1       2.796   2.441  18.960  0.00  0.00    +0.000 OA
ATOM     18  C   UNL     1       3.559   1.317  18.556  0.00  0.00    +0.000 C 
ENDBRANCH   6  17
TORSDOF 3
ENDMDL
MODEL 7
REMARK VINA RESULT:      -6.4      3.887      6.223
REMARK  Name = 
REMARK  6 active torsions:
REMARK  status: ('A' for Active; 'I' for Inactive)
REMARK    1  A    between atoms: C_1  and  O_2
REMARK    2  A    between atoms: O_2  and  C_3
REMARK    3  A    between atoms: C_6  and  C_7
REMARK    4  A    between atoms: C_10  and  C_11
REMARK    5  A    between atoms: C_16  and  O_17
REMARK    6  A    between atoms: O_17  and  C_18
REMARK                            x       y       z     vdW  Elec       q    Type
REMARK                         _______ _______ _______ _____ _____    ______ ____
ROOT
ATOM      1  C   UNL     1       3.566   3.774  19.137  0.00  0.00    +0.000 A 
ATOM      2  C   UNL     1       3.711   4.564  17.984  0.00  0.00    +0.000 A 
ATOM      3  C   UNL     1       3.205   5.864  17.937  0.00  0.00    +0.000 A 
ATOM      4  C   UNL     1       2.517   6.380  19.032  0.00  0.00    +0.000 A 
ATOM      5  C   UNL     1       2.289   5.562  20.141  0.00  0.00    +0.000 A 
ATOM      6  C   UNL     1       2.799   4.258  20.206  0.00  0.00    +0.000 A 
ENDROOT
BRANCH   4   7
ATOM      7  C   UNL     1       2.061   7.786  19.027  0.00  0.00    +0.000 C 
ATOM      8  N   UNL     1       1.489   8.363  20.043  0.00  0.00    +0.000 NA
ATOM      9  N   UNL     1       1.184   9.637  19.647  0.00  0.00    +0.000 N 
ATOM     10  C   UNL     1       0.571  10.573  20.453  0.00  0.00    +0.000 C 
ATOM     11  C   UNL     1       0.251  10.166  21.869  0.00  0.00    +0.000 C 
ATOM     12  O   UNL     1       0.298  11.709  20.056  0.00  0.00    +0.000 OA
ATOM     13  C   UNL     1       1.535   9.912  18.271  0.00  0.00    +0.000 C 
ATOM     14  C   UNL     1       2.223   8.651  17.804  0.00  0.00    +0.000 C 
ENDBRANCH   4   7
BRANCH   1  16
ATOM     15  C   UNL     1       3.527   1.525  18.408  0.00  0.00    +0.000 C 
ATOM     16  O   UNL     1       4.140   2.534  19.213  0.00  0.00    +0.000 OA
ENDBRANCH   1  16
BRANCH   6  17
ATOM     17  O   UNL     1       2.467   3.646  21.384  0.00  0.00    +0.000 OA
ATOM     18  C   UNL     1       1.346   2.779  21.422  0.00  0.00    +0.000 C 
ENDBRANCH   6  17
TORSDOF 3
ENDMDL
MODEL 8
REMARK VINA RESULT:      -6.4      4.004      6.559
REMARK  Name = 
REMARK  6 active torsions:
REMARK  status: ('A' for Active; 'I' for Inactive)
REMARK    1  A    between atoms: C_1  and  O_2
REMARK    2  A    between atoms: O_2  and  C_3
REMARK    3  A    between atoms: C_6  and  C_7
REMARK    4  A    between atoms: C_10  and  C_11
REMARK    5  A    between atoms: C_16  and  O_17
REMARK    6  A    between atoms: O_17  and  C_18
REMARK                            x       y       z     vdW  Elec       q    Type
REMARK                         _______ _______ _______ _____ _____    ______ ____
ROOT
ATOM      1  C   UNL     1       0.833  10.001  18.962  0.00  0.00    +0.000 A 
ATOM      2  C   UNL     1       1.589   9.525  17.876  0.00  0.00    +0.000 A 
ATOM      3  C   UNL     1       2.284   8.317  17.960  0.00  0.00    +0.000 A 
ATOM      4  C   UNL     1       2.260   7.585  19.145  0.00  0.00    +0.000 A 
ATOM      5  C   UNL     1       1.589   8.105  20.254  0.00  0.00    +0.000 A 
ATOM      6  C   UNL     1       0.879   9.311  20.181  0.00  0.00    +0.000 A 
ENDROOT
BRANCH   4   7
ATOM      7  C   UNL     1       2.913   6.261  19.211  0.00  0.00    +0.000 C 
ATOM      8  N   UNL     1       2.534   5.308  20.013  0.00  0.00    +0.000 NA
ATOM      9  N   UNL     1       3.395   4.264  19.812  0.00  0.00    +0.000 N 
ATOM     10  C   UNL     1       3.317   3.057  20.474  0.00  0.00    +0.000 C 
ATOM     11  C   UNL     1       2.188   2.877  21.457  0.00  0.00    +0.000 C 
ATOM     12  O   UNL     1       4.120   2.142  20.276  0.00  0.00    +0.000 OA
ATOM     13  C   UNL     1       4.436   4.552  18.850  0.00  0.00    +0.000 C 
ATOM     14  C   UNL     1       4.101   5.935  18.343  0.00  0.00    +0.000 C 
ENDBRANCH   4   7
BRANCH   1  16
ATOM     15  C   UNL     1      -1.274  10.939  18.442  0.00  0.00    +0.000 C 
ATOM     16  O   UNL     1       0.082  11.138  18.847  0.00  0.00    +0.000 OA
ENDBRANCH   1  16
BRANCH   6  17
ATOM     17  O   UNL     1       0.290   9.621  21.377  0.00  0.00    +0.000 OA
ATOM     18  C   UNL     1       0.965   9.307  22.584  0.00  0.00    +0.000 C 
ENDBRANCH   6  17
TORSDOF 3
ENDMDL
MODEL 9
REMARK VINA RESULT:      -6.3      3.896      6.624
REMARK  Name = 
REMARK  6 active torsions:
REMARK  status: ('A' for Active; 'I' for Inactive)
REMARK    1  A    between atoms: C_1  and  O_2
REMARK    2  A    between atoms: O_2  and  C_3
REMARK    3  A    between atoms: C_6  and  C_7
REMARK    4  A    between atoms: C_10  and  C_11
REMARK    5  A    between atoms: C_16  and  O_17
REMARK    6  A    between atoms: O_17  and  C_18
REMARK                            x       y       z     vdW  Elec       q    Type
REMARK                         _______ _______ _______ _____ _____    ______ ____
ROOT
ATOM      1  C   UNL     1       1.061   9.919  19.409  0.00  0.00    +0.000 A 
ATOM      2  C   UNL     1       1.541   9.676  18.111  0.00  0.00    +0.000 A 
ATOM      3  C   UNL     1       2.105   8.443  17.774  0.00  0.00    +0.000 A 
ATOM      4  C   UNL     1       2.227   7.450  18.742  0.00  0.00    +0.000 A 
ATOM      5  C   UNL     1       1.839   7.726  20.055  0.00  0.00    +0.000 A 
ATOM      6  C   UNL     1       1.263   8.954  20.405  0.00  0.00    +0.000 A 
ENDROOT
BRANCH   4   7
ATOM      7  C   UNL     1       2.735   6.112  18.372  0.00  0.00    +0.000 C 
ATOM      8  N   UNL     1       2.083   5.007  18.590  0.00  0.00    +0.000 NA
ATOM      9  N   UNL     1       2.882   3.988  18.147  0.00  0.00    +0.000 N 
ATOM     10  C   UNL     1       2.538   2.654  18.198  0.00  0.00    +0.000 C 
ATOM     11  C   UNL     1       1.177   2.310  18.749  0.00  0.00    +0.000 C 
ATOM     12  O   UNL     1       3.291   1.762  17.801  0.00  0.00    +0.000 OA
ATOM     13  C   UNL     1       4.161   4.438  17.642  0.00  0.00    +0.000 C 
ATOM     14  C   UNL     1       4.082   5.945  17.718  0.00  0.00    +0.000 C 
ENDBRANCH   4   7
BRANCH   1  16
ATOM     15  C   UNL     1       1.275  12.138  20.196  0.00  0.00    +0.000 C 
ATOM     16  O   UNL     1       0.429  11.094  19.712  0.00  0.00    +0.000 OA
ENDBRANCH   1  16
BRANCH   6  17
ATOM     17  O   UNL     1       0.948   9.002  21.736  0.00  0.00    +0.000 OA
ATOM     18  C   UNL     1      -0.396   8.797  22.138  0.00  0.00    +0.000 C 
ENDBRANCH   6  17
TORSDOF 3
ENDMDL
