MODEL 1
REMARK VINA RESULT:      -7.2      0.000      0.000
REMARK  Name = 
REMARK  11 active torsions:
REMARK  status: ('A' for Active; 'I' for Inactive)
REMARK    1  A    between atoms: C_1  and  C_2
REMARK    2  A    between atoms: C_6  and  C_7
REMARK    3  A    between atoms: C_8  and  N_9
REMARK    4  A    between atoms: C_13  and  C_14
REMARK    5  A    between atoms: C_14  and  C_15
REMARK    6  A    between atoms: C_14  and  N_25
REMARK    7  A    between atoms: N_25  and  C_26
REMARK    8  A    between atoms: N_25  and  C_30
REMARK    9  A    between atoms: C_26  and  C_27
REMARK   10  A    between atoms: C_27  and  C_28
REMARK   11  A    between atoms: C_30  and  C_31
REMARK                            x       y       z     vdW  Elec       q    Type
REMARK                         _______ _______ _______ _____ _____    ______ ____
ROOT
ATOM      1  C   UNL     1      -0.452  12.568  20.786  0.00  0.00    +0.000 C 
ENDROOT
BRANCH   1   2
ATOM      2  C   UNL     1      -0.339  11.136  21.348  0.00  0.00    +0.000 A 
ATOM      3  C   UNL     1      -0.817  10.863  22.640  0.00  0.00    +0.000 A 
ATOM      4  C   UNL     1      -0.437   9.687  23.255  0.00  0.00    +0.000 A 
ATOM      5  N   UNL     1       0.352   8.759  22.680  0.00  0.00    +0.000 NA
ATOM      6  C   UNL     1       0.745   8.955  21.415  0.00  0.00    +0.000 A 
ATOM      7  C   UNL     1       1.541   7.977  20.828  0.00  0.00    +0.000 A 
ATOM      8  C   UNL     1       1.944   8.042  19.494  0.00  0.00    +0.000 A 
ATOM      9  C   UNL     1       1.561   9.124  18.725  0.00  0.00    +0.000 A 
ATOM     10  C   UNL     1       0.846  10.161  19.322  0.00  0.00    +0.000 A 
ATOM     11  C   UNL     1       0.405  10.110  20.672  0.00  0.00    +0.000 A 
ENDBRANCH   1   2
BRANCH   1  16
ATOM     12  N   UNL     1      -1.692  14.170  22.499  0.00  0.00    +0.000 N 
ATOM     13  N   UNL     1      -1.248  15.065  23.419  0.00  0.00    +0.000 NA
ATOM     14  N   UNL     1       0.063  15.117  23.319  0.00  0.00    +0.000 NA
ATOM     15  N   UNL     1       0.508  14.237  22.391  0.00  0.00    +0.000 NA
ATOM     16  C   UNL     1      -0.551  13.603  21.903  0.00  0.00    +0.000 A 
BRANCH  12  24
ATOM     17  C   UNL     1      -3.741  12.486  24.117  0.00  0.00    +0.000 C 
ATOM     18  C   UNL     1      -3.954  13.156  22.786  0.00  0.00    +0.000 A 
ATOM     19  C   UNL     1      -5.228  12.930  22.223  0.00  0.00    +0.000 A 
ATOM     20  C   UNL     1      -5.709  13.728  21.195  0.00  0.00    +0.000 A 
ATOM     21  C   UNL     1      -4.940  14.790  20.749  0.00  0.00    +0.000 A 
ATOM     22  C   UNL     1      -3.636  15.006  21.233  0.00  0.00    +0.000 A 
ATOM     23  C   UNL     1      -2.930  16.223  20.681  0.00  0.00    +0.000 C 
ATOM     24  C   UNL     1      -3.089  14.097  22.192  0.00  0.00    +0.000 A 
ENDBRANCH  12  24
ENDBRANCH   1  16
BRANCH   1  25
ATOM     25  N   UNL     1      -1.494  12.831  19.709  0.00  0.00    +0.000 NA
BRANCH  25  26
ATOM     26  C   UNL     1      -0.826  13.038  18.382  0.00  0.00    +0.000 C 
BRANCH  26  27
ATOM     27  C   UNL     1       0.259  14.115  18.366  0.00  0.00    +0.000 C 
BRANCH  27  28
ATOM     28  C   UNL     1       1.662  13.538  18.269  0.00  0.00    +0.000 C 
ATOM     29  N   UNL     1       2.826  13.059  18.187  0.00  0.00    +0.000 NA
ENDBRANCH  27  28
ENDBRANCH  26  27
ENDBRANCH  25  26
BRANCH  25  30
ATOM     30  C   UNL     1      -2.571  11.819  19.608  0.00  0.00    +0.000 C 
BRANCH  30  31
ATOM     31  C   UNL     1      -2.865  11.253  18.233  0.00  0.00    +0.000 A 
ATOM     32  C   UNL     1      -3.969  11.713  17.480  0.00  0.00    +0.000 A 
ATOM     33  C   UNL     1      -4.228  11.234  16.191  0.00  0.00    +0.000 A 
ATOM     34  C   UNL     1      -3.377  10.294  15.618  0.00  0.00    +0.000 A 
ATOM     35  C   UNL     1      -2.277   9.831  16.342  0.00  0.00    +0.000 A 
ATOM     36  C   UNL     1      -2.024  10.307  17.640  0.00  0.00    +0.000 A 
ENDBRANCH  30  31
ENDBRANCH  25  30
ENDBRANCH   1  25
TORSDOF 9
ENDMDL
MODEL 2
REMARK VINA RESULT:      -7.2      2.064      5.248
REMARK  Name = 
REMARK  11 active torsions:
REMARK  status: ('A' for Active; 'I' for Inactive)
REMARK    1  A    between atoms: C_1  and  C_2
REMARK    2  A    between atoms: C_6  and  C_7
REMARK    3  A    between atoms: C_8  and  N_9
REMARK    4  A    between atoms: C_13  and  C_14
REMARK    5  A    between atoms: C_14  and  C_15
REMARK    6  A    between atoms: C_14  and  N_25
REMARK    7  A    between atoms: N_25  and  C_26
REMARK    8  A    between atoms: N_25  and  C_30
REMARK    9  A    between atoms: C_26  and  C_27
REMARK   10  A    between atoms: C_27  and  C_28
REMARK   11  A    between atoms: C_30  and  C_31
REMARK                            x       y       z     vdW  Elec       q    Type
REMARK                         _______ _______ _______ _____ _____    ______ ____
ROOT
ATOM      1  C   UNL     1      -0.440  12.728  19.750  0.00  0.00    +0.000 C 
ENDROOT
BRANCH   1   2
ATOM      2  C   UNL     1       0.817  13.606  19.582  0.00  0.00    +0.000 A 
ATOM      3  C   UNL     1       2.057  13.130  20.037  0.00  0.00    +0.000 A 
ATOM      4  C   UNL     1       3.103  14.021  20.176  0.00  0.00    +0.000 A 
ATOM      5  N   UNL     1       3.018  15.331  19.875  0.00  0.00    +0.000 NA
ATOM      6  C   UNL     1       1.873  15.790  19.353  0.00  0.00    +0.000 A 
ATOM      7  C   UNL     1       1.809  17.141  19.027  0.00  0.00    +0.000 A 
ATOM      8  C   UNL     1       0.695  17.709  18.409  0.00  0.00    +0.000 A 
ATOM      9  C   UNL     1      -0.399  16.914  18.126  0.00  0.00    +0.000 A 
ATOM     10  C   UNL     1      -0.391  15.581  18.532  0.00  0.00    +0.000 A 
ATOM     11  C   UNL     1       0.738  14.972  19.144  0.00  0.00    +0.000 A 
ENDBRANCH   1   2
BRANCH   1  16
ATOM     12  N   UNL     1      -1.458  13.426  22.100  0.00  0.00    +0.000 N 
ATOM     13  N   UNL     1      -1.507  12.810  23.308  0.00  0.00    +0.000 NA
ATOM     14  N   UNL     1      -0.838  11.681  23.203  0.00  0.00    +0.000 NA
ATOM     15  N   UNL     1      -0.391  11.505  21.937  0.00  0.00    +0.000 NA
ATOM     16  C   UNL     1      -0.802  12.545  21.221  0.00  0.00    +0.000 A 
BRANCH  12  24
ATOM     17  C   UNL     1      -4.416  14.331  21.808  0.00  0.00    +0.000 C 
ATOM     18  C   UNL     1      -3.179  15.168  21.617  0.00  0.00    +0.000 A 
ATOM     19  C   UNL     1      -3.436  16.496  21.216  0.00  0.00    +0.000 A 
ATOM     20  C   UNL     1      -2.462  17.478  21.324  0.00  0.00    +0.000 A 
ATOM     21  C   UNL     1      -1.235  17.154  21.876  0.00  0.00    +0.000 A 
ATOM     22  C   UNL     1      -0.913  15.828  22.222  0.00  0.00    +0.000 A 
ATOM     23  C   UNL     1       0.449  15.630  22.847  0.00  0.00    +0.000 C 
ATOM     24  C   UNL     1      -1.869  14.793  21.978  0.00  0.00    +0.000 A 
ENDBRANCH  12  24
ENDBRANCH   1  16
BRANCH   1  25
ATOM     25  N   UNL     1      -0.486  11.400  19.011  0.00  0.00    +0.000 NA
BRANCH  25  26
ATOM     26  C   UNL     1      -1.597  11.407  18.002  0.00  0.00    +0.000 C 
BRANCH  26  27
ATOM     27  C   UNL     1      -1.938  10.040  17.409  0.00  0.00    +0.000 C 
BRANCH  27  28
ATOM     28  C   UNL     1      -2.476  10.129  15.990  0.00  0.00    +0.000 C 
ATOM     29  N   UNL     1      -2.923  10.204  14.813  0.00  0.00    +0.000 NA
ENDBRANCH  27  28
ENDBRANCH  26  27
ENDBRANCH  25  26
BRANCH  25  30
ATOM     30  C   UNL     1       0.790  10.975  18.390  0.00  0.00    +0.000 C 
BRANCH  30  31
ATOM     31  C   UNL     1       1.312   9.598  18.750  0.00  0.00    +0.000 A 
ATOM     32  C   UNL     1       2.013   8.817  17.804  0.00  0.00    +0.000 A 
ATOM     33  C   UNL     1       2.541   7.564  18.134  0.00  0.00    +0.000 A 
ATOM     34  C   UNL     1       2.392   7.068  19.425  0.00  0.00    +0.000 A 
ATOM     35  C   UNL     1       1.707   7.826  20.378  0.00  0.00    +0.000 A 
ATOM     36  C   UNL     1       1.171   9.081  20.041  0.00  0.00    +0.000 A 
ENDBRANCH  30  31
ENDBRANCH  25  30
ENDBRANCH   1  25
TORSDOF 9
ENDMDL
MODEL 3
REMARK VINA RESULT:      -7.0      2.001      5.050
REMARK  Name = 
REMARK  11 active torsions:
REMARK  status: ('A' for Active; 'I' for Inactive)
REMARK    1  A    between atoms: C_1  and  C_2
REMARK    2  A    between atoms: C_6  and  C_7
REMARK    3  A    between atoms: C_8  and  N_9
REMARK    4  A    between atoms: C_13  and  C_14
REMARK    5  A    between atoms: C_14  and  C_15
REMARK    6  A    between atoms: C_14  and  N_25
REMARK    7  A    between atoms: N_25  and  C_26
REMARK    8  A    between atoms: N_25  and  C_30
REMARK    9  A    between atoms: C_26  and  C_27
REMARK   10  A    between atoms: C_27  and  C_28
REMARK   11  A    between atoms: C_30  and  C_31
REMARK                            x       y       z     vdW  Elec       q    Type
REMARK                         _______ _______ _______ _____ _____    ______ ____
ROOT
ATOM      1  C   UNL     1      -0.689  12.279  19.982  0.00  0.00    +0.000 C 
ENDROOT
BRANCH   1   2
ATOM      2  C   UNL     1       0.587  13.144  19.917  0.00  0.00    +0.000 A 
ATOM      3  C   UNL     1       1.784  12.648  20.457  0.00  0.00    +0.000 A 
ATOM      4  C   UNL     1       2.826  13.524  20.683  0.00  0.00    +0.000 A 
ATOM      5  N   UNL     1       2.779  14.838  20.391  0.00  0.00    +0.000 NA
ATOM      6  C   UNL     1       1.681  15.317  19.791  0.00  0.00    +0.000 A 
ATOM      7  C   UNL     1       1.656  16.671  19.475  0.00  0.00    +0.000 A 
ATOM      8  C   UNL     1       0.598  17.259  18.783  0.00  0.00    +0.000 A 
ATOM      9  C   UNL     1      -0.481  16.480  18.411  0.00  0.00    +0.000 A 
ATOM     10  C   UNL     1      -0.518  15.143  18.802  0.00  0.00    +0.000 A 
ATOM     11  C   UNL     1       0.555  14.515  19.489  0.00  0.00    +0.000 A 
ENDBRANCH   1   2
BRANCH   1  16
ATOM     12  N   UNL     1      -1.927  13.041  22.202  0.00  0.00    +0.000 N 
ATOM     13  N   UNL     1      -2.099  12.456  23.415  0.00  0.00    +0.000 NA
ATOM     14  N   UNL     1      -1.433  11.321  23.403  0.00  0.00    +0.000 NA
ATOM     15  N   UNL     1      -0.865  11.111  22.192  0.00  0.00    +0.000 NA
ATOM     16  C   UNL     1      -1.195  12.135  21.414  0.00  0.00    +0.000 A 
BRANCH  12  24
ATOM     17  C   UNL     1      -0.113  15.472  22.878  0.00  0.00    +0.000 C 
ATOM     18  C   UNL     1      -1.577  15.491  22.530  0.00  0.00    +0.000 A 
ATOM     19  C   UNL     1      -2.165  16.773  22.573  0.00  0.00    +0.000 A 
ATOM     20  C   UNL     1      -3.387  17.022  21.965  0.00  0.00    +0.000 A 
ATOM     21  C   UNL     1      -4.014  16.003  21.269  0.00  0.00    +0.000 A 
ATOM     22  C   UNL     1      -3.499  14.694  21.263  0.00  0.00    +0.000 A 
ATOM     23  C   UNL     1      -4.270  13.693  20.432  0.00  0.00    +0.000 C 
ATOM     24  C   UNL     1      -2.312  14.407  22.008  0.00  0.00    +0.000 A 
ENDBRANCH  12  24
ENDBRANCH   1  16
BRANCH   1  25
ATOM     25  N   UNL     1      -0.676  10.934  19.273  0.00  0.00    +0.000 NA
BRANCH  25  26
ATOM     26  C   UNL     1      -1.915  10.772  18.444  0.00  0.00    +0.000 C 
BRANCH  26  27
ATOM     27  C   UNL     1      -1.725   9.991  17.144  0.00  0.00    +0.000 C 
BRANCH  27  28
ATOM     28  C   UNL     1      -2.569  10.532  16.000  0.00  0.00    +0.000 C 
ATOM     29  N   UNL     1      -3.269  10.979  15.052  0.00  0.00    +0.000 NA
ENDBRANCH  27  28
ENDBRANCH  26  27
ENDBRANCH  25  26
BRANCH  25  30
ATOM     30  C   UNL     1       0.538  10.651  18.472  0.00  0.00    +0.000 C 
BRANCH  30  31
ATOM     31  C   UNL     1       1.289   9.370  18.778  0.00  0.00    +0.000 A 
ATOM     32  C   UNL     1       1.213   8.772  20.056  0.00  0.00    +0.000 A 
ATOM     33  C   UNL     1       1.863   7.566  20.341  0.00  0.00    +0.000 A 
ATOM     34  C   UNL     1       2.593   6.922  19.347  0.00  0.00    +0.000 A 
ATOM     35  C   UNL     1       2.677   7.493  18.076  0.00  0.00    +0.000 A 
ATOM     36  C   UNL     1       2.030   8.709  17.795  0.00  0.00    +0.000 A 
ENDBRANCH  30  31
ENDBRANCH  25  30
ENDBRANCH   1  25
TORSDOF 9
ENDMDL
MODEL 4
REMARK VINA RESULT:      -7.0      2.670      5.769
REMARK  Name = 
REMARK  11 active torsions:
REMARK  status: ('A' for Active; 'I' for Inactive)
REMARK    1  A    between atoms: C_1  and  C_2
REMARK    2  A    between atoms: C_6  and  C_7
REMARK    3  A    between atoms: C_8  and  N_9
REMARK    4  A    between atoms: C_13  and  C_14
REMARK    5  A    between atoms: C_14  and  C_15
REMARK    6  A    between atoms: C_14  and  N_25
REMARK    7  A    between atoms: N_25  and  C_26
REMARK    8  A    between atoms: N_25  and  C_30
REMARK    9  A    between atoms: C_26  and  C_27
REMARK   10  A    between atoms: C_27  and  C_28
REMARK   11  A    between atoms: C_30  and  C_31
REMARK                            x       y       z     vdW  Elec       q    Type
REMARK                         _______ _______ _______ _____ _____    ______ ____
ROOT
ATOM      1  C   UNL     1      -1.961  13.879  21.637  0.00  0.00    +0.000 C 
ENDROOT
BRANCH   1   2
ATOM      2  C   UNL     1      -3.076  14.682  20.938  0.00  0.00    +0.000 A 
ATOM      3  C   UNL     1      -2.915  16.064  20.748  0.00  0.00    +0.000 A 
ATOM      4  C   UNL     1      -4.020  16.824  20.419  0.00  0.00    +0.000 A 
ATOM      5  N   UNL     1      -5.255  16.317  20.241  0.00  0.00    +0.000 NA
ATOM      6  C   UNL     1      -5.415  14.990  20.328  0.00  0.00    +0.000 A 
ATOM      7  C   UNL     1      -6.692  14.479  20.120  0.00  0.00    +0.000 A 
ATOM      8  C   UNL     1      -6.959  13.110  20.112  0.00  0.00    +0.000 A 
ATOM      9  C   UNL     1      -5.926  12.221  20.339  0.00  0.00    +0.000 A 
ATOM     10  C   UNL     1      -4.660  12.715  20.645  0.00  0.00    +0.000 A 
ATOM     11  C   UNL     1      -4.357  14.104  20.639  0.00  0.00    +0.000 A 
ENDBRANCH   1   2
BRANCH   1  16
ATOM     12  N   UNL     1      -2.600  14.694  24.080  0.00  0.00    +0.000 N 
ATOM     13  N   UNL     1      -1.867  15.163  25.122  0.00  0.00    +0.000 NA
ATOM     14  N   UNL     1      -0.617  15.248  24.718  0.00  0.00    +0.000 NA
ATOM     15  N   UNL     1      -0.492  14.796  23.449  0.00  0.00    +0.000 NA
ATOM     16  C   UNL     1      -1.693  14.400  23.046  0.00  0.00    +0.000 A 
BRANCH  12  24
ATOM     17  C   UNL     1      -4.403  12.265  24.788  0.00  0.00    +0.000 C 
ATOM     18  C   UNL     1      -4.835  13.593  24.227  0.00  0.00    +0.000 A 
ATOM     19  C   UNL     1      -6.218  13.687  23.964  0.00  0.00    +0.000 A 
ATOM     20  C   UNL     1      -6.830  14.917  23.774  0.00  0.00    +0.000 A 
ATOM     21  C   UNL     1      -6.074  16.071  23.889  0.00  0.00    +0.000 A 
ATOM     22  C   UNL     1      -4.680  16.020  24.078  0.00  0.00    +0.000 A 
ATOM     23  C   UNL     1      -3.991  17.358  24.221  0.00  0.00    +0.000 C 
ATOM     24  C   UNL     1      -4.031  14.747  24.133  0.00  0.00    +0.000 A 
ENDBRANCH  12  24
ENDBRANCH   1  16
BRANCH   1  25
ATOM     25  N   UNL     1      -0.658  13.662  20.882  0.00  0.00    +0.000 NA
BRANCH  25  26
ATOM     26  C   UNL     1      -0.208  12.238  21.022  0.00  0.00    +0.000 C 
BRANCH  26  27
ATOM     27  C   UNL     1      -1.155  11.337  21.814  0.00  0.00    +0.000 C 
BRANCH  27  28
ATOM     28  C   UNL     1      -0.430  10.447  22.811  0.00  0.00    +0.000 C 
ATOM     29  N   UNL     1       0.173   9.709  23.637  0.00  0.00    +0.000 NA
ENDBRANCH  27  28
ENDBRANCH  26  27
ENDBRANCH  25  26
BRANCH  25  30
ATOM     30  C   UNL     1      -0.673  14.076  19.460  0.00  0.00    +0.000 C 
BRANCH  30  31
ATOM     31  C   UNL     1       0.380  15.072  19.015  0.00  0.00    +0.000 A 
ATOM     32  C   UNL     1       1.721  14.672  18.820  0.00  0.00    +0.000 A 
ATOM     33  C   UNL     1       2.695  15.568  18.366  0.00  0.00    +0.000 A 
ATOM     34  C   UNL     1       2.345  16.885  18.081  0.00  0.00    +0.000 A 
ATOM     35  C   UNL     1       1.024  17.299  18.262  0.00  0.00    +0.000 A 
ATOM     36  C   UNL     1       0.050  16.399  18.726  0.00  0.00    +0.000 A 
ENDBRANCH  30  31
ENDBRANCH  25  30
ENDBRANCH   1  25
TORSDOF 9
ENDMDL
MODEL 5
REMARK VINA RESULT:      -7.0      1.941      4.760
REMARK  Name = 
REMARK  11 active torsions:
REMARK  status: ('A' for Active; 'I' for Inactive)
REMARK    1  A    between atoms: C_1  and  C_2
REMARK    2  A    between atoms: C_6  and  C_7
REMARK    3  A    between atoms: C_8  and  N_9
REMARK    4  A    between atoms: C_13  and  C_14
REMARK    5  A    between atoms: C_14  and  C_15
REMARK    6  A    between atoms: C_14  and  N_25
REMARK    7  A    between atoms: N_25  and  C_26
REMARK    8  A    between atoms: N_25  and  C_30
REMARK    9  A    between atoms: C_26  and  C_27
REMARK   10  A    between atoms: C_27  and  C_28
REMARK   11  A    between atoms: C_30  and  C_31
REMARK                            x       y       z     vdW  Elec       q    Type
REMARK                         _______ _______ _______ _____ _____    ______ ____
ROOT
ATOM      1  C   UNL     1      -1.977  13.148  20.729  0.00  0.00    +0.000 C 
ENDROOT
BRANCH   1   2
ATOM      2  C   UNL     1      -3.502  13.086  20.950  0.00  0.00    +0.000 A 
ATOM      3  C   UNL     1      -4.366  13.454  19.906  0.00  0.00    +0.000 A 
ATOM      4  C   UNL     1      -5.693  13.700  20.196  0.00  0.00    +0.000 A 
ATOM      5  N   UNL     1      -6.227  13.584  21.427  0.00  0.00    +0.000 NA
ATOM      6  C   UNL     1      -5.443  13.147  22.422  0.00  0.00    +0.000 A 
ATOM      7  C   UNL     1      -6.015  13.011  23.682  0.00  0.00    +0.000 A 
ATOM      8  C   UNL     1      -5.313  12.493  24.771  0.00  0.00    +0.000 A 
ATOM      9  C   UNL     1      -3.994  12.118  24.606  0.00  0.00    +0.000 A 
ATOM     10  C   UNL     1      -3.375  12.336  23.376  0.00  0.00    +0.000 A 
ATOM     11  C   UNL     1      -4.073  12.842  22.246  0.00  0.00    +0.000 A 
ENDBRANCH   1   2
BRANCH   1  16
ATOM     12  N   UNL     1      -1.745  15.751  21.191  0.00  0.00    +0.000 N 
ATOM     13  N   UNL     1      -1.143  16.763  20.514  0.00  0.00    +0.000 NA
ATOM     14  N   UNL     1      -0.665  16.259  19.396  0.00  0.00    +0.000 NA
ATOM     15  N   UNL     1      -0.886  14.925  19.338  0.00  0.00    +0.000 NA
ATOM     16  C   UNL     1      -1.508  14.575  20.457  0.00  0.00    +0.000 A 
BRANCH  12  24
ATOM     17  C   UNL     1      -0.763  15.761  24.138  0.00  0.00    +0.000 C 
ATOM     18  C   UNL     1      -2.185  15.820  23.647  0.00  0.00    +0.000 A 
ATOM     19  C   UNL     1      -3.152  15.833  24.674  0.00  0.00    +0.000 A 
ATOM     20  C   UNL     1      -4.459  16.222  24.423  0.00  0.00    +0.000 A 
ATOM     21  C   UNL     1      -4.804  16.645  23.151  0.00  0.00    +0.000 A 
ATOM     22  C   UNL     1      -3.891  16.578  22.082  0.00  0.00    +0.000 A 
ATOM     23  C   UNL     1      -4.396  17.107  20.759  0.00  0.00    +0.000 C 
ATOM     24  C   UNL     1      -2.585  16.045  22.314  0.00  0.00    +0.000 A 
ENDBRANCH  12  24
ENDBRANCH   1  16
BRANCH   1  25
ATOM     25  N   UNL     1      -1.360  12.176  19.735  0.00  0.00    +0.000 NA
BRANCH  25  26
ATOM     26  C   UNL     1       0.009  11.767  20.191  0.00  0.00    +0.000 C 
BRANCH  26  27
ATOM     27  C   UNL     1       0.124  10.319  20.668  0.00  0.00    +0.000 C 
BRANCH  27  28
ATOM     28  C   UNL     1       0.028  10.185  22.179  0.00  0.00    +0.000 C 
ATOM     29  N   UNL     1      -0.050  10.073  23.433  0.00  0.00    +0.000 NA
ENDBRANCH  27  28
ENDBRANCH  26  27
ENDBRANCH  25  26
BRANCH  25  30
ATOM     30  C   UNL     1      -2.188  10.990  19.412  0.00  0.00    +0.000 C 
BRANCH  30  31
ATOM     31  C   UNL     1      -2.643  10.833  17.974  0.00  0.00    +0.000 A 
ATOM     32  C   UNL     1      -1.933  10.007  17.074  0.00  0.00    +0.000 A 
ATOM     33  C   UNL     1      -2.366   9.816  15.757  0.00  0.00    +0.000 A 
ATOM     34  C   UNL     1      -3.531  10.435  15.315  0.00  0.00    +0.000 A 
ATOM     35  C   UNL     1      -4.251  11.251  16.190  0.00  0.00    +0.000 A 
ATOM     36  C   UNL     1      -3.809  11.448  17.509  0.00  0.00    +0.000 A 
ENDBRANCH  30  31
ENDBRANCH  25  30
ENDBRANCH   1  25
TORSDOF 9
ENDMDL
MODEL 6
REMARK VINA RESULT:      -6.9      1.976      4.365
REMARK  Name = 
REMARK  11 active torsions:
REMARK  status: ('A' for Active; 'I' for Inactive)
REMARK    1  A    between atoms: C_1  and  C_2
REMARK    2  A    between atoms: C_6  and  C_7
REMARK    3  A    between atoms: C_8  and  N_9
REMARK    4  A    between atoms: C_13  and  C_14
REMARK    5  A    between atoms: C_14  and  C_15
REMARK    6  A    between atoms: C_14  and  N_25
REMARK    7  A    between atoms: N_25  and  C_26
REMARK    8  A    between atoms: N_25  and  C_30
REMARK    9  A    between atoms: C_26  and  C_27
REMARK   10  A    between atoms: C_27  and  C_28
REMARK   11  A    between atoms: C_30  and  C_31
REMARK                            x       y       z     vdW  Elec       q    Type
REMARK                         _______ _______ _______ _____ _____    ______ ____
ROOT
ATOM      1  C   UNL     1      -2.276  13.063  21.659  0.00  0.00    +0.000 C 
ENDROOT
BRANCH   1   2
ATOM      2  C   UNL     1      -1.550  11.709  21.803  0.00  0.00    +0.000 A 
ATOM      3  C   UNL     1      -1.391  11.144  23.079  0.00  0.00    +0.000 A 
ATOM      4  C   UNL     1      -0.484  10.117  23.243  0.00  0.00    +0.000 A 
ATOM      5  N   UNL     1       0.251   9.596  22.241  0.00  0.00    +0.000 NA
ATOM      6  C   UNL     1       0.050  10.057  21.000  0.00  0.00    +0.000 A 
ATOM      7  C   UNL     1       0.800   9.494  19.973  0.00  0.00    +0.000 A 
ATOM      8  C   UNL     1       0.619   9.843  18.635  0.00  0.00    +0.000 A 
ATOM      9  C   UNL     1      -0.323  10.800  18.309  0.00  0.00    +0.000 A 
ATOM     10  C   UNL     1      -1.016  11.445  19.332  0.00  0.00    +0.000 A 
ATOM     11  C   UNL     1      -0.865  11.093  20.700  0.00  0.00    +0.000 A 
ENDBRANCH   1   2
BRANCH   1  16
ATOM     12  N   UNL     1      -1.186  15.469  21.913  0.00  0.00    +0.000 N 
ATOM     13  N   UNL     1      -0.483  16.068  22.908  0.00  0.00    +0.000 NA
ATOM     14  N   UNL     1      -0.311  15.176  23.861  0.00  0.00    +0.000 NA
ATOM     15  N   UNL     1      -0.930  14.014  23.547  0.00  0.00    +0.000 NA
ATOM     16  C   UNL     1      -1.521  14.182  22.371  0.00  0.00    +0.000 A 
BRANCH  12  24
ATOM     17  C   UNL     1       0.532  14.708  19.438  0.00  0.00    +0.000 C 
ATOM     18  C   UNL     1      -0.360  15.910  19.599  0.00  0.00    +0.000 A 
ATOM     19  C   UNL     1      -0.350  16.789  18.496  0.00  0.00    +0.000 A 
ATOM     20  C   UNL     1      -1.344  17.742  18.329  0.00  0.00    +0.000 A 
ATOM     21  C   UNL     1      -2.385  17.796  19.241  0.00  0.00    +0.000 A 
ATOM     22  C   UNL     1      -2.395  16.988  20.392  0.00  0.00    +0.000 A 
ATOM     23  C   UNL     1      -3.612  17.131  21.278  0.00  0.00    +0.000 C 
ATOM     24  C   UNL     1      -1.297  16.106  20.634  0.00  0.00    +0.000 A 
ENDBRANCH  12  24
ENDBRANCH   1  16
BRANCH   1  25
ATOM     25  N   UNL     1      -3.760  13.114  21.990  0.00  0.00    +0.000 NA
BRANCH  25  26
ATOM     26  C   UNL     1      -3.989  13.943  23.218  0.00  0.00    +0.000 C 
BRANCH  26  27
ATOM     27  C   UNL     1      -5.457  14.218  23.547  0.00  0.00    +0.000 C 
BRANCH  27  28
ATOM     28  C   UNL     1      -6.223  12.962  23.929  0.00  0.00    +0.000 C 
ATOM     29  N   UNL     1      -6.857  11.919  24.245  0.00  0.00    +0.000 NA
ENDBRANCH  27  28
ENDBRANCH  26  27
ENDBRANCH  25  26
BRANCH  25  30
ATOM     30  C   UNL     1      -4.641  13.554  20.882  0.00  0.00    +0.000 C 
BRANCH  30  31
ATOM     31  C   UNL     1      -5.343  12.473  20.083  0.00  0.00    +0.000 A 
ATOM     32  C   UNL     1      -6.569  11.926  20.523  0.00  0.00    +0.000 A 
ATOM     33  C   UNL     1      -7.252  10.962  19.774  0.00  0.00    +0.000 A 
ATOM     34  C   UNL     1      -6.730  10.532  18.558  0.00  0.00    +0.000 A 
ATOM     35  C   UNL     1      -5.523  11.064  18.102  0.00  0.00    +0.000 A 
ATOM     36  C   UNL     1      -4.835  12.026  18.860  0.00  0.00    +0.000 A 
ENDBRANCH  30  31
ENDBRANCH  25  30
ENDBRANCH   1  25
TORSDOF 9
ENDMDL
MODEL 7
REMARK VINA RESULT:      -6.9      2.209      5.517
REMARK  Name = 
REMARK  11 active torsions:
REMARK  status: ('A' for Active; 'I' for Inactive)
REMARK    1  A    between atoms: C_1  and  C_2
REMARK    2  A    between atoms: C_6  and  C_7
REMARK    3  A    between atoms: C_8  and  N_9
REMARK    4  A    between atoms: C_13  and  C_14
REMARK    5  A    between atoms: C_14  and  C_15
REMARK    6  A    between atoms: C_14  and  N_25
REMARK    7  A    between atoms: N_25  and  C_26
REMARK    8  A    between atoms: N_25  and  C_30
REMARK    9  A    between atoms: C_26  and  C_27
REMARK   10  A    between atoms: C_27  and  C_28
REMARK   11  A    between atoms: C_30  and  C_31
REMARK                            x       y       z     vdW  Elec       q    Type
REMARK                         _______ _______ _______ _____ _____    ______ ____
ROOT
ATOM      1  C   UNL     1      -0.441  13.347  19.977  0.00  0.00    +0.000 C 
ENDROOT
BRANCH   1   2
ATOM      2  C   UNL     1       0.869  14.024  19.522  0.00  0.00    +0.000 A 
ATOM      3  C   UNL     1       2.101  13.456  19.884  0.00  0.00    +0.000 A 
ATOM      4  C   UNL     1       3.247  14.215  19.755  0.00  0.00    +0.000 A 
ATOM      5  N   UNL     1       3.265  15.473  19.275  0.00  0.00    +0.000 NA
ATOM      6  C   UNL     1       2.114  16.003  18.839  0.00  0.00    +0.000 A 
ATOM      7  C   UNL     1       2.154  17.295  18.325  0.00  0.00    +0.000 A 
ATOM      8  C   UNL     1       1.032  17.916  17.774  0.00  0.00    +0.000 A 
ATOM      9  C   UNL     1      -0.172  17.238  17.754  0.00  0.00    +0.000 A 
ATOM     10  C   UNL     1      -0.253  15.982  18.351  0.00  0.00    +0.000 A 
ATOM     11  C   UNL     1       0.878  15.319  18.899  0.00  0.00    +0.000 A 
ENDBRANCH   1   2
BRANCH   1  16
ATOM     12  N   UNL     1      -0.871  14.570  22.292  0.00  0.00    +0.000 N 
ATOM     13  N   UNL     1      -0.919  14.133  23.577  0.00  0.00    +0.000 NA
ATOM     14  N   UNL     1      -0.619  12.851  23.569  0.00  0.00    +0.000 NA
ATOM     15  N   UNL     1      -0.426  12.412  22.303  0.00  0.00    +0.000 NA
ATOM     16  C   UNL     1      -0.625  13.442  21.489  0.00  0.00    +0.000 A 
BRANCH  12  24
ATOM     17  C   UNL     1      -3.469  16.262  22.083  0.00  0.00    +0.000 C 
ATOM     18  C   UNL     1      -2.073  16.675  21.697  0.00  0.00    +0.000 A 
ATOM     19  C   UNL     1      -1.987  17.968  21.139  0.00  0.00    +0.000 A 
ATOM     20  C   UNL     1      -0.771  18.628  21.046  0.00  0.00    +0.000 A 
ATOM     21  C   UNL     1       0.366  18.022  21.552  0.00  0.00    +0.000 A 
ATOM     22  C   UNL     1       0.336  16.707  22.051  0.00  0.00    +0.000 A 
ATOM     23  C   UNL     1       1.645  16.189  22.603  0.00  0.00    +0.000 C 
ATOM     24  C   UNL     1      -0.892  15.976  22.016  0.00  0.00    +0.000 A 
ENDBRANCH  12  24
ENDBRANCH   1  16
BRANCH   1  25
ATOM     25  N   UNL     1      -0.721  11.935  19.485  0.00  0.00    +0.000 NA
BRANCH  25  26
ATOM     26  C   UNL     1      -2.115  11.845  18.938  0.00  0.00    +0.000 C 
BRANCH  26  27
ATOM     27  C   UNL     1      -2.214  11.309  17.509  0.00  0.00    +0.000 C 
BRANCH  27  28
ATOM     28  C   UNL     1      -3.641  11.285  16.984  0.00  0.00    +0.000 C 
ATOM     29  N   UNL     1      -4.824  11.267  16.549  0.00  0.00    +0.000 NA
ENDBRANCH  27  28
ENDBRANCH  26  27
ENDBRANCH  25  26
BRANCH  25  30
ATOM     30  C   UNL     1       0.263  11.393  18.519  0.00  0.00    +0.000 C 
BRANCH  30  31
ATOM     31  C   UNL     1       0.946  10.090  18.883  0.00  0.00    +0.000 A 
ATOM     32  C   UNL     1       0.836   9.551  20.185  0.00  0.00    +0.000 A 
ATOM     33  C   UNL     1       1.422   8.326  20.523  0.00  0.00    +0.000 A 
ATOM     34  C   UNL     1       2.119   7.603  19.561  0.00  0.00    +0.000 A 
ATOM     35  C   UNL     1       2.235   8.114  18.267  0.00  0.00    +0.000 A 
ATOM     36  C   UNL     1       1.653   9.349  17.932  0.00  0.00    +0.000 A 
ENDBRANCH  30  31
ENDBRANCH  25  30
ENDBRANCH   1  25
TORSDOF 9
ENDMDL
MODEL 8
REMARK VINA RESULT:      -6.8      2.008      4.483
REMARK  Name = 
REMARK  11 active torsions:
REMARK  status: ('A' for Active; 'I' for Inactive)
REMARK    1  A    between atoms: C_1  and  C_2
REMARK    2  A    between atoms: C_6  and  C_7
REMARK    3  A    between atoms: C_8  and  N_9
REMARK    4  A    between atoms: C_13  and  C_14
REMARK    5  A    between atoms: C_14  and  C_15
REMARK    6  A    between atoms: C_14  and  N_25
REMARK    7  A    between atoms: N_25  and  C_26
REMARK    8  A    between atoms: N_25  and  C_30
REMARK    9  A    between atoms: C_26  and  C_27
REMARK   10  A    between atoms: C_27  and  C_28
REMARK   11  A    between atoms: C_30  and  C_31
REMARK                            x       y       z     vdW  Elec       q    Type
REMARK                         _______ _______ _______ _____ _____    ______ ____
ROOT
ATOM      1  C   UNL     1      -0.013  12.534  19.647  0.00  0.00    +0.000 C 
ENDROOT
BRANCH   1   2
ATOM      2  C   UNL     1       1.118  13.581  19.617  0.00  0.00    +0.000 A 
ATOM      3  C   UNL     1       2.394  13.231  20.086  0.00  0.00    +0.000 A 
ATOM      4  C   UNL     1       3.304  14.235  20.354  0.00  0.00    +0.000 A 
ATOM      5  N   UNL     1       3.053  15.545  20.167  0.00  0.00    +0.000 NA
ATOM      6  C   UNL     1       1.875  15.897  19.635  0.00  0.00    +0.000 A 
ATOM      7  C   UNL     1       1.640  17.252  19.429  0.00  0.00    +0.000 A 
ATOM      8  C   UNL     1       0.481  17.725  18.812  0.00  0.00    +0.000 A 
ATOM      9  C   UNL     1      -0.484  16.823  18.408  0.00  0.00    +0.000 A 
ATOM     10  C   UNL     1      -0.310  15.471  18.693  0.00  0.00    +0.000 A 
ATOM     11  C   UNL     1       0.869  14.961  19.301  0.00  0.00    +0.000 A 
ENDBRANCH   1   2
BRANCH   1  16
ATOM     12  N   UNL     1      -1.309  12.736  21.953  0.00  0.00    +0.000 N 
ATOM     13  N   UNL     1      -1.240  12.045  23.119  0.00  0.00    +0.000 NA
ATOM     14  N   UNL     1      -0.268  11.166  22.999  0.00  0.00    +0.000 NA
ATOM     15  N   UNL     1       0.276  11.219  21.760  0.00  0.00    +0.000 NA
ATOM     16  C   UNL     1      -0.382  12.146  21.076  0.00  0.00    +0.000 A 
BRANCH  12  24
ATOM     17  C   UNL     1      -4.399  12.774  21.627  0.00  0.00    +0.000 C 
ATOM     18  C   UNL     1      -3.451  13.937  21.502  0.00  0.00    +0.000 A 
ATOM     19  C   UNL     1      -4.072  15.154  21.150  0.00  0.00    +0.000 A 
ATOM     20  C   UNL     1      -3.421  16.366  21.323  0.00  0.00    +0.000 A 
ATOM     21  C   UNL     1      -2.159  16.380  21.892  0.00  0.00    +0.000 A 
ATOM     22  C   UNL     1      -1.476  15.186  22.189  0.00  0.00    +0.000 A 
ATOM     23  C   UNL     1      -0.121  15.354  22.839  0.00  0.00    +0.000 C 
ATOM     24  C   UNL     1      -2.093  13.934  21.879  0.00  0.00    +0.000 A 
ENDBRANCH  12  24
ENDBRANCH   1  16
BRANCH   1  25
ATOM     25  N   UNL     1       0.136  11.298  18.772  0.00  0.00    +0.000 NA
BRANCH  25  26
ATOM     26  C   UNL     1       1.425  10.597  19.081  0.00  0.00    +0.000 C 
BRANCH  26  27
ATOM     27  C   UNL     1       1.324   9.075  19.183  0.00  0.00    +0.000 C 
BRANCH  27  28
ATOM     28  C   UNL     1       2.359   8.355  18.332  0.00  0.00    +0.000 C 
ATOM     29  N   UNL     1       3.216   7.757  17.628  0.00  0.00    +0.000 NA
ENDBRANCH  27  28
ENDBRANCH  26  27
ENDBRANCH  25  26
BRANCH  25  30
ATOM     30  C   UNL     1      -1.004  10.352  18.811  0.00  0.00    +0.000 C 
BRANCH  30  31
ATOM     31  C   UNL     1      -2.171  10.634  17.885  0.00  0.00    +0.000 A 
ATOM     32  C   UNL     1      -2.219  10.074  16.588  0.00  0.00    +0.000 A 
ATOM     33  C   UNL     1      -3.311  10.287  15.738  0.00  0.00    +0.000 A 
ATOM     34  C   UNL     1      -4.388  11.052  16.174  0.00  0.00    +0.000 A 
ATOM     35  C   UNL     1      -4.363  11.610  17.454  0.00  0.00    +0.000 A 
ATOM     36  C   UNL     1      -3.262  11.402  18.301  0.00  0.00    +0.000 A 
ENDBRANCH  30  31
ENDBRANCH  25  30
ENDBRANCH   1  25
TORSDOF 9
ENDMDL
MODEL 9
REMARK VINA RESULT:      -6.8      1.424      4.381
REMARK  Name = 
REMARK  11 active torsions:
REMARK  status: ('A' for Active; 'I' for Inactive)
REMARK    1  A    between atoms: C_1  and  C_2
REMARK    2  A    between atoms: C_6  and  C_7
REMARK    3  A    between atoms: C_8  and  N_9
REMARK    4  A    between atoms: C_13  and  C_14
REMARK    5  A    between atoms: C_14  and  C_15
REMARK    6  A    between atoms: C_14  and  N_25
REMARK    7  A    between atoms: N_25  and  C_26
REMARK    8  A    between atoms: N_25  and  C_30
REMARK    9  A    between atoms: C_26  and  C_27
REMARK   10  A    between atoms: C_27  and  C_28
REMARK   11  A    between atoms: C_30  and  C_31
REMARK                            x       y       z     vdW  Elec       q    Type
REMARK                         _______ _______ _______ _____ _____    ______ ____
ROOT
ATOM      1  C   UNL     1      -0.867  13.758  20.118  0.00  0.00    +0.000 C 
ENDROOT
BRANCH   1   2
ATOM      2  C   UNL     1       0.437  14.126  19.381  0.00  0.00    +0.000 A 
ATOM      3  C   UNL     1       1.542  13.263  19.462  0.00  0.00    +0.000 A 
ATOM      4  C   UNL     1       2.783  13.732  19.079  0.00  0.00    +0.000 A 
ATOM      5  N   UNL     1       3.002  14.972  18.602  0.00  0.00    +0.000 NA
ATOM      6  C   UNL     1       1.950  15.783  18.431  0.00  0.00    +0.000 A 
ATOM      7  C   UNL     1       2.190  17.053  17.917  0.00  0.00    +0.000 A 
ATOM      8  C   UNL     1       1.162  17.950  17.627  0.00  0.00    +0.000 A 
ATOM      9  C   UNL     1      -0.145  17.581  17.877  0.00  0.00    +0.000 A 
ATOM     10  C   UNL     1      -0.399  16.351  18.482  0.00  0.00    +0.000 A 
ATOM     11  C   UNL     1       0.627  15.411  18.767  0.00  0.00    +0.000 A 
ENDBRANCH   1   2
BRANCH   1  16
ATOM     12  N   UNL     1      -1.942  14.492  22.431  0.00  0.00    +0.000 N 
ATOM     13  N   UNL     1      -1.418  14.988  23.580  0.00  0.00    +0.000 NA
ATOM     14  N   UNL     1      -0.127  15.159  23.384  0.00  0.00    +0.000 NA
ATOM     15  N   UNL     1       0.230  14.737  22.148  0.00  0.00    +0.000 NA
ATOM     16  C   UNL     1      -0.863  14.273  21.555  0.00  0.00    +0.000 A 
BRANCH  12  24
ATOM     17  C   UNL     1      -3.833  12.567  23.971  0.00  0.00    +0.000 C 
ATOM     18  C   UNL     1      -4.171  13.426  22.782  0.00  0.00    +0.000 A 
ATOM     19  C   UNL     1      -5.495  13.276  22.318  0.00  0.00    +0.000 A 
ATOM     20  C   UNL     1      -6.069  14.213  21.472  0.00  0.00    +0.000 A 
ATOM     21  C   UNL     1      -5.342  15.336  21.117  0.00  0.00    +0.000 A 
ATOM     22  C   UNL     1      -3.996  15.489  21.498  0.00  0.00    +0.000 A 
ATOM     23  C   UNL     1      -3.339  16.781  21.068  0.00  0.00    +0.000 C 
ATOM     24  C   UNL     1      -3.363  14.453  22.253  0.00  0.00    +0.000 A 
ENDBRANCH  12  24
ENDBRANCH   1  16
BRANCH   1  25
ATOM     25  N   UNL     1      -1.334  12.312  20.062  0.00  0.00    +0.000 NA
BRANCH  25  26
ATOM     26  C   UNL     1      -1.136  11.651  21.393  0.00  0.00    +0.000 C 
BRANCH  26  27
ATOM     27  C   UNL     1      -0.323  10.357  21.358  0.00  0.00    +0.000 C 
BRANCH  27  28
ATOM     28  C   UNL     1       0.079   9.872  22.741  0.00  0.00    +0.000 C 
ATOM     29  N   UNL     1       0.413   9.470  23.889  0.00  0.00    +0.000 NA
ENDBRANCH  27  28
ENDBRANCH  26  27
ENDBRANCH  25  26
BRANCH  25  30
ATOM     30  C   UNL     1      -2.717  12.111  19.571  0.00  0.00    +0.000 C 
BRANCH  30  31
ATOM     31  C   UNL     1      -2.885  11.427  18.228  0.00  0.00    +0.000 A 
ATOM     32  C   UNL     1      -1.936  10.485  17.770  0.00  0.00    +0.000 A 
ATOM     33  C   UNL     1      -2.100   9.811  16.555  0.00  0.00    +0.000 A 
ATOM     34  C   UNL     1      -3.227  10.053  15.776  0.00  0.00    +0.000 A 
ATOM     35  C   UNL     1      -4.179  10.976  16.212  0.00  0.00    +0.000 A 
ATOM     36  C   UNL     1      -4.008  11.657  17.429  0.00  0.00    +0.000 A 
ENDBRANCH  30  31
ENDBRANCH  25  30
ENDBRANCH   1  25
TORSDOF 9
ENDMDL
