MODEL 1
REMARK VINA RESULT:      -8.1      0.000      0.000
REMARK  Name = 
REMARK  5 active torsions:
REMARK  status: ('A' for Active; 'I' for Inactive)
REMARK    1  A    between atoms: C_4  and  C_5
REMARK    2  A    between atoms: C_5  and  C_6
REMARK    3  A    between atoms: C_16  and  O_17
REMARK    4  A    between atoms: N_20  and  C_21
REMARK    5  A    between atoms: C_21  and  C_22
REMARK                            x       y       z     vdW  Elec       q    Type
REMARK                         _______ _______ _______ _____ _____    ______ ____
ROOT
ATOM      1  O   UNL     1       4.847   2.301  16.791  0.00  0.00    +0.000 OA
ATOM      2  C   UNL     1       4.557   3.495  16.690  0.00  0.00    +0.000 C 
ATOM      3  N   UNL     1       4.715   4.195  15.514  0.00  0.00    +0.000 N 
ATOM      4  C   UNL     1       6.086   4.216  15.002  0.00  0.00    +0.000 C 
ATOM      5  C   UNL     1       6.941   5.257  15.801  0.00  0.00    +0.000 C 
ATOM      6  O   UNL     1       7.880   5.847  15.235  0.00  0.00    +0.000 OA
ATOM      7  N   UNL     1       6.721   5.468  17.163  0.00  0.00    +0.000 N 
ATOM      8  C   UNL     1       7.508   6.491  17.833  0.00  0.00    +0.000 C 
ATOM      9  C   UNL     1       7.498   6.126  19.317  0.00  0.00    +0.000 C 
ATOM     10  C   UNL     1       6.259   5.258  19.518  0.00  0.00    +0.000 C 
ATOM     11  C   UNL     1       5.989   4.628  18.141  0.00  0.00    +0.000 C 
ATOM     12  N   UNL     1       4.610   4.356  17.761  0.00  0.00    +0.000 N 
ATOM     13  H   UNL     1       4.273   5.104  15.510  0.00  0.00    +0.000 HD
ENDROOT
BRANCH   9  14
ATOM     14  O   UNL     1       8.673   5.396  19.665  0.00  0.00    +0.000 OA
ATOM     15  H   UNL     1       9.150   5.883  20.362  0.00  0.00    +0.000 HD
ENDBRANCH   9  14
BRANCH   4  16
ATOM     16  C   UNL     1       6.115   4.603  13.501  0.00  0.00    +0.000 C 
BRANCH  16  17
ATOM     17  C   UNL     1       6.169   3.499  12.463  0.00  0.00    +0.000 A 
ATOM     18  C   UNL     1       5.032   2.834  11.987  0.00  0.00    +0.000 A 
ATOM     19  C   UNL     1       5.142   1.777  11.083  0.00  0.00    +0.000 A 
ATOM     20  C   UNL     1       6.395   1.376  10.627  0.00  0.00    +0.000 A 
ATOM     21  C   UNL     1       7.535   2.042  11.064  0.00  0.00    +0.000 A 
ATOM     22  C   UNL     1       7.424   3.097  11.977  0.00  0.00    +0.000 A 
ENDBRANCH  16  17
ENDBRANCH   4  16
BRANCH  12  23
ATOM     23  C   UNL     1       3.430   5.136  18.143  0.00  0.00    +0.000 C 
BRANCH  23  24
ATOM     24  C   UNL     1       2.501   4.443  19.130  0.00  0.00    +0.000 A 
ATOM     25  C   UNL     1       2.737   4.597  20.508  0.00  0.00    +0.000 A 
ATOM     26  C   UNL     1       2.006   3.866  21.452  0.00  0.00    +0.000 A 
ATOM     27  C   UNL     1       0.960   3.046  21.042  0.00  0.00    +0.000 A 
ATOM     28  C   UNL     1       0.615   2.998  19.697  0.00  0.00    +0.000 A 
ATOM     29  C   UNL     1       1.381   3.689  18.744  0.00  0.00    +0.000 A 
ENDBRANCH  23  24
ENDBRANCH  12  23
TORSDOF 5
ENDMDL
MODEL 2
REMARK VINA RESULT:      -7.7      0.500      1.052
REMARK  Name = 
REMARK  5 active torsions:
REMARK  status: ('A' for Active; 'I' for Inactive)
REMARK    1  A    between atoms: C_4  and  C_5
REMARK    2  A    between atoms: C_5  and  C_6
REMARK    3  A    between atoms: C_16  and  O_17
REMARK    4  A    between atoms: N_20  and  C_21
REMARK    5  A    between atoms: C_21  and  C_22
REMARK                            x       y       z     vdW  Elec       q    Type
REMARK                         _______ _______ _______ _____ _____    ______ ____
ROOT
ATOM      1  O   UNL     1       4.933   2.252  16.832  0.00  0.00    +0.000 OA
ATOM      2  C   UNL     1       4.640   3.441  16.702  0.00  0.00    +0.000 C 
ATOM      3  N   UNL     1       4.829   4.122  15.520  0.00  0.00    +0.000 N 
ATOM      4  C   UNL     1       6.215   4.144  15.049  0.00  0.00    +0.000 C 
ATOM      5  C   UNL     1       7.040   5.203  15.856  0.00  0.00    +0.000 C 
ATOM      6  O   UNL     1       7.992   5.790  15.308  0.00  0.00    +0.000 OA
ATOM      7  N   UNL     1       6.777   5.436  17.207  0.00  0.00    +0.000 N 
ATOM      8  C   UNL     1       7.538   6.475  17.883  0.00  0.00    +0.000 C 
ATOM      9  C   UNL     1       7.485   6.134  19.371  0.00  0.00    +0.000 C 
ATOM     10  C   UNL     1       6.245   5.263  19.549  0.00  0.00    +0.000 C 
ATOM     11  C   UNL     1       6.021   4.608  18.177  0.00  0.00    +0.000 C 
ATOM     12  N   UNL     1       4.656   4.321  17.759  0.00  0.00    +0.000 N 
ATOM     13  H   UNL     1       4.383   5.029  15.486  0.00  0.00    +0.000 HD
ENDROOT
BRANCH   9  14
ATOM     14  O   UNL     1       8.653   5.419  19.767  0.00  0.00    +0.000 OA
ATOM     15  H   UNL     1       8.403   4.499  19.972  0.00  0.00    +0.000 HD
ENDBRANCH   9  14
BRANCH   4  16
ATOM     16  C   UNL     1       6.288   4.505  13.543  0.00  0.00    +0.000 C 
BRANCH  16  17
ATOM     17  C   UNL     1       5.718   3.532  12.529  0.00  0.00    +0.000 A 
ATOM     18  C   UNL     1       6.408   2.401  12.075  0.00  0.00    +0.000 A 
ATOM     19  C   UNL     1       5.868   1.576  11.089  0.00  0.00    +0.000 A 
ATOM     20  C   UNL     1       4.617   1.862  10.549  0.00  0.00    +0.000 A 
ATOM     21  C   UNL     1       3.901   2.963  11.006  0.00  0.00    +0.000 A 
ATOM     22  C   UNL     1       4.448   3.795  11.990  0.00  0.00    +0.000 A 
ENDBRANCH  16  17
ENDBRANCH   4  16
BRANCH  12  23
ATOM     23  C   UNL     1       3.460   5.100  18.092  0.00  0.00    +0.000 C 
BRANCH  23  24
ATOM     24  C   UNL     1       2.508   4.421  19.068  0.00  0.00    +0.000 A 
ATOM     25  C   UNL     1       2.673   4.649  20.446  0.00  0.00    +0.000 A 
ATOM     26  C   UNL     1       1.923   3.937  21.390  0.00  0.00    +0.000 A 
ATOM     27  C   UNL     1       0.927   3.061  20.973  0.00  0.00    +0.000 A 
ATOM     28  C   UNL     1       0.648   2.936  19.617  0.00  0.00    +0.000 A 
ATOM     29  C   UNL     1       1.435   3.609  18.668  0.00  0.00    +0.000 A 
ENDBRANCH  23  24
ENDBRANCH  12  23
TORSDOF 5
ENDMDL
MODEL 3
REMARK VINA RESULT:      -6.9      3.610      6.233
REMARK  Name = 
REMARK  5 active torsions:
REMARK  status: ('A' for Active; 'I' for Inactive)
REMARK    1  A    between atoms: C_4  and  C_5
REMARK    2  A    between atoms: C_5  and  C_6
REMARK    3  A    between atoms: C_16  and  O_17
REMARK    4  A    between atoms: N_20  and  C_21
REMARK    5  A    between atoms: C_21  and  C_22
REMARK                            x       y       z     vdW  Elec       q    Type
REMARK                         _______ _______ _______ _____ _____    ______ ____
ROOT
ATOM      1  O   UNL     1       1.730   7.257  17.264  0.00  0.00    +0.000 OA
ATOM      2  C   UNL     1       2.484   7.016  18.208  0.00  0.00    +0.000 C 
ATOM      3  N   UNL     1       3.799   6.647  18.027  0.00  0.00    +0.000 N 
ATOM      4  C   UNL     1       3.983   5.432  17.231  0.00  0.00    +0.000 C 
ATOM      5  C   UNL     1       3.691   4.167  18.107  0.00  0.00    +0.000 C 
ATOM      6  O   UNL     1       4.293   3.103  17.873  0.00  0.00    +0.000 OA
ATOM      7  N   UNL     1       2.701   4.192  19.092  0.00  0.00    +0.000 N 
ATOM      8  C   UNL     1       2.521   3.005  19.911  0.00  0.00    +0.000 C 
ATOM      9  C   UNL     1       1.094   3.078  20.452  0.00  0.00    +0.000 C 
ATOM     10  C   UNL     1       0.710   4.554  20.398  0.00  0.00    +0.000 C 
ATOM     11  C   UNL     1       1.587   5.150  19.285  0.00  0.00    +0.000 C 
ATOM     12  N   UNL     1       2.023   6.534  19.411  0.00  0.00    +0.000 N 
ATOM     13  H   UNL     1       4.354   6.657  18.872  0.00  0.00    +0.000 HD
ENDROOT
BRANCH   9  14
ATOM     14  O   UNL     1       0.208   2.307  19.643  0.00  0.00    +0.000 OA
ATOM     15  H   UNL     1       0.734   1.778  19.016  0.00  0.00    +0.000 HD
ENDBRANCH   9  14
BRANCH   4  16
ATOM     16  C   UNL     1       5.432   5.333  16.689  0.00  0.00    +0.000 C 
BRANCH  16  17
ATOM     17  C   UNL     1       6.535   6.080  17.412  0.00  0.00    +0.000 A 
ATOM     18  C   UNL     1       7.210   5.569  18.527  0.00  0.00    +0.000 A 
ATOM     19  C   UNL     1       8.170   6.325  19.198  0.00  0.00    +0.000 A 
ATOM     20  C   UNL     1       8.482   7.607  18.755  0.00  0.00    +0.000 A 
ATOM     21  C   UNL     1       7.847   8.124  17.630  0.00  0.00    +0.000 A 
ATOM     22  C   UNL     1       6.878   7.367  16.963  0.00  0.00    +0.000 A 
ENDBRANCH  16  17
ENDBRANCH   4  16
BRANCH  12  23
ATOM     23  C   UNL     1       2.325   7.243  20.657  0.00  0.00    +0.000 C 
BRANCH  23  24
ATOM     24  C   UNL     1       1.409   8.421  20.959  0.00  0.00    +0.000 A 
ATOM     25  C   UNL     1       1.058   8.684  22.295  0.00  0.00    +0.000 A 
ATOM     26  C   UNL     1       0.105   9.659  22.614  0.00  0.00    +0.000 A 
ATOM     27  C   UNL     1      -0.438  10.457  21.612  0.00  0.00    +0.000 A 
ATOM     28  C   UNL     1       0.010  10.313  20.304  0.00  0.00    +0.000 A 
ATOM     29  C   UNL     1       0.926   9.301  19.977  0.00  0.00    +0.000 A 
ENDBRANCH  23  24
ENDBRANCH  12  23
TORSDOF 5
ENDMDL
MODEL 4
REMARK VINA RESULT:      -6.7      8.226      9.794
REMARK  Name = 
REMARK  5 active torsions:
REMARK  status: ('A' for Active; 'I' for Inactive)
REMARK    1  A    between atoms: C_4  and  C_5
REMARK    2  A    between atoms: C_5  and  C_6
REMARK    3  A    between atoms: C_16  and  O_17
REMARK    4  A    between atoms: N_20  and  C_21
REMARK    5  A    between atoms: C_21  and  C_22
REMARK                            x       y       z     vdW  Elec       q    Type
REMARK                         _______ _______ _______ _____ _____    ______ ____
ROOT
ATOM      1  O   UNL     1      -0.940   9.829  20.394  0.00  0.00    +0.000 OA
ATOM      2  C   UNL     1      -0.979  10.315  19.262  0.00  0.00    +0.000 C 
ATOM      3  N   UNL     1      -0.110   9.931  18.264  0.00  0.00    +0.000 N 
ATOM      4  C   UNL     1       1.305  10.129  18.583  0.00  0.00    +0.000 C 
ATOM      5  C   UNL     1       1.687  11.639  18.412  0.00  0.00    +0.000 C 
ATOM      6  O   UNL     1       2.845  11.946  18.071  0.00  0.00    +0.000 OA
ATOM      7  N   UNL     1       0.772  12.648  18.719  0.00  0.00    +0.000 N 
ATOM      8  C   UNL     1       1.168  14.026  18.480  0.00  0.00    +0.000 C 
ATOM      9  C   UNL     1       0.290  14.881  19.393  0.00  0.00    +0.000 C 
ATOM     10  C   UNL     1      -0.944  14.032  19.686  0.00  0.00    +0.000 C 
ATOM     11  C   UNL     1      -0.474  12.579  19.518  0.00  0.00    +0.000 C 
ATOM     12  N   UNL     1      -1.428  11.593  19.027  0.00  0.00    +0.000 N 
ATOM     13  H   UNL     1      -0.361  10.264  17.343  0.00  0.00    +0.000 HD
ENDROOT
BRANCH   9  14
ATOM     14  O   UNL     1       0.974  15.193  20.604  0.00  0.00    +0.000 OA
ATOM     15  H   UNL     1       0.357  15.086  21.350  0.00  0.00    +0.000 HD
ENDBRANCH   9  14
BRANCH   4  16
ATOM     16  C   UNL     1       2.212   9.282  17.654  0.00  0.00    +0.000 C 
BRANCH  16  17
ATOM     17  C   UNL     1       2.743   7.956  18.162  0.00  0.00    +0.000 A 
ATOM     18  C   UNL     1       3.717   7.208  17.489  0.00  0.00    +0.000 A 
ATOM     19  C   UNL     1       4.122   5.960  17.962  0.00  0.00    +0.000 A 
ATOM     20  C   UNL     1       3.566   5.444  19.130  0.00  0.00    +0.000 A 
ATOM     21  C   UNL     1       2.619   6.183  19.831  0.00  0.00    +0.000 A 
ATOM     22  C   UNL     1       2.209   7.431  19.350  0.00  0.00    +0.000 A 
ENDBRANCH  16  17
ENDBRANCH   4  16
BRANCH  12  23
ATOM     23  C   UNL     1      -2.518  11.832  18.077  0.00  0.00    +0.000 C 
BRANCH  23  24
ATOM     24  C   UNL     1      -3.915  11.740  18.673  0.00  0.00    +0.000 A 
ATOM     25  C   UNL     1      -4.872  10.926  18.040  0.00  0.00    +0.000 A 
ATOM     26  C   UNL     1      -6.207  10.921  18.460  0.00  0.00    +0.000 A 
ATOM     27  C   UNL     1      -6.590  11.651  19.580  0.00  0.00    +0.000 A 
ATOM     28  C   UNL     1      -5.628  12.341  20.308  0.00  0.00    +0.000 A 
ATOM     29  C   UNL     1      -4.299  12.390  19.858  0.00  0.00    +0.000 A 
ENDBRANCH  23  24
ENDBRANCH  12  23
TORSDOF 5
ENDMDL
MODEL 5
REMARK VINA RESULT:      -6.7      8.178     10.610
REMARK  Name = 
REMARK  5 active torsions:
REMARK  status: ('A' for Active; 'I' for Inactive)
REMARK    1  A    between atoms: C_4  and  C_5
REMARK    2  A    between atoms: C_5  and  C_6
REMARK    3  A    between atoms: C_16  and  O_17
REMARK    4  A    between atoms: N_20  and  C_21
REMARK    5  A    between atoms: C_21  and  C_22
REMARK                            x       y       z     vdW  Elec       q    Type
REMARK                         _______ _______ _______ _____ _____    ______ ____
ROOT
ATOM      1  O   UNL     1      -1.734   9.953  18.519  0.00  0.00    +0.000 OA
ATOM      2  C   UNL     1      -0.928  10.783  18.943  0.00  0.00    +0.000 C 
ATOM      3  N   UNL     1       0.277  10.420  19.504  0.00  0.00    +0.000 N 
ATOM      4  C   UNL     1       0.162   9.549  20.675  0.00  0.00    +0.000 C 
ATOM      5  C   UNL     1      -0.235  10.392  21.934  0.00  0.00    +0.000 C 
ATOM      6  O   UNL     1       0.150  10.032  23.063  0.00  0.00    +0.000 OA
ATOM      7  N   UNL     1      -1.086  11.493  21.819  0.00  0.00    +0.000 N 
ATOM      8  C   UNL     1      -1.367  12.269  23.016  0.00  0.00    +0.000 C 
ATOM      9  C   UNL     1      -2.689  12.987  22.752  0.00  0.00    +0.000 C 
ATOM     10  C   UNL     1      -2.824  13.054  21.233  0.00  0.00    +0.000 C 
ATOM     11  C   UNL     1      -1.994  11.871  20.710  0.00  0.00    +0.000 C 
ATOM     12  N   UNL     1      -1.321  12.009  19.426  0.00  0.00    +0.000 N 
ATOM     13  H   UNL     1       0.920  11.189  19.641  0.00  0.00    +0.000 HD
ENDROOT
BRANCH   9  14
ATOM     14  O   UNL     1      -3.779  12.259  23.313  0.00  0.00    +0.000 OA
ATOM     15  H   UNL     1      -3.430  11.474  23.772  0.00  0.00    +0.000 HD
ENDBRANCH   9  14
BRANCH   4  16
ATOM     16  C   UNL     1       1.501   8.826  20.968  0.00  0.00    +0.000 C 
BRANCH  16  17
ATOM     17  C   UNL     1       1.854   7.588  20.166  0.00  0.00    +0.000 A 
ATOM     18  C   UNL     1       2.339   7.634  18.853  0.00  0.00    +0.000 A 
ATOM     19  C   UNL     1       2.583   6.464  18.134  0.00  0.00    +0.000 A 
ATOM     20  C   UNL     1       2.357   5.223  18.724  0.00  0.00    +0.000 A 
ATOM     21  C   UNL     1       1.905   5.154  20.038  0.00  0.00    +0.000 A 
ATOM     22  C   UNL     1       1.653   6.329  20.755  0.00  0.00    +0.000 A 
ENDBRANCH  16  17
ENDBRANCH   4  16
BRANCH  12  23
ATOM     23  C   UNL     1      -0.763  13.241  18.862  0.00  0.00    +0.000 C 
BRANCH  23  24
ATOM     24  C   UNL     1       0.607  13.627  19.403  0.00  0.00    +0.000 A 
ATOM     25  C   UNL     1       1.727  13.510  18.562  0.00  0.00    +0.000 A 
ATOM     26  C   UNL     1       3.023  13.709  19.053  0.00  0.00    +0.000 A 
ATOM     27  C   UNL     1       3.216  14.127  20.365  0.00  0.00    +0.000 A 
ATOM     28  C   UNL     1       2.112  14.394  21.167  0.00  0.00    +0.000 A 
ATOM     29  C   UNL     1       0.815  14.143  20.692  0.00  0.00    +0.000 A 
ENDBRANCH  23  24
ENDBRANCH  12  23
TORSDOF 5
ENDMDL
MODEL 6
REMARK VINA RESULT:      -6.7      6.872      8.658
REMARK  Name = 
REMARK  5 active torsions:
REMARK  status: ('A' for Active; 'I' for Inactive)
REMARK    1  A    between atoms: C_4  and  C_5
REMARK    2  A    between atoms: C_5  and  C_6
REMARK    3  A    between atoms: C_16  and  O_17
REMARK    4  A    between atoms: N_20  and  C_21
REMARK    5  A    between atoms: C_21  and  C_22
REMARK                            x       y       z     vdW  Elec       q    Type
REMARK                         _______ _______ _______ _____ _____    ______ ____
ROOT
ATOM      1  O   UNL     1      -0.087   9.950  17.611  0.00  0.00    +0.000 OA
ATOM      2  C   UNL     1       0.922  10.241  18.257  0.00  0.00    +0.000 C 
ATOM      3  N   UNL     1       2.084   9.505  18.181  0.00  0.00    +0.000 N 
ATOM      4  C   UNL     1       1.935   8.097  18.552  0.00  0.00    +0.000 C 
ATOM      5  C   UNL     1       1.881   7.955  20.111  0.00  0.00    +0.000 C 
ATOM      6  O   UNL     1       2.318   6.922  20.651  0.00  0.00    +0.000 OA
ATOM      7  N   UNL     1       1.271   8.934  20.898  0.00  0.00    +0.000 N 
ATOM      8  C   UNL     1       1.308   8.773  22.342  0.00  0.00    +0.000 C 
ATOM      9  C   UNL     1       0.142   9.595  22.888  0.00  0.00    +0.000 C 
ATOM     10  C   UNL     1      -0.162  10.638  21.817  0.00  0.00    +0.000 C 
ATOM     11  C   UNL     1       0.332  10.011  20.503  0.00  0.00    +0.000 C 
ATOM     12  N   UNL     1       0.855  10.891  19.467  0.00  0.00    +0.000 N 
ATOM     13  H   UNL     1       2.885   9.948  18.612  0.00  0.00    +0.000 HD
ENDROOT
BRANCH   9  14
ATOM     14  O   UNL     1      -0.999   8.768  23.111  0.00  0.00    +0.000 OA
ATOM     15  H   UNL     1      -0.757   7.843  22.923  0.00  0.00    +0.000 HD
ENDBRANCH   9  14
BRANCH   4  16
ATOM     16  C   UNL     1       3.119   7.250  18.021  0.00  0.00    +0.000 C 
BRANCH  16  17
ATOM     17  C   UNL     1       2.913   5.765  17.795  0.00  0.00    +0.000 A 
ATOM     18  C   UNL     1       1.666   5.136  17.898  0.00  0.00    +0.000 A 
ATOM     19  C   UNL     1       1.542   3.755  17.750  0.00  0.00    +0.000 A 
ATOM     20  C   UNL     1       2.666   2.978  17.481  0.00  0.00    +0.000 A 
ATOM     21  C   UNL     1       3.909   3.586  17.345  0.00  0.00    +0.000 A 
ATOM     22  C   UNL     1       4.034   4.971  17.502  0.00  0.00    +0.000 A 
ENDBRANCH  16  17
ENDBRANCH   4  16
BRANCH  12  23
ATOM     23  C   UNL     1       1.584  12.145  19.675  0.00  0.00    +0.000 C 
BRANCH  23  24
ATOM     24  C   UNL     1       0.742  13.404  19.530  0.00  0.00    +0.000 A 
ATOM     25  C   UNL     1       1.261  14.489  18.800  0.00  0.00    +0.000 A 
ATOM     26  C   UNL     1       0.594  15.719  18.761  0.00  0.00    +0.000 A 
ATOM     27  C   UNL     1      -0.651  15.857  19.364  0.00  0.00    +0.000 A 
ATOM     28  C   UNL     1      -1.249  14.752  19.961  0.00  0.00    +0.000 A 
ATOM     29  C   UNL     1      -0.557  13.534  20.047  0.00  0.00    +0.000 A 
ENDBRANCH  23  24
ENDBRANCH  12  23
TORSDOF 5
ENDMDL
MODEL 7
REMARK VINA RESULT:      -6.7      3.329      5.078
REMARK  Name = 
REMARK  5 active torsions:
REMARK  status: ('A' for Active; 'I' for Inactive)
REMARK    1  A    between atoms: C_4  and  C_5
REMARK    2  A    between atoms: C_5  and  C_6
REMARK    3  A    between atoms: C_16  and  O_17
REMARK    4  A    between atoms: N_20  and  C_21
REMARK    5  A    between atoms: C_21  and  C_22
REMARK                            x       y       z     vdW  Elec       q    Type
REMARK                         _______ _______ _______ _____ _____    ______ ____
ROOT
ATOM      1  O   UNL     1       2.057   7.145  17.237  0.00  0.00    +0.000 OA
ATOM      2  C   UNL     1       2.734   6.915  18.241  0.00  0.00    +0.000 C 
ATOM      3  N   UNL     1       4.049   6.511  18.167  0.00  0.00    +0.000 N 
ATOM      4  C   UNL     1       4.261   5.269  17.421  0.00  0.00    +0.000 C 
ATOM      5  C   UNL     1       3.874   4.038  18.308  0.00  0.00    +0.000 C 
ATOM      6  O   UNL     1       4.466   2.953  18.148  0.00  0.00    +0.000 OA
ATOM      7  N   UNL     1       2.817   4.114  19.216  0.00  0.00    +0.000 N 
ATOM      8  C   UNL     1       2.548   2.955  20.052  0.00  0.00    +0.000 C 
ATOM      9  C   UNL     1       1.088   3.077  20.484  0.00  0.00    +0.000 C 
ATOM     10  C   UNL     1       0.745   4.559  20.361  0.00  0.00    +0.000 C 
ATOM     11  C   UNL     1       1.715   5.102  19.300  0.00  0.00    +0.000 C 
ATOM     12  N   UNL     1       2.175   6.479  19.419  0.00  0.00    +0.000 N 
ATOM     13  H   UNL     1       4.542   6.534  19.050  0.00  0.00    +0.000 HD
ENDROOT
BRANCH   9  14
ATOM     14  O   UNL     1       0.244   2.303  19.634  0.00  0.00    +0.000 OA
ATOM     15  H   UNL     1      -0.581   2.797  19.476  0.00  0.00    +0.000 HD
ENDBRANCH   9  14
BRANCH   4  16
ATOM     16  C   UNL     1       5.742   5.121  16.989  0.00  0.00    +0.000 C 
BRANCH  16  17
ATOM     17  C   UNL     1       6.054   4.810  15.539  0.00  0.00    +0.000 A 
ATOM     18  C   UNL     1       5.234   4.015  14.728  0.00  0.00    +0.000 A 
ATOM     19  C   UNL     1       5.601   3.701  13.420  0.00  0.00    +0.000 A 
ATOM     20  C   UNL     1       6.794   4.190  12.894  0.00  0.00    +0.000 A 
ATOM     21  C   UNL     1       7.609   5.006  13.671  0.00  0.00    +0.000 A 
ATOM     22  C   UNL     1       7.243   5.314  14.986  0.00  0.00    +0.000 A 
ENDBRANCH  16  17
ENDBRANCH   4  16
BRANCH  12  23
ATOM     23  C   UNL     1       2.403   7.218  20.664  0.00  0.00    +0.000 C 
BRANCH  23  24
ATOM     24  C   UNL     1       1.452   8.383  20.898  0.00  0.00    +0.000 A 
ATOM     25  C   UNL     1       1.018   8.654  22.208  0.00  0.00    +0.000 A 
ATOM     26  C   UNL     1       0.033   9.617  22.457  0.00  0.00    +0.000 A 
ATOM     27  C   UNL     1      -0.462  10.395  21.417  0.00  0.00    +0.000 A 
ATOM     28  C   UNL     1       0.065  10.245  20.139  0.00  0.00    +0.000 A 
ATOM     29  C   UNL     1       1.014   9.244  19.878  0.00  0.00    +0.000 A 
ENDBRANCH  23  24
ENDBRANCH  12  23
TORSDOF 5
ENDMDL
MODEL 8
REMARK VINA RESULT:      -6.7      1.932      3.014
REMARK  Name = 
REMARK  5 active torsions:
REMARK  status: ('A' for Active; 'I' for Inactive)
REMARK    1  A    between atoms: C_4  and  C_5
REMARK    2  A    between atoms: C_5  and  C_6
REMARK    3  A    between atoms: C_16  and  O_17
REMARK    4  A    between atoms: N_20  and  C_21
REMARK    5  A    between atoms: C_21  and  C_22
REMARK                            x       y       z     vdW  Elec       q    Type
REMARK                         _______ _______ _______ _____ _____    ______ ____
ROOT
ATOM      1  O   UNL     1       7.286   4.898  19.376  0.00  0.00    +0.000 OA
ATOM      2  C   UNL     1       6.501   4.402  18.567  0.00  0.00    +0.000 C 
ATOM      3  N   UNL     1       6.720   4.439  17.208  0.00  0.00    +0.000 N 
ATOM      4  C   UNL     1       6.848   5.787  16.651  0.00  0.00    +0.000 C 
ATOM      5  C   UNL     1       5.433   6.440  16.497  0.00  0.00    +0.000 C 
ATOM      6  O   UNL     1       5.230   7.263  15.583  0.00  0.00    +0.000 OA
ATOM      7  N   UNL     1       4.419   6.179  17.421  0.00  0.00    +0.000 N 
ATOM      8  C   UNL     1       3.111   6.769  17.187  0.00  0.00    +0.000 C 
ATOM      9  C   UNL     1       2.421   6.816  18.550  0.00  0.00    +0.000 C 
ATOM     10  C   UNL     1       3.110   5.750  19.396  0.00  0.00    +0.000 C 
ATOM     11  C   UNL     1       4.512   5.603  18.784  0.00  0.00    +0.000 C 
ATOM     12  N   UNL     1       5.154   4.296  18.822  0.00  0.00    +0.000 N 
ATOM     13  H   UNL     1       6.104   3.843  16.670  0.00  0.00    +0.000 HD
ENDROOT
BRANCH   9  14
ATOM     14  O   UNL     1       2.577   8.100  19.150  0.00  0.00    +0.000 OA
ATOM     15  H   UNL     1       2.520   8.003  20.118  0.00  0.00    +0.000 HD
ENDBRANCH   9  14
BRANCH   4  16
ATOM     16  C   UNL     1       7.531   5.756  15.260  0.00  0.00    +0.000 C 
BRANCH  16  17
ATOM     17  C   UNL     1       6.912   4.915  14.160  0.00  0.00    +0.000 A 
ATOM     18  C   UNL     1       5.730   4.182  14.324  0.00  0.00    +0.000 A 
ATOM     19  C   UNL     1       5.240   3.368  13.303  0.00  0.00    +0.000 A 
ATOM     20  C   UNL     1       5.919   3.284  12.091  0.00  0.00    +0.000 A 
ATOM     21  C   UNL     1       7.079   4.027  11.896  0.00  0.00    +0.000 A 
ATOM     22  C   UNL     1       7.574   4.837  12.924  0.00  0.00    +0.000 A 
ENDBRANCH  16  17
ENDBRANCH   4  16
BRANCH  12  23
ATOM     23  C   UNL     1       4.485   2.994  18.746  0.00  0.00    +0.000 C 
BRANCH  23  24
ATOM     24  C   UNL     1       3.256   2.855  19.631  0.00  0.00    +0.000 A 
ATOM     25  C   UNL     1       1.987   2.796  19.028  0.00  0.00    +0.000 A 
ATOM     26  C   UNL     1       0.818   2.817  19.799  0.00  0.00    +0.000 A 
ATOM     27  C   UNL     1       0.898   2.796  21.187  0.00  0.00    +0.000 A 
ATOM     28  C   UNL     1       2.142   2.702  21.800  0.00  0.00    +0.000 A 
ATOM     29  C   UNL     1       3.315   2.734  21.029  0.00  0.00    +0.000 A 
ENDBRANCH  23  24
ENDBRANCH  12  23
TORSDOF 5
ENDMDL
MODEL 9
REMARK VINA RESULT:      -6.7      8.242      9.728
REMARK  Name = 
REMARK  5 active torsions:
REMARK  status: ('A' for Active; 'I' for Inactive)
REMARK    1  A    between atoms: C_4  and  C_5
REMARK    2  A    between atoms: C_5  and  C_6
REMARK    3  A    between atoms: C_16  and  O_17
REMARK    4  A    between atoms: N_20  and  C_21
REMARK    5  A    between atoms: C_21  and  C_22
REMARK                            x       y       z     vdW  Elec       q    Type
REMARK                         _______ _______ _______ _____ _____    ______ ____
ROOT
ATOM      1  O   UNL     1      -0.947   9.890  20.363  0.00  0.00    +0.000 OA
ATOM      2  C   UNL     1      -0.972  10.368  19.227  0.00  0.00    +0.000 C 
ATOM      3  N   UNL     1      -0.084   9.987  18.246  0.00  0.00    +0.000 N 
ATOM      4  C   UNL     1       1.324  10.202  18.587  0.00  0.00    +0.000 C 
ATOM      5  C   UNL     1       1.692  11.714  18.411  0.00  0.00    +0.000 C 
ATOM      6  O   UNL     1       2.853  12.032  18.087  0.00  0.00    +0.000 OA
ATOM      7  N   UNL     1       0.763  12.716  18.696  0.00  0.00    +0.000 N 
ATOM      8  C   UNL     1       1.148  14.097  18.455  0.00  0.00    +0.000 C 
ATOM      9  C   UNL     1       0.246  14.948  19.347  0.00  0.00    +0.000 C 
ATOM     10  C   UNL     1      -0.984  14.088  19.627  0.00  0.00    +0.000 C 
ATOM     11  C   UNL     1      -0.496  12.639  19.476  0.00  0.00    +0.000 C 
ATOM     12  N   UNL     1      -1.431  11.640  18.977  0.00  0.00    +0.000 N 
ATOM     13  H   UNL     1      -0.323  10.311  17.319  0.00  0.00    +0.000 HD
ENDROOT
BRANCH   9  14
ATOM     14  O   UNL     1       0.907  15.276  20.567  0.00  0.00    +0.000 OA
ATOM     15  H   UNL     1       0.406  14.890  21.309  0.00  0.00    +0.000 HD
ENDBRANCH   9  14
BRANCH   4  16
ATOM     16  C   UNL     1       2.254   9.359  17.678  0.00  0.00    +0.000 C 
BRANCH  16  17
ATOM     17  C   UNL     1       2.707   7.995  18.161  0.00  0.00    +0.000 A 
ATOM     18  C   UNL     1       2.185   7.369  19.300  0.00  0.00    +0.000 A 
ATOM     19  C   UNL     1       2.685   6.144  19.742  0.00  0.00    +0.000 A 
ATOM     20  C   UNL     1       3.710   5.515  19.040  0.00  0.00    +0.000 A 
ATOM     21  C   UNL     1       4.223   6.104  17.889  0.00  0.00    +0.000 A 
ATOM     22  C   UNL     1       3.726   7.337  17.452  0.00  0.00    +0.000 A 
ENDBRANCH  16  17
ENDBRANCH   4  16
BRANCH  12  23
ATOM     23  C   UNL     1      -2.508  11.861  18.008  0.00  0.00    +0.000 C 
BRANCH  23  24
ATOM     24  C   UNL     1      -3.914  11.745  18.579  0.00  0.00    +0.000 A 
ATOM     25  C   UNL     1      -4.234  12.461  19.747  0.00  0.00    +0.000 A 
ATOM     26  C   UNL     1      -5.461  12.275  20.395  0.00  0.00    +0.000 A 
ATOM     27  C   UNL     1      -6.429  11.449  19.833  0.00  0.00    +0.000 A 
ATOM     28  C   UNL     1      -6.187  10.852  18.601  0.00  0.00    +0.000 A 
ATOM     29  C   UNL     1      -4.938  10.995  17.977  0.00  0.00    +0.000 A 
ENDBRANCH  23  24
ENDBRANCH  12  23
TORSDOF 5
ENDMDL
