MODEL 1
REMARK VINA RESULT:      -7.2      0.000      0.000
REMARK  Name = 
REMARK  4 active torsions:
REMARK  status: ('A' for Active; 'I' for Inactive)
REMARK    1  A    between atoms: C_2  and  O_3
REMARK    2  A    between atoms: C_2  and  C_4
REMARK    3  A    between atoms: C_8  and  O_9
REMARK    4  A    between atoms: O_9  and  C_10
REMARK                            x       y       z     vdW  Elec       q    Type
REMARK                         _______ _______ _______ _____ _____    ______ ____
ROOT
ATOM      1  C   UNL     1       6.724   6.023  17.243  0.00  0.00    +0.000 A 
ATOM      2  C   UNL     1       7.171   5.088  16.301  0.00  0.00    +0.000 A 
ATOM      3  C   UNL     1       6.273   4.164  15.765  0.00  0.00    +0.000 A 
ATOM      4  C   UNL     1       4.930   4.190  16.147  0.00  0.00    +0.000 A 
ATOM      5  C   UNL     1       4.485   5.127  17.081  0.00  0.00    +0.000 A 
ATOM      6  C   UNL     1       5.396   6.001  17.680  0.00  0.00    +0.000 A 
ENDROOT
BRANCH   1   8
ATOM      7  O   UNL     1       7.826   8.131  17.229  0.00  0.00    +0.000 OA
ATOM      8  C   UNL     1       7.614   7.072  17.794  0.00  0.00    +0.000 C 
BRANCH   8   9
ATOM      9  O   UNL     1       8.239   6.699  18.931  0.00  0.00    +0.000 OA
ATOM     10  H   UNL     1       9.153   6.381  18.817  0.00  0.00    +0.000 HD
ENDBRANCH   8   9
ENDBRANCH   1   8
BRANCH   5  11
ATOM     11  O   UNL     1       3.139   5.110  17.374  0.00  0.00    +0.000 OA
BRANCH  11  12
ATOM     12  C   UNL     1       2.700   4.435  18.496  0.00  0.00    +0.000 A 
ATOM     13  C   UNL     1       2.659   3.034  18.574  0.00  0.00    +0.000 A 
ATOM     14  C   UNL     1       2.153   2.408  19.713  0.00  0.00    +0.000 A 
ATOM     15  C   UNL     1       1.749   3.174  20.804  0.00  0.00    +0.000 A 
ATOM     16 CL   UNL     1       1.125   2.394  22.205  0.00  0.00    +0.000 Cl
ATOM     17  C   UNL     1       1.853   4.562  20.770  0.00  0.00    +0.000 A 
ATOM     18  C   UNL     1       2.329   5.191  19.616  0.00  0.00    +0.000 A 
ATOM     19 CL   UNL     1       2.447   6.915  19.617  0.00  0.00    +0.000 Cl
ENDBRANCH  11  12
ENDBRANCH   5  11
TORSDOF 4
ENDMDL
MODEL 2
REMARK VINA RESULT:      -7.2      1.425      1.853
REMARK  Name = 
REMARK  4 active torsions:
REMARK  status: ('A' for Active; 'I' for Inactive)
REMARK    1  A    between atoms: C_2  and  O_3
REMARK    2  A    between atoms: C_2  and  C_4
REMARK    3  A    between atoms: C_8  and  O_9
REMARK    4  A    between atoms: O_9  and  C_10
REMARK                            x       y       z     vdW  Elec       q    Type
REMARK                         _______ _______ _______ _____ _____    ______ ____
ROOT
ATOM      1  C   UNL     1       6.926   5.466  17.947  0.00  0.00    +0.000 A 
ATOM      2  C   UNL     1       7.374   4.835  16.779  0.00  0.00    +0.000 A 
ATOM      3  C   UNL     1       6.450   4.246  15.914  0.00  0.00    +0.000 A 
ATOM      4  C   UNL     1       5.085   4.309  16.200  0.00  0.00    +0.000 A 
ATOM      5  C   UNL     1       4.639   4.944  17.361  0.00  0.00    +0.000 A 
ATOM      6  C   UNL     1       5.565   5.464  18.269  0.00  0.00    +0.000 A 
ENDROOT
BRANCH   1   8
ATOM      7  O   UNL     1       8.303   7.278  18.639  0.00  0.00    +0.000 OA
ATOM      8  C   UNL     1       7.851   6.169  18.865  0.00  0.00    +0.000 C 
BRANCH   8   9
ATOM      9  O   UNL     1       8.220   5.421  19.928  0.00  0.00    +0.000 OA
ATOM     10  H   UNL     1       7.934   5.762  20.795  0.00  0.00    +0.000 HD
ENDBRANCH   8   9
ENDBRANCH   1   8
BRANCH   5  11
ATOM     11  O   UNL     1       3.276   4.996  17.547  0.00  0.00    +0.000 OA
BRANCH  11  12
ATOM     12  C   UNL     1       2.729   4.444  18.690  0.00  0.00    +0.000 A 
ATOM     13  C   UNL     1       2.443   5.199  19.838  0.00  0.00    +0.000 A 
ATOM     14  C   UNL     1       1.942   4.577  20.982  0.00  0.00    +0.000 A 
ATOM     15  C   UNL     1       1.661   3.213  20.962  0.00  0.00    +0.000 A 
ATOM     16 CL   UNL     1       1.044   2.453  22.377  0.00  0.00    +0.000 Cl
ATOM     17  C   UNL     1       1.869   2.465  19.807  0.00  0.00    +0.000 A 
ATOM     18  C   UNL     1       2.402   3.082  18.672  0.00  0.00    +0.000 A 
ATOM     19 CL   UNL     1       2.640   2.118  17.257  0.00  0.00    +0.000 Cl
ENDBRANCH  11  12
ENDBRANCH   5  11
TORSDOF 4
ENDMDL
MODEL 3
REMARK VINA RESULT:      -7.2      2.128      2.862
REMARK  Name = 
REMARK  4 active torsions:
REMARK  status: ('A' for Active; 'I' for Inactive)
REMARK    1  A    between atoms: C_2  and  O_3
REMARK    2  A    between atoms: C_2  and  C_4
REMARK    3  A    between atoms: C_8  and  O_9
REMARK    4  A    between atoms: O_9  and  C_10
REMARK                            x       y       z     vdW  Elec       q    Type
REMARK                         _______ _______ _______ _____ _____    ______ ____
ROOT
ATOM      1  C   UNL     1       6.503   4.872  15.754  0.00  0.00    +0.000 A 
ATOM      2  C   UNL     1       7.428   4.730  16.797  0.00  0.00    +0.000 A 
ATOM      3  C   UNL     1       7.018   4.935  18.115  0.00  0.00    +0.000 A 
ATOM      4  C   UNL     1       5.688   5.255  18.393  0.00  0.00    +0.000 A 
ATOM      5  C   UNL     1       4.767   5.391  17.353  0.00  0.00    +0.000 A 
ATOM      6  C   UNL     1       5.190   5.265  16.028  0.00  0.00    +0.000 A 
ENDROOT
BRANCH   1   8
ATOM      7  O   UNL     1       7.510   5.369  13.656  0.00  0.00    +0.000 OA
ATOM      8  C   UNL     1       6.861   4.598  14.343  0.00  0.00    +0.000 C 
BRANCH   8   9
ATOM      9  O   UNL     1       6.318   3.458  13.865  0.00  0.00    +0.000 OA
ATOM     10  H   UNL     1       6.555   2.648  14.353  0.00  0.00    +0.000 HD
ENDBRANCH   8   9
ENDBRANCH   1   8
BRANCH   5  11
ATOM     11  O   UNL     1       3.468   5.669  17.716  0.00  0.00    +0.000 OA
BRANCH  11  12
ATOM     12  C   UNL     1       2.893   4.969  18.759  0.00  0.00    +0.000 A 
ATOM     13  C   UNL     1       2.685   5.530  20.030  0.00  0.00    +0.000 A 
ATOM     14  C   UNL     1       2.151   4.757  21.061  0.00  0.00    +0.000 A 
ATOM     15  C   UNL     1       1.759   3.444  20.811  0.00  0.00    +0.000 A 
ATOM     16 CL   UNL     1       1.101   2.497  22.088  0.00  0.00    +0.000 Cl
ATOM     17  C   UNL     1       1.890   2.897  19.537  0.00  0.00    +0.000 A 
ATOM     18  C   UNL     1       2.456   3.661  18.513  0.00  0.00    +0.000 A 
ATOM     19 CL   UNL     1       2.595   2.946  16.946  0.00  0.00    +0.000 Cl
ENDBRANCH  11  12
ENDBRANCH   5  11
TORSDOF 4
ENDMDL
MODEL 4
REMARK VINA RESULT:      -7.1      1.827      2.997
REMARK  Name = 
REMARK  4 active torsions:
REMARK  status: ('A' for Active; 'I' for Inactive)
REMARK    1  A    between atoms: C_2  and  O_3
REMARK    2  A    between atoms: C_2  and  C_4
REMARK    3  A    between atoms: C_8  and  O_9
REMARK    4  A    between atoms: O_9  and  C_10
REMARK                            x       y       z     vdW  Elec       q    Type
REMARK                         _______ _______ _______ _____ _____    ______ ____
ROOT
ATOM      1  C   UNL     1       6.934   5.218  18.320  0.00  0.00    +0.000 A 
ATOM      2  C   UNL     1       7.428   4.719  17.108  0.00  0.00    +0.000 A 
ATOM      3  C   UNL     1       6.537   4.293  16.121  0.00  0.00    +0.000 A 
ATOM      4  C   UNL     1       5.160   4.389  16.333  0.00  0.00    +0.000 A 
ATOM      5  C   UNL     1       4.669   4.892  17.540  0.00  0.00    +0.000 A 
ATOM      6  C   UNL     1       5.557   5.244  18.560  0.00  0.00    +0.000 A 
ENDROOT
BRANCH   1   8
ATOM      7  O   UNL     1       7.982   5.207  20.456  0.00  0.00    +0.000 OA
ATOM      8  C   UNL     1       7.828   5.749  19.375  0.00  0.00    +0.000 C 
BRANCH   8   9
ATOM      9  O   UNL     1       8.379   6.941  19.058  0.00  0.00    +0.000 OA
ATOM     10  H   UNL     1       9.163   6.895  18.480  0.00  0.00    +0.000 HD
ENDBRANCH   8   9
ENDBRANCH   1   8
BRANCH   5  11
ATOM     11  O   UNL     1       3.300   4.989  17.652  0.00  0.00    +0.000 OA
BRANCH  11  12
ATOM     12  C   UNL     1       2.757   5.942  18.492  0.00  0.00    +0.000 A 
ATOM     13  C   UNL     1       2.608   7.288  18.119  0.00  0.00    +0.000 A 
ATOM     14  C   UNL     1       2.103   8.218  19.029  0.00  0.00    +0.000 A 
ATOM     15  C   UNL     1       1.684   7.797  20.289  0.00  0.00    +0.000 A 
ATOM     16 CL   UNL     1       1.064   8.950  21.406  0.00  0.00    +0.000 Cl
ATOM     17  C   UNL     1       1.757   6.453  20.647  0.00  0.00    +0.000 A 
ATOM     18  C   UNL     1       2.293   5.528  19.747  0.00  0.00    +0.000 A 
ATOM     19 CL   UNL     1       2.361   3.870  20.228  0.00  0.00    +0.000 Cl
ENDBRANCH  11  12
ENDBRANCH   5  11
TORSDOF 4
ENDMDL
MODEL 5
REMARK VINA RESULT:      -7.1      2.300      3.477
REMARK  Name = 
REMARK  4 active torsions:
REMARK  status: ('A' for Active; 'I' for Inactive)
REMARK    1  A    between atoms: C_2  and  O_3
REMARK    2  A    between atoms: C_2  and  C_4
REMARK    3  A    between atoms: C_8  and  O_9
REMARK    4  A    between atoms: O_9  and  C_10
REMARK                            x       y       z     vdW  Elec       q    Type
REMARK                         _______ _______ _______ _____ _____    ______ ____
ROOT
ATOM      1  C   UNL     1       6.460   4.595  15.729  0.00  0.00    +0.000 A 
ATOM      2  C   UNL     1       7.427   4.668  16.741  0.00  0.00    +0.000 A 
ATOM      3  C   UNL     1       7.028   4.679  18.078  0.00  0.00    +0.000 A 
ATOM      4  C   UNL     1       5.673   4.593  18.405  0.00  0.00    +0.000 A 
ATOM      5  C   UNL     1       4.711   4.515  17.396  0.00  0.00    +0.000 A 
ATOM      6  C   UNL     1       5.101   4.584  16.056  0.00  0.00    +0.000 A 
ENDROOT
BRANCH   1   8
ATOM      7  O   UNL     1       7.464   5.370  13.717  0.00  0.00    +0.000 OA
ATOM      8  C   UNL     1       6.826   4.509  14.297  0.00  0.00    +0.000 C 
BRANCH   8   9
ATOM      9  O   UNL     1       6.300   3.431  13.675  0.00  0.00    +0.000 OA
ATOM     10  H   UNL     1       5.787   2.831  14.247  0.00  0.00    +0.000 HD
ENDBRANCH   8   9
ENDBRANCH   1   8
BRANCH   5  11
ATOM     11  O   UNL     1       3.402   4.393  17.805  0.00  0.00    +0.000 OA
BRANCH  11  12
ATOM     12  C   UNL     1       2.848   5.376  18.602  0.00  0.00    +0.000 A 
ATOM     13  C   UNL     1       2.779   6.723  18.212  0.00  0.00    +0.000 A 
ATOM     14  C   UNL     1       2.259   7.681  19.082  0.00  0.00    +0.000 A 
ATOM     15  C   UNL     1       1.745   7.290  20.316  0.00  0.00    +0.000 A 
ATOM     16 CL   UNL     1       1.106   8.478  21.385  0.00  0.00    +0.000 Cl
ATOM     17  C   UNL     1       1.739   5.948  20.687  0.00  0.00    +0.000 A 
ATOM     18  C   UNL     1       2.290   4.993  19.829  0.00  0.00    +0.000 A 
ATOM     19 CL   UNL     1       2.258   3.338  20.324  0.00  0.00    +0.000 Cl
ENDBRANCH  11  12
ENDBRANCH   5  11
TORSDOF 4
ENDMDL
MODEL 6
REMARK VINA RESULT:      -7.1      3.150      6.079
REMARK  Name = 
REMARK  4 active torsions:
REMARK  status: ('A' for Active; 'I' for Inactive)
REMARK    1  A    between atoms: C_2  and  O_3
REMARK    2  A    between atoms: C_2  and  C_4
REMARK    3  A    between atoms: C_8  and  O_9
REMARK    4  A    between atoms: O_9  and  C_10
REMARK                            x       y       z     vdW  Elec       q    Type
REMARK                         _______ _______ _______ _____ _____    ______ ____
ROOT
ATOM      1  C   UNL     1       2.816   3.234  19.856  0.00  0.00    +0.000 A 
ATOM      2  C   UNL     1       1.672   3.551  19.111  0.00  0.00    +0.000 A 
ATOM      3  C   UNL     1       1.808   4.035  17.809  0.00  0.00    +0.000 A 
ATOM      4  C   UNL     1       3.078   4.178  17.245  0.00  0.00    +0.000 A 
ATOM      5  C   UNL     1       4.216   3.857  17.986  0.00  0.00    +0.000 A 
ATOM      6  C   UNL     1       4.088   3.448  19.316  0.00  0.00    +0.000 A 
ENDROOT
BRANCH   1   8
ATOM      7  O   UNL     1       1.772   2.805  21.950  0.00  0.00    +0.000 OA
ATOM      8  C   UNL     1       2.732   2.650  21.215  0.00  0.00    +0.000 C 
BRANCH   8   9
ATOM      9  O   UNL     1       3.862   2.014  21.593  0.00  0.00    +0.000 OA
ATOM     10  H   UNL     1       3.737   1.298  22.243  0.00  0.00    +0.000 HD
ENDBRANCH   8   9
ENDBRANCH   1   8
BRANCH   5  11
ATOM     11  O   UNL     1       5.426   3.989  17.342  0.00  0.00    +0.000 OA
BRANCH  11  12
ATOM     12  C   UNL     1       6.231   5.074  17.633  0.00  0.00    +0.000 A 
ATOM     13  C   UNL     1       7.124   5.090  18.717  0.00  0.00    +0.000 A 
ATOM     14  C   UNL     1       7.872   6.234  18.994  0.00  0.00    +0.000 A 
ATOM     15  C   UNL     1       7.782   7.341  18.154  0.00  0.00    +0.000 A 
ATOM     16 CL   UNL     1       8.707   8.750  18.504  0.00  0.00    +0.000 Cl
ATOM     17  C   UNL     1       6.956   7.314  17.033  0.00  0.00    +0.000 A 
ATOM     18  C   UNL     1       6.182   6.179  16.774  0.00  0.00    +0.000 A 
ATOM     19 CL   UNL     1       5.175   6.184  15.370  0.00  0.00    +0.000 Cl
ENDBRANCH  11  12
ENDBRANCH   5  11
TORSDOF 4
ENDMDL
MODEL 7
REMARK VINA RESULT:      -7.1      3.074      5.836
REMARK  Name = 
REMARK  4 active torsions:
REMARK  status: ('A' for Active; 'I' for Inactive)
REMARK    1  A    between atoms: C_2  and  O_3
REMARK    2  A    between atoms: C_2  and  C_4
REMARK    3  A    between atoms: C_8  and  O_9
REMARK    4  A    between atoms: O_9  and  C_10
REMARK                            x       y       z     vdW  Elec       q    Type
REMARK                         _______ _______ _______ _____ _____    ______ ____
ROOT
ATOM      1  C   UNL     1       2.347   6.000  20.050  0.00  0.00    +0.000 A 
ATOM      2  C   UNL     1       1.497   4.999  20.539  0.00  0.00    +0.000 A 
ATOM      3  C   UNL     1       1.922   3.669  20.534  0.00  0.00    +0.000 A 
ATOM      4  C   UNL     1       3.197   3.343  20.068  0.00  0.00    +0.000 A 
ATOM      5  C   UNL     1       4.045   4.342  19.586  0.00  0.00    +0.000 A 
ATOM      6  C   UNL     1       3.594   5.663  19.515  0.00  0.00    +0.000 A 
ENDROOT
BRANCH   1   8
ATOM      7  O   UNL     1       1.999   8.159  19.115  0.00  0.00    +0.000 OA
ATOM      8  C   UNL     1       1.980   7.434  20.094  0.00  0.00    +0.000 C 
BRANCH   8   9
ATOM      9  O   UNL     1       1.717   7.880  21.342  0.00  0.00    +0.000 OA
ATOM     10  H   UNL     1       2.110   7.354  22.062  0.00  0.00    +0.000 HD
ENDBRANCH   8   9
ENDBRANCH   1   8
BRANCH   5  11
ATOM     11  O   UNL     1       5.299   3.941  19.183  0.00  0.00    +0.000 OA
BRANCH  11  12
ATOM     12  C   UNL     1       5.706   4.199  17.888  0.00  0.00    +0.000 A 
ATOM     13  C   UNL     1       4.982   3.775  16.763  0.00  0.00    +0.000 A 
ATOM     14  C   UNL     1       5.471   4.016  15.479  0.00  0.00    +0.000 A 
ATOM     15  C   UNL     1       6.649   4.740  15.311  0.00  0.00    +0.000 A 
ATOM     16 CL   UNL     1       7.246   5.033  13.725  0.00  0.00    +0.000 Cl
ATOM     17  C   UNL     1       7.340   5.232  16.415  0.00  0.00    +0.000 A 
ATOM     18  C   UNL     1       6.867   4.961  17.702  0.00  0.00    +0.000 A 
ATOM     19 CL   UNL     1       7.751   5.595  19.045  0.00  0.00    +0.000 Cl
ENDBRANCH  11  12
ENDBRANCH   5  11
TORSDOF 4
ENDMDL
MODEL 8
REMARK VINA RESULT:      -7.1      1.750      2.336
REMARK  Name = 
REMARK  4 active torsions:
REMARK  status: ('A' for Active; 'I' for Inactive)
REMARK    1  A    between atoms: C_2  and  O_3
REMARK    2  A    between atoms: C_2  and  C_4
REMARK    3  A    between atoms: C_8  and  O_9
REMARK    4  A    between atoms: O_9  and  C_10
REMARK                            x       y       z     vdW  Elec       q    Type
REMARK                         _______ _______ _______ _____ _____    ______ ____
ROOT
ATOM      1  C   UNL     1       6.496   5.296  15.764  0.00  0.00    +0.000 A 
ATOM      2  C   UNL     1       7.358   5.708  16.789  0.00  0.00    +0.000 A 
ATOM      3  C   UNL     1       6.829   6.122  18.012  0.00  0.00    +0.000 A 
ATOM      4  C   UNL     1       5.448   6.101  18.220  0.00  0.00    +0.000 A 
ATOM      5  C   UNL     1       4.591   5.685  17.200  0.00  0.00    +0.000 A 
ATOM      6  C   UNL     1       5.111   5.346  15.948  0.00  0.00    +0.000 A 
ENDROOT
BRANCH   1   8
ATOM      7  O   UNL     1       7.784   5.394  13.767  0.00  0.00    +0.000 OA
ATOM      8  C   UNL     1       7.002   4.780  14.471  0.00  0.00    +0.000 C 
BRANCH   8   9
ATOM      9  O   UNL     1       6.438   3.608  14.106  0.00  0.00    +0.000 OA
ATOM     10  H   UNL     1       5.958   3.140  14.814  0.00  0.00    +0.000 HD
ENDBRANCH   8   9
ENDBRANCH   1   8
BRANCH   5  11
ATOM     11  O   UNL     1       3.247   5.657  17.500  0.00  0.00    +0.000 OA
BRANCH  11  12
ATOM     12  C   UNL     1       2.804   4.865  18.543  0.00  0.00    +0.000 A 
ATOM     13  C   UNL     1       2.893   3.464  18.526  0.00  0.00    +0.000 A 
ATOM     14  C   UNL     1       2.379   2.714  19.583  0.00  0.00    +0.000 A 
ATOM     15  C   UNL     1       1.836   3.360  20.691  0.00  0.00    +0.000 A 
ATOM     16 CL   UNL     1       1.202   2.427  21.991  0.00  0.00    +0.000 Cl
ATOM     17  C   UNL     1       1.807   4.750  20.756  0.00  0.00    +0.000 A 
ATOM     18  C   UNL     1       2.293   5.501  19.681  0.00  0.00    +0.000 A 
ATOM     19 CL   UNL     1       2.245   7.224  19.804  0.00  0.00    +0.000 Cl
ENDBRANCH  11  12
ENDBRANCH   5  11
TORSDOF 4
ENDMDL
MODEL 9
REMARK VINA RESULT:      -6.9      1.543      1.902
REMARK  Name = 
REMARK  4 active torsions:
REMARK  status: ('A' for Active; 'I' for Inactive)
REMARK    1  A    between atoms: C_2  and  O_3
REMARK    2  A    between atoms: C_2  and  C_4
REMARK    3  A    between atoms: C_8  and  O_9
REMARK    4  A    between atoms: O_9  and  C_10
REMARK                            x       y       z     vdW  Elec       q    Type
REMARK                         _______ _______ _______ _____ _____    ______ ____
ROOT
ATOM      1  C   UNL     1       6.825   5.706  18.164  0.00  0.00    +0.000 A 
ATOM      2  C   UNL     1       6.678   6.546  17.053  0.00  0.00    +0.000 A 
ATOM      3  C   UNL     1       5.706   6.258  16.093  0.00  0.00    +0.000 A 
ATOM      4  C   UNL     1       4.869   5.152  16.255  0.00  0.00    +0.000 A 
ATOM      5  C   UNL     1       5.014   4.319  17.366  0.00  0.00    +0.000 A 
ATOM      6  C   UNL     1       6.036   4.558  18.287  0.00  0.00    +0.000 A 
ENDROOT
BRANCH   1   8
ATOM      7  O   UNL     1       7.853   5.351  20.280  0.00  0.00    +0.000 OA
ATOM      8  C   UNL     1       7.790   5.999  19.250  0.00  0.00    +0.000 C 
BRANCH   8   9
ATOM      9  O   UNL     1       8.523   7.111  19.027  0.00  0.00    +0.000 OA
ATOM     10  H   UNL     1       8.775   7.263  18.098  0.00  0.00    +0.000 HD
ENDBRANCH   8   9
ENDBRANCH   1   8
BRANCH   5  11
ATOM     11  O   UNL     1       4.123   3.274  17.469  0.00  0.00    +0.000 OA
BRANCH  11  12
ATOM     12  C   UNL     1       3.440   3.083  18.655  0.00  0.00    +0.000 A 
ATOM     13  C   UNL     1       4.015   2.457  19.773  0.00  0.00    +0.000 A 
ATOM     14  C   UNL     1       3.258   2.242  20.925  0.00  0.00    +0.000 A 
ATOM     15  C   UNL     1       1.948   2.710  20.990  0.00  0.00    +0.000 A 
ATOM     16 CL   UNL     1       1.020   2.440  22.414  0.00  0.00    +0.000 Cl
ATOM     17  C   UNL     1       1.387   3.398  19.917  0.00  0.00    +0.000 A 
ATOM     18  C   UNL     1       2.135   3.584  18.751  0.00  0.00    +0.000 A 
ATOM     19 CL   UNL     1       1.404   4.447  17.444  0.00  0.00    +0.000 Cl
ENDBRANCH  11  12
ENDBRANCH   5  11
TORSDOF 4
ENDMDL
