MODEL 1
REMARK VINA RESULT:      -8.1      0.000      0.000
REMARK  Name = 
REMARK  9 active torsions:
REMARK  status: ('A' for Active; 'I' for Inactive)
REMARK    1  A    between atoms: C_1  and  O_2
REMARK    2  A    between atoms: O_2  and  C_3
REMARK    3  A    between atoms: C_6  and  O_7
REMARK    4  A    between atoms: O_7  and  C_8
REMARK    5  A    between atoms: C_9  and  C_10
REMARK    6  A    between atoms: C_11  and  C_12
REMARK    7  A    between atoms: C_14  and  O_15
REMARK    8  A    between atoms: C_19  and  C_20
REMARK    9  A    between atoms: N_22  and  C_23
REMARK                            x       y       z     vdW  Elec       q    Type
REMARK                         _______ _______ _______ _____ _____    ______ ____
ROOT
ATOM      1  C   UNL     1       3.922   5.164  18.793  0.00  0.00    +0.000 A 
ATOM      2  C   UNL     1       3.451   4.244  19.772  0.00  0.00    +0.000 A 
ATOM      3  C   UNL     1       2.493   4.624  20.695  0.00  0.00    +0.000 A 
ATOM      4  N   UNL     1       1.910   5.817  20.708  0.00  0.00    +0.000 NA
ATOM      5  C   UNL     1       2.303   6.675  19.752  0.00  0.00    +0.000 A 
ATOM      6  C   UNL     1       3.263   6.444  18.765  0.00  0.00    +0.000 A 
ATOM      7  C   UNL     1       3.250   7.681  18.021  0.00  0.00    +0.000 A 
ATOM      8  C   UNL     1       4.056   8.192  16.878  0.00  0.00    +0.000 C 
ATOM      9  N   UNL     1       2.326   8.538  18.477  0.00  0.00    +0.000 NA
ATOM     10  N   UNL     1       1.852   7.978  19.616  0.00  0.00    +0.000 N 
ENDROOT
BRANCH   1  15
ATOM     11  C   UNL     1       5.459   4.263  15.453  0.00  0.00    +0.000 A 
ATOM     12  C   UNL     1       6.811   4.211  15.739  0.00  0.00    +0.000 A 
ATOM     13  C   UNL     1       7.259   4.391  17.042  0.00  0.00    +0.000 A 
ATOM     14  C   UNL     1       6.369   4.730  18.070  0.00  0.00    +0.000 A 
ATOM     15  C   UNL     1       4.974   4.807  17.797  0.00  0.00    +0.000 A 
ATOM     16  C   UNL     1       4.557   4.496  16.487  0.00  0.00    +0.000 A 
BRANCH  11  18
ATOM     17  C   UNL     1       6.204   3.753  13.269  0.00  0.00    +0.000 C 
ATOM     18  O   UNL     1       5.135   4.110  14.136  0.00  0.00    +0.000 OA
ENDBRANCH  11  18
BRANCH  14  19
ATOM     19  O   UNL     1       6.804   4.968  19.352  0.00  0.00    +0.000 OA
ATOM     20  C   UNL     1       7.933   5.826  19.537  0.00  0.00    +0.000 C 
ENDBRANCH  14  19
ENDBRANCH   1  15
BRANCH  10  21
ATOM     21  C   UNL     1       1.047   8.737  20.517  0.00  0.00    +0.000 A 
ATOM     22  C   UNL     1       0.139   9.682  20.017  0.00  0.00    +0.000 A 
ATOM     23  C   UNL     1      -0.641  10.436  20.899  0.00  0.00    +0.000 A 
ATOM     24  C   UNL     1      -0.515  10.262  22.277  0.00  0.00    +0.000 A 
ATOM     25  C   UNL     1       0.397   9.344  22.781  0.00  0.00    +0.000 A 
ATOM     26  C   UNL     1       1.175   8.588  21.906  0.00  0.00    +0.000 A 
ENDBRANCH  10  21
BRANCH   2  27
ATOM     27  C   UNL     1       3.894   2.895  19.826  0.00  0.00    +0.000 C 
ATOM     28  N   UNL     1       4.378   1.830  19.827  0.00  0.00    +0.000 NA
ENDBRANCH   2  27
BRANCH   3  29
ATOM     29  O   UNL     1       2.032   3.822  21.700  0.00  0.00    +0.000 OA
ATOM     30  H   UNL     1       1.063   3.770  21.696  0.00  0.00    +0.000 HD
ENDBRANCH   3  29
TORSDOF 6
ENDMDL
MODEL 2
REMARK VINA RESULT:      -6.6      4.347      9.887
REMARK  Name = 
REMARK  9 active torsions:
REMARK  status: ('A' for Active; 'I' for Inactive)
REMARK    1  A    between atoms: C_1  and  O_2
REMARK    2  A    between atoms: O_2  and  C_3
REMARK    3  A    between atoms: C_6  and  O_7
REMARK    4  A    between atoms: O_7  and  C_8
REMARK    5  A    between atoms: C_9  and  C_10
REMARK    6  A    between atoms: C_11  and  C_12
REMARK    7  A    between atoms: C_14  and  O_15
REMARK    8  A    between atoms: C_19  and  C_20
REMARK    9  A    between atoms: N_22  and  C_23
REMARK                            x       y       z     vdW  Elec       q    Type
REMARK                         _______ _______ _______ _____ _____    ______ ____
ROOT
ATOM      1  C   UNL     1       0.040  12.018  20.640  0.00  0.00    +0.000 A 
ATOM      2  C   UNL     1       0.515  12.690  19.477  0.00  0.00    +0.000 A 
ATOM      3  C   UNL     1       1.281  12.021  18.540  0.00  0.00    +0.000 A 
ATOM      4  N   UNL     1       1.576  10.729  18.610  0.00  0.00    +0.000 NA
ATOM      5  C   UNL     1       1.083  10.069  19.672  0.00  0.00    +0.000 A 
ATOM      6  C   UNL     1       0.311  10.606  20.704  0.00  0.00    +0.000 A 
ATOM      7  C   UNL     1       0.053   9.453  21.534  0.00  0.00    +0.000 A 
ATOM      8  C   UNL     1      -0.640   9.270  22.839  0.00  0.00    +0.000 C 
ATOM      9  N   UNL     1       0.563   8.328  21.012  0.00  0.00    +0.000 NA
ATOM     10  N   UNL     1       1.309   8.732  19.955  0.00  0.00    +0.000 N 
ENDROOT
BRANCH   1  15
ATOM     11  C   UNL     1      -2.912  12.804  22.876  0.00  0.00    +0.000 A 
ATOM     12  C   UNL     1      -2.423  13.808  23.693  0.00  0.00    +0.000 A 
ATOM     13  C   UNL     1      -1.144  14.312  23.492  0.00  0.00    +0.000 A 
ATOM     14  C   UNL     1      -0.289  13.752  22.533  0.00  0.00    +0.000 A 
ATOM     15  C   UNL     1      -0.764  12.706  21.691  0.00  0.00    +0.000 A 
ATOM     16  C   UNL     1      -2.107  12.313  21.852  0.00  0.00    +0.000 A 
BRANCH  11  18
ATOM     17  C   UNL     1      -4.587  12.572  24.527  0.00  0.00    +0.000 C 
ATOM     18  O   UNL     1      -4.163  12.357  23.186  0.00  0.00    +0.000 OA
ENDBRANCH  11  18
BRANCH  14  19
ATOM     19  O   UNL     1       0.998  14.203  22.362  0.00  0.00    +0.000 OA
ATOM     20  C   UNL     1       1.224  15.615  22.338  0.00  0.00    +0.000 C 
ENDBRANCH  14  19
ENDBRANCH   1  15
BRANCH  10  21
ATOM     21  C   UNL     1       2.217   7.832  19.322  0.00  0.00    +0.000 A 
ATOM     22  C   UNL     1       2.750   8.146  18.064  0.00  0.00    +0.000 A 
ATOM     23  C   UNL     1       3.629   7.259  17.436  0.00  0.00    +0.000 A 
ATOM     24  C   UNL     1       3.973   6.054  18.050  0.00  0.00    +0.000 A 
ATOM     25  C   UNL     1       3.434   5.726  19.287  0.00  0.00    +0.000 A 
ATOM     26  C   UNL     1       2.558   6.608  19.917  0.00  0.00    +0.000 A 
ENDBRANCH  10  21
BRANCH   2  27
ATOM     27  C   UNL     1       0.198  14.047  19.197  0.00  0.00    +0.000 C 
ATOM     28  N   UNL     1      -0.085  15.123  18.839  0.00  0.00    +0.000 NA
ENDBRANCH   2  27
BRANCH   3  29
ATOM     29  O   UNL     1       1.823  12.606  17.430  0.00  0.00    +0.000 OA
ATOM     30  H   UNL     1       2.515  13.243  17.667  0.00  0.00    +0.000 HD
ENDBRANCH   3  29
TORSDOF 6
ENDMDL
MODEL 3
REMARK VINA RESULT:      -6.5      6.006      9.503
REMARK  Name = 
REMARK  9 active torsions:
REMARK  status: ('A' for Active; 'I' for Inactive)
REMARK    1  A    between atoms: C_1  and  O_2
REMARK    2  A    between atoms: O_2  and  C_3
REMARK    3  A    between atoms: C_6  and  O_7
REMARK    4  A    between atoms: O_7  and  C_8
REMARK    5  A    between atoms: C_9  and  C_10
REMARK    6  A    between atoms: C_11  and  C_12
REMARK    7  A    between atoms: C_14  and  O_15
REMARK    8  A    between atoms: C_19  and  C_20
REMARK    9  A    between atoms: N_22  and  C_23
REMARK                            x       y       z     vdW  Elec       q    Type
REMARK                         _______ _______ _______ _____ _____    ______ ____
ROOT
ATOM      1  C   UNL     1      -2.260  12.110  19.444  0.00  0.00    +0.000 A 
ATOM      2  C   UNL     1      -3.299  11.791  18.524  0.00  0.00    +0.000 A 
ATOM      3  C   UNL     1      -4.623  12.027  18.845  0.00  0.00    +0.000 A 
ATOM      4  N   UNL     1      -5.020  12.605  19.972  0.00  0.00    +0.000 NA
ATOM      5  C   UNL     1      -4.046  12.966  20.824  0.00  0.00    +0.000 A 
ATOM      6  C   UNL     1      -2.673  12.782  20.649  0.00  0.00    +0.000 A 
ATOM      7  C   UNL     1      -2.124  13.374  21.845  0.00  0.00    +0.000 A 
ATOM      8  C   UNL     1      -0.741  13.485  22.385  0.00  0.00    +0.000 C 
ATOM      9  N   UNL     1      -3.070  13.918  22.623  0.00  0.00    +0.000 NA
ATOM     10  N   UNL     1      -4.247  13.541  22.067  0.00  0.00    +0.000 N 
ENDROOT
BRANCH   1  15
ATOM     11  C   UNL     1       0.969  10.168  19.080  0.00  0.00    +0.000 A 
ATOM     12  C   UNL     1       1.843  11.113  18.573  0.00  0.00    +0.000 A 
ATOM     13  C   UNL     1       1.430  12.429  18.406  0.00  0.00    +0.000 A 
ATOM     14  C   UNL     1       0.102  12.805  18.647  0.00  0.00    +0.000 A 
ATOM     15  C   UNL     1      -0.821  11.847  19.153  0.00  0.00    +0.000 A 
ATOM     16  C   UNL     1      -0.324  10.556  19.421  0.00  0.00    +0.000 A 
BRANCH  11  18
ATOM     17  C   UNL     1       2.204   8.443  18.038  0.00  0.00    +0.000 C 
ATOM     18  O   UNL     1       1.466   8.900  19.165  0.00  0.00    +0.000 OA
ENDBRANCH  11  18
BRANCH  14  19
ATOM     19  O   UNL     1      -0.334  14.091  18.433  0.00  0.00    +0.000 OA
ATOM     20  C   UNL     1       0.260  15.145  19.194  0.00  0.00    +0.000 C 
ENDBRANCH  14  19
ENDBRANCH   1  15
BRANCH  10  21
ATOM     21  C   UNL     1      -5.473  13.711  22.779  0.00  0.00    +0.000 A 
ATOM     22  C   UNL     1      -5.973  15.000  23.012  0.00  0.00    +0.000 A 
ATOM     23  C   UNL     1      -7.166  15.169  23.721  0.00  0.00    +0.000 A 
ATOM     24  C   UNL     1      -7.859  14.060  24.209  0.00  0.00    +0.000 A 
ATOM     25  C   UNL     1      -7.359  12.781  24.002  0.00  0.00    +0.000 A 
ATOM     26  C   UNL     1      -6.172  12.609  23.293  0.00  0.00    +0.000 A 
ENDBRANCH  10  21
BRANCH   2  27
ATOM     27  C   UNL     1      -3.036  11.265  17.230  0.00  0.00    +0.000 C 
ATOM     28  N   UNL     1      -2.903  10.927  16.118  0.00  0.00    +0.000 NA
ENDBRANCH   2  27
BRANCH   3  29
ATOM     29  O   UNL     1      -5.680  11.696  18.044  0.00  0.00    +0.000 OA
ATOM     30  H   UNL     1      -5.482  10.920  17.498  0.00  0.00    +0.000 HD
ENDBRANCH   3  29
TORSDOF 6
ENDMDL
MODEL 4
REMARK VINA RESULT:      -6.5      4.389      7.918
REMARK  Name = 
REMARK  9 active torsions:
REMARK  status: ('A' for Active; 'I' for Inactive)
REMARK    1  A    between atoms: C_1  and  O_2
REMARK    2  A    between atoms: O_2  and  C_3
REMARK    3  A    between atoms: C_6  and  O_7
REMARK    4  A    between atoms: O_7  and  C_8
REMARK    5  A    between atoms: C_9  and  C_10
REMARK    6  A    between atoms: C_11  and  C_12
REMARK    7  A    between atoms: C_14  and  O_15
REMARK    8  A    between atoms: C_19  and  C_20
REMARK    9  A    between atoms: N_22  and  C_23
REMARK                            x       y       z     vdW  Elec       q    Type
REMARK                         _______ _______ _______ _____ _____    ______ ____
ROOT
ATOM      1  C   UNL     1       0.581  10.229  20.350  0.00  0.00    +0.000 A 
ATOM      2  C   UNL     1      -0.045  10.022  21.612  0.00  0.00    +0.000 A 
ATOM      3  C   UNL     1      -0.054   8.769  22.198  0.00  0.00    +0.000 A 
ATOM      4  N   UNL     1       0.550   7.706  21.681  0.00  0.00    +0.000 NA
ATOM      5  C   UNL     1       1.195   7.902  20.519  0.00  0.00    +0.000 A 
ATOM      6  C   UNL     1       1.281   9.097  19.802  0.00  0.00    +0.000 A 
ATOM      7  C   UNL     1       2.101   8.726  18.674  0.00  0.00    +0.000 A 
ATOM      8  C   UNL     1       2.554   9.457  17.458  0.00  0.00    +0.000 C 
ATOM      9  N   UNL     1       2.520   7.455  18.746  0.00  0.00    +0.000 NA
ATOM     10  N   UNL     1       1.850   6.919  19.795  0.00  0.00    +0.000 N 
ENDROOT
BRANCH   1  15
ATOM     11  C   UNL     1       1.877  13.588  19.180  0.00  0.00    +0.000 A 
ATOM     12  C   UNL     1       0.850  14.055  18.381  0.00  0.00    +0.000 A 
ATOM     13  C   UNL     1      -0.328  13.328  18.258  0.00  0.00    +0.000 A 
ATOM     14  C   UNL     1      -0.461  12.066  18.853  0.00  0.00    +0.000 A 
ATOM     15  C   UNL     1       0.589  11.556  19.667  0.00  0.00    +0.000 A 
ATOM     16  C   UNL     1       1.713  12.384  19.859  0.00  0.00    +0.000 A 
BRANCH  11  18
ATOM     17  C   UNL     1       3.316  15.029  17.981  0.00  0.00    +0.000 C 
ATOM     18  O   UNL     1       3.001  14.362  19.197  0.00  0.00    +0.000 OA
ENDBRANCH  11  18
BRANCH  14  19
ATOM     19  O   UNL     1      -1.598  11.310  18.694  0.00  0.00    +0.000 OA
ATOM     20  C   UNL     1      -2.358  11.472  17.494  0.00  0.00    +0.000 C 
ENDBRANCH  14  19
ENDBRANCH   1  15
BRANCH  10  21
ATOM     21  C   UNL     1       1.840   5.507  20.005  0.00  0.00    +0.000 A 
ATOM     22  C   UNL     1       1.437   4.650  18.971  0.00  0.00    +0.000 A 
ATOM     23  C   UNL     1       1.414   3.267  19.179  0.00  0.00    +0.000 A 
ATOM     24  C   UNL     1       1.780   2.735  20.415  0.00  0.00    +0.000 A 
ATOM     25  C   UNL     1       2.160   3.578  21.451  0.00  0.00    +0.000 A 
ATOM     26  C   UNL     1       2.186   4.956  21.247  0.00  0.00    +0.000 A 
ENDBRANCH  10  21
BRANCH   2  27
ATOM     27  C   UNL     1      -0.644  11.079  22.349  0.00  0.00    +0.000 C 
ATOM     28  N   UNL     1      -1.051  11.919  23.054  0.00  0.00    +0.000 NA
ENDBRANCH   2  27
BRANCH   3  29
ATOM     29  O   UNL     1      -0.681   8.475  23.376  0.00  0.00    +0.000 OA
ATOM     30  H   UNL     1      -0.248   8.911  24.126  0.00  0.00    +0.000 HD
ENDBRANCH   3  29
TORSDOF 6
ENDMDL
MODEL 5
REMARK VINA RESULT:      -6.4      1.392      2.334
REMARK  Name = 
REMARK  9 active torsions:
REMARK  status: ('A' for Active; 'I' for Inactive)
REMARK    1  A    between atoms: C_1  and  O_2
REMARK    2  A    between atoms: O_2  and  C_3
REMARK    3  A    between atoms: C_6  and  O_7
REMARK    4  A    between atoms: O_7  and  C_8
REMARK    5  A    between atoms: C_9  and  C_10
REMARK    6  A    between atoms: C_11  and  C_12
REMARK    7  A    between atoms: C_14  and  O_15
REMARK    8  A    between atoms: C_19  and  C_20
REMARK    9  A    between atoms: N_22  and  C_23
REMARK                            x       y       z     vdW  Elec       q    Type
REMARK                         _______ _______ _______ _____ _____    ______ ____
ROOT
ATOM      1  C   UNL     1       3.421   5.647  18.968  0.00  0.00    +0.000 A 
ATOM      2  C   UNL     1       3.168   4.703  20.005  0.00  0.00    +0.000 A 
ATOM      3  C   UNL     1       2.330   5.020  21.058  0.00  0.00    +0.000 A 
ATOM      4  N   UNL     1       1.667   6.166  21.158  0.00  0.00    +0.000 NA
ATOM      5  C   UNL     1       1.850   7.042  20.156  0.00  0.00    +0.000 A 
ATOM      6  C   UNL     1       2.671   6.873  19.038  0.00  0.00    +0.000 A 
ATOM      7  C   UNL     1       2.457   8.098  18.306  0.00  0.00    +0.000 A 
ATOM      8  C   UNL     1       3.047   8.657  17.058  0.00  0.00    +0.000 C 
ATOM      9  N   UNL     1       1.547   8.888  18.893  0.00  0.00    +0.000 NA
ATOM     10  N   UNL     1       1.288   8.306  20.088  0.00  0.00    +0.000 N 
ENDROOT
BRANCH   1  15
ATOM     11  C   UNL     1       6.505   5.855  16.782  0.00  0.00    +0.000 A 
ATOM     12  C   UNL     1       6.261   4.899  15.812  0.00  0.00    +0.000 A 
ATOM     13  C   UNL     1       5.054   4.211  15.795  0.00  0.00    +0.000 A 
ATOM     14  C   UNL     1       4.106   4.393  16.810  0.00  0.00    +0.000 A 
ATOM     15  C   UNL     1       4.340   5.359  17.829  0.00  0.00    +0.000 A 
ATOM     16  C   UNL     1       5.524   6.118  17.734  0.00  0.00    +0.000 A 
BRANCH  11  18
ATOM     17  C   UNL     1       7.884   7.646  17.470  0.00  0.00    +0.000 C 
ATOM     18  O   UNL     1       7.735   6.442  16.728  0.00  0.00    +0.000 OA
ENDBRANCH  11  18
BRANCH  14  19
ATOM     19  O   UNL     1       2.932   3.678  16.837  0.00  0.00    +0.000 OA
ATOM     20  C   UNL     1       3.007   2.256  16.972  0.00  0.00    +0.000 C 
ENDBRANCH  14  19
ENDBRANCH   1  15
BRANCH  10  21
ATOM     21  C   UNL     1       0.568   9.012  21.098  0.00  0.00    +0.000 A 
ATOM     22  C   UNL     1      -0.338  10.020  20.736  0.00  0.00    +0.000 A 
ATOM     23  C   UNL     1      -1.034  10.722  21.725  0.00  0.00    +0.000 A 
ATOM     24  C   UNL     1      -0.826  10.432  23.073  0.00  0.00    +0.000 A 
ATOM     25  C   UNL     1       0.084   9.450  23.442  0.00  0.00    +0.000 A 
ATOM     26  C   UNL     1       0.779   8.747  22.460  0.00  0.00    +0.000 A 
ENDBRANCH  10  21
BRANCH   2  27
ATOM     27  C   UNL     1       3.715   3.392  19.993  0.00  0.00    +0.000 C 
ATOM     28  N   UNL     1       4.208   2.338  20.108  0.00  0.00    +0.000 NA
ENDBRANCH   2  27
BRANCH   3  29
ATOM     29  O   UNL     1       2.082   4.196  22.119  0.00  0.00    +0.000 OA
ATOM     30  H   UNL     1       1.348   4.526  22.661  0.00  0.00    +0.000 HD
ENDBRANCH   3  29
TORSDOF 6
ENDMDL
MODEL 6
REMARK VINA RESULT:      -6.4      4.648     10.113
REMARK  Name = 
REMARK  9 active torsions:
REMARK  status: ('A' for Active; 'I' for Inactive)
REMARK    1  A    between atoms: C_1  and  O_2
REMARK    2  A    between atoms: O_2  and  C_3
REMARK    3  A    between atoms: C_6  and  O_7
REMARK    4  A    between atoms: O_7  and  C_8
REMARK    5  A    between atoms: C_9  and  C_10
REMARK    6  A    between atoms: C_11  and  C_12
REMARK    7  A    between atoms: C_14  and  O_15
REMARK    8  A    between atoms: C_19  and  C_20
REMARK    9  A    between atoms: N_22  and  C_23
REMARK                            x       y       z     vdW  Elec       q    Type
REMARK                         _______ _______ _______ _____ _____    ______ ____
ROOT
ATOM      1  C   UNL     1       0.115  12.535  20.639  0.00  0.00    +0.000 A 
ATOM      2  C   UNL     1       0.632  13.123  19.449  0.00  0.00    +0.000 A 
ATOM      3  C   UNL     1       1.327  12.359  18.529  0.00  0.00    +0.000 A 
ATOM      4  N   UNL     1       1.513  11.050  18.644  0.00  0.00    +0.000 NA
ATOM      5  C   UNL     1       0.978  10.472  19.733  0.00  0.00    +0.000 A 
ATOM      6  C   UNL     1       0.266  11.108  20.752  0.00  0.00    +0.000 A 
ATOM      7  C   UNL     1      -0.077  10.011  21.625  0.00  0.00    +0.000 A 
ATOM      8  C   UNL     1      -0.768   9.934  22.942  0.00  0.00    +0.000 C 
ATOM      9  N   UNL     1       0.330   8.830  21.140  0.00  0.00    +0.000 NA
ATOM     10  N   UNL     1       1.094   9.132  20.062  0.00  0.00    +0.000 N 
ENDROOT
BRANCH   1  15
ATOM     11  C   UNL     1      -2.758  13.706  22.809  0.00  0.00    +0.000 A 
ATOM     12  C   UNL     1      -2.160  14.640  23.636  0.00  0.00    +0.000 A 
ATOM     13  C   UNL     1      -0.823  14.974  23.462  0.00  0.00    +0.000 A 
ATOM     14  C   UNL     1      -0.028  14.304  22.523  0.00  0.00    +0.000 A 
ATOM     15  C   UNL     1      -0.615  13.326  21.672  0.00  0.00    +0.000 A 
ATOM     16  C   UNL     1      -2.001  13.110  21.804  0.00  0.00    +0.000 A 
BRANCH  11  18
ATOM     17  C   UNL     1      -4.302  12.749  24.321  0.00  0.00    +0.000 C 
ATOM     18  O   UNL     1      -4.063  13.425  23.092  0.00  0.00    +0.000 OA
ENDBRANCH  11  18
BRANCH  14  19
ATOM     19  O   UNL     1       1.310  14.584  22.380  0.00  0.00    +0.000 OA
ATOM     20  C   UNL     1       1.719  15.954  22.368  0.00  0.00    +0.000 C 
ENDBRANCH  14  19
ENDBRANCH   1  15
BRANCH  10  21
ATOM     21  C   UNL     1       1.916   8.136  19.454  0.00  0.00    +0.000 A 
ATOM     22  C   UNL     1       2.179   6.937  20.132  0.00  0.00    +0.000 A 
ATOM     23  C   UNL     1       2.995   5.966  19.544  0.00  0.00    +0.000 A 
ATOM     24  C   UNL     1       3.560   6.187  18.287  0.00  0.00    +0.000 A 
ATOM     25  C   UNL     1       3.322   7.381  17.618  0.00  0.00    +0.000 A 
ATOM     26  C   UNL     1       2.507   8.350  18.200  0.00  0.00    +0.000 A 
ENDBRANCH  10  21
BRANCH   2  27
ATOM     27  C   UNL     1       0.427  14.491  19.123  0.00  0.00    +0.000 C 
ATOM     28  N   UNL     1       0.231  15.635  18.985  0.00  0.00    +0.000 NA
ENDBRANCH   2  27
BRANCH   3  29
ATOM     29  O   UNL     1       1.903  12.857  17.395  0.00  0.00    +0.000 OA
ATOM     30  H   UNL     1       2.610  12.276  17.073  0.00  0.00    +0.000 HD
ENDBRANCH   3  29
TORSDOF 6
ENDMDL
MODEL 7
REMARK VINA RESULT:      -6.2      6.830      9.715
REMARK  Name = 
REMARK  9 active torsions:
REMARK  status: ('A' for Active; 'I' for Inactive)
REMARK    1  A    between atoms: C_1  and  O_2
REMARK    2  A    between atoms: O_2  and  C_3
REMARK    3  A    between atoms: C_6  and  O_7
REMARK    4  A    between atoms: O_7  and  C_8
REMARK    5  A    between atoms: C_9  and  C_10
REMARK    6  A    between atoms: C_11  and  C_12
REMARK    7  A    between atoms: C_14  and  O_15
REMARK    8  A    between atoms: C_19  and  C_20
REMARK    9  A    between atoms: N_22  and  C_23
REMARK                            x       y       z     vdW  Elec       q    Type
REMARK                         _______ _______ _______ _____ _____    ______ ____
ROOT
ATOM      1  C   UNL     1      -2.205  12.293  19.458  0.00  0.00    +0.000 A 
ATOM      2  C   UNL     1      -3.224  11.861  18.562  0.00  0.00    +0.000 A 
ATOM      3  C   UNL     1      -4.560  12.025  18.881  0.00  0.00    +0.000 A 
ATOM      4  N   UNL     1      -4.990  12.631  19.981  0.00  0.00    +0.000 NA
ATOM      5  C   UNL     1      -4.038  13.097  20.807  0.00  0.00    +0.000 A 
ATOM      6  C   UNL     1      -2.657  12.995  20.631  0.00  0.00    +0.000 A 
ATOM      7  C   UNL     1      -2.143  13.680  21.793  0.00  0.00    +0.000 A 
ATOM      8  C   UNL     1      -0.768  13.908  22.317  0.00  0.00    +0.000 C 
ATOM      9  N   UNL     1      -3.120  14.198  22.550  0.00  0.00    +0.000 NA
ATOM     10  N   UNL     1      -4.272  13.718  22.022  0.00  0.00    +0.000 N 
ENDROOT
BRANCH   1  15
ATOM     11  C   UNL     1       1.319  13.171  18.390  0.00  0.00    +0.000 A 
ATOM     12  C   UNL     1       2.019  12.006  18.645  0.00  0.00    +0.000 A 
ATOM     13  C   UNL     1       1.353  10.875  19.100  0.00  0.00    +0.000 A 
ATOM     14  C   UNL     1      -0.014  10.917  19.408  0.00  0.00    +0.000 A 
ATOM     15  C   UNL     1      -0.753  12.110  19.170  0.00  0.00    +0.000 A 
ATOM     16  C   UNL     1      -0.058  13.191  18.593  0.00  0.00    +0.000 A 
BRANCH  11  18
ATOM     17  C   UNL     1       2.052  15.374  18.829  0.00  0.00    +0.000 C 
ATOM     18  O   UNL     1       2.076  14.231  17.984  0.00  0.00    +0.000 OA
ENDBRANCH  11  18
BRANCH  14  19
ATOM     19  O   UNL     1      -0.674   9.822  19.913  0.00  0.00    +0.000 OA
ATOM     20  C   UNL     1      -0.139   9.184  21.075  0.00  0.00    +0.000 C 
ENDBRANCH  14  19
ENDBRANCH   1  15
BRANCH  10  21
ATOM     21  C   UNL     1      -5.503  13.842  22.734  0.00  0.00    +0.000 A 
ATOM     22  C   UNL     1      -6.198  15.061  22.722  0.00  0.00    +0.000 A 
ATOM     23  C   UNL     1      -7.396  15.188  23.430  0.00  0.00    +0.000 A 
ATOM     24  C   UNL     1      -7.903  14.111  24.158  0.00  0.00    +0.000 A 
ATOM     25  C   UNL     1      -7.210  12.908  24.193  0.00  0.00    +0.000 A 
ATOM     26  C   UNL     1      -6.016  12.776  23.487  0.00  0.00    +0.000 A 
ENDBRANCH  10  21
BRANCH   2  27
ATOM     27  C   UNL     1      -2.933  11.290  17.293  0.00  0.00    +0.000 C 
ATOM     28  N   UNL     1      -2.813  10.761  16.258  0.00  0.00    +0.000 NA
ENDBRANCH   2  27
BRANCH   3  29
ATOM     29  O   UNL     1      -5.596  11.587  18.104  0.00  0.00    +0.000 OA
ATOM     30  H   UNL     1      -6.334  12.215  18.111  0.00  0.00    +0.000 HD
ENDBRANCH   3  29
TORSDOF 6
ENDMDL
MODEL 8
REMARK VINA RESULT:      -6.1      4.818     10.608
REMARK  Name = 
REMARK  9 active torsions:
REMARK  status: ('A' for Active; 'I' for Inactive)
REMARK    1  A    between atoms: C_1  and  O_2
REMARK    2  A    between atoms: O_2  and  C_3
REMARK    3  A    between atoms: C_6  and  O_7
REMARK    4  A    between atoms: O_7  and  C_8
REMARK    5  A    between atoms: C_9  and  C_10
REMARK    6  A    between atoms: C_11  and  C_12
REMARK    7  A    between atoms: C_14  and  O_15
REMARK    8  A    between atoms: C_19  and  C_20
REMARK    9  A    between atoms: N_22  and  C_23
REMARK                            x       y       z     vdW  Elec       q    Type
REMARK                         _______ _______ _______ _____ _____    ______ ____
ROOT
ATOM      1  C   UNL     1      -0.470  12.596  20.931  0.00  0.00    +0.000 A 
ATOM      2  C   UNL     1      -0.091  13.260  19.730  0.00  0.00    +0.000 A 
ATOM      3  C   UNL     1       0.609  12.588  18.743  0.00  0.00    +0.000 A 
ATOM      4  N   UNL     1       0.923  11.300  18.805  0.00  0.00    +0.000 NA
ATOM      5  C   UNL     1       0.519  10.647  19.907  0.00  0.00    +0.000 A 
ATOM      6  C   UNL     1      -0.179  11.187  20.989  0.00  0.00    +0.000 A 
ATOM      7  C   UNL     1      -0.361  10.041  21.848  0.00  0.00    +0.000 A 
ATOM      8  C   UNL     1      -0.951   9.865  23.203  0.00  0.00    +0.000 C 
ATOM      9  N   UNL     1       0.121   8.916  21.301  0.00  0.00    +0.000 NA
ATOM     10  N   UNL     1       0.780   9.316  20.186  0.00  0.00    +0.000 N 
ENDROOT
BRANCH   1  15
ATOM     11  C   UNL     1      -1.029  14.825  23.939  0.00  0.00    +0.000 A 
ATOM     12  C   UNL     1      -2.398  14.758  24.124  0.00  0.00    +0.000 A 
ATOM     13  C   UNL     1      -3.172  13.926  23.324  0.00  0.00    +0.000 A 
ATOM     14  C   UNL     1      -2.604  13.221  22.255  0.00  0.00    +0.000 A 
ATOM     15  C   UNL     1      -1.199  13.287  22.033  0.00  0.00    +0.000 A 
ATOM     16  C   UNL     1      -0.441  14.048  22.945  0.00  0.00    +0.000 A 
BRANCH  11  18
ATOM     17  C   UNL     1      -0.960  15.927  26.029  0.00  0.00    +0.000 C 
ATOM     18  O   UNL     1      -0.372  15.702  24.753  0.00  0.00    +0.000 OA
ENDBRANCH  11  18
BRANCH  14  19
ATOM     19  O   UNL     1      -3.367  12.439  21.420  0.00  0.00    +0.000 OA
ATOM     20  C   UNL     1      -4.175  13.086  20.434  0.00  0.00    +0.000 C 
ENDBRANCH  14  19
ENDBRANCH   1  15
BRANCH  10  21
ATOM     21  C   UNL     1       1.648   8.418  19.495  0.00  0.00    +0.000 A 
ATOM     22  C   UNL     1       2.060   7.228  20.114  0.00  0.00    +0.000 A 
ATOM     23  C   UNL     1       2.921   6.355  19.444  0.00  0.00    +0.000 A 
ATOM     24  C   UNL     1       3.384   6.664  18.165  0.00  0.00    +0.000 A 
ATOM     25  C   UNL     1       2.998   7.849  17.553  0.00  0.00    +0.000 A 
ATOM     26  C   UNL     1       2.138   8.722  18.217  0.00  0.00    +0.000 A 
ENDBRANCH  10  21
BRANCH   2  27
ATOM     27  C   UNL     1      -0.443  14.610  19.460  0.00  0.00    +0.000 C 
ATOM     28  N   UNL     1      -0.611  15.734  19.184  0.00  0.00    +0.000 NA
ENDBRANCH   2  27
BRANCH   3  29
ATOM     29  O   UNL     1       1.060  13.167  17.590  0.00  0.00    +0.000 OA
ATOM     30  H   UNL     1       2.028  13.145  17.538  0.00  0.00    +0.000 HD
ENDBRANCH   3  29
TORSDOF 6
ENDMDL
MODEL 9
REMARK VINA RESULT:      -6.0      5.081     10.553
REMARK  Name = 
REMARK  9 active torsions:
REMARK  status: ('A' for Active; 'I' for Inactive)
REMARK    1  A    between atoms: C_1  and  O_2
REMARK    2  A    between atoms: O_2  and  C_3
REMARK    3  A    between atoms: C_6  and  O_7
REMARK    4  A    between atoms: O_7  and  C_8
REMARK    5  A    between atoms: C_9  and  C_10
REMARK    6  A    between atoms: C_11  and  C_12
REMARK    7  A    between atoms: C_14  and  O_15
REMARK    8  A    between atoms: C_19  and  C_20
REMARK    9  A    between atoms: N_22  and  C_23
REMARK                            x       y       z     vdW  Elec       q    Type
REMARK                         _______ _______ _______ _____ _____    ______ ____
ROOT
ATOM      1  C   UNL     1       0.210  13.156  20.499  0.00  0.00    +0.000 A 
ATOM      2  C   UNL     1       0.869  13.628  19.328  0.00  0.00    +0.000 A 
ATOM      3  C   UNL     1       1.537  12.750  18.492  0.00  0.00    +0.000 A 
ATOM      4  N   UNL     1       1.568  11.436  18.672  0.00  0.00    +0.000 NA
ATOM      5  C   UNL     1       0.900  10.971  19.741  0.00  0.00    +0.000 A 
ATOM      6  C   UNL     1       0.195  11.728  20.679  0.00  0.00    +0.000 A 
ATOM      7  C   UNL     1      -0.327  10.717  21.568  0.00  0.00    +0.000 A 
ATOM      8  C   UNL     1      -1.110  10.776  22.832  0.00  0.00    +0.000 C 
ATOM      9  N   UNL     1      -0.020   9.477  21.161  0.00  0.00    +0.000 NA
ATOM     10  N   UNL     1       0.844   9.643  20.131  0.00  0.00    +0.000 N 
ENDROOT
BRANCH   1  15
ATOM     11  C   UNL     1      -0.266  15.651  23.306  0.00  0.00    +0.000 A 
ATOM     12  C   UNL     1      -1.624  15.911  23.261  0.00  0.00    +0.000 A 
ATOM     13  C   UNL     1      -2.439  15.226  22.368  0.00  0.00    +0.000 A 
ATOM     14  C   UNL     1      -1.895  14.339  21.430  0.00  0.00    +0.000 A 
ATOM     15  C   UNL     1      -0.498  14.068  21.443  0.00  0.00    +0.000 A 
ATOM     16  C   UNL     1       0.268  14.695  22.447  0.00  0.00    +0.000 A 
BRANCH  11  18
ATOM     17  C   UNL     1      -0.305  17.000  25.245  0.00  0.00    +0.000 C 
ATOM     18  O   UNL     1       0.444  16.408  24.191  0.00  0.00    +0.000 OA
ENDBRANCH  11  18
BRANCH  14  19
ATOM     19  O   UNL     1      -2.682  13.698  20.503  0.00  0.00    +0.000 OA
ATOM     20  C   UNL     1      -3.739  12.858  20.975  0.00  0.00    +0.000 C 
ENDBRANCH  14  19
ENDBRANCH   1  15
BRANCH  10  21
ATOM     21  C   UNL     1       1.591   8.537  19.625  0.00  0.00    +0.000 A 
ATOM     22  C   UNL     1       2.059   8.556  18.303  0.00  0.00    +0.000 A 
ATOM     23  C   UNL     1       2.778   7.467  17.801  0.00  0.00    +0.000 A 
ATOM     24  C   UNL     1       3.026   6.355  18.606  0.00  0.00    +0.000 A 
ATOM     25  C   UNL     1       2.548   6.319  19.910  0.00  0.00    +0.000 A 
ATOM     26  C   UNL     1       1.832   7.403  20.415  0.00  0.00    +0.000 A 
ENDBRANCH  10  21
BRANCH   2  27
ATOM     27  C   UNL     1       0.839  14.992  18.933  0.00  0.00    +0.000 C 
ATOM     28  N   UNL     1       0.948  16.116  18.627  0.00  0.00    +0.000 NA
ENDBRANCH   2  27
BRANCH   3  29
ATOM     29  O   UNL     1       2.241  13.129  17.384  0.00  0.00    +0.000 OA
ATOM     30  H   UNL     1       2.131  12.493  16.660  0.00  0.00    +0.000 HD
ENDBRANCH   3  29
TORSDOF 6
ENDMDL
