MODEL 1
REMARK VINA RESULT:      -7.1      0.000      0.000
REMARK  Name = 
REMARK  4 active torsions:
REMARK  status: ('A' for Active; 'I' for Inactive)
REMARK    1  A    between atoms: C_1  and  C_2
REMARK    2  A    between atoms: C_2  and  O_3
REMARK    3  A    between atoms: O_3  and  C_4
REMARK    4  A    between atoms: C_4  and  C_6
REMARK                            x       y       z     vdW  Elec       q    Type
REMARK                         _______ _______ _______ _____ _____    ______ ____
ROOT
ATOM      1  C   UNL     1       6.403   4.396  15.945  0.00  0.00    +0.000 C 
ATOM      2  O   UNL     1       7.132   4.293  16.917  0.00  0.00    +0.000 OA
ATOM      3  N   UNL     1       5.029   4.304  15.892  0.00  0.00    +0.000 N 
ATOM      4  C   UNL     1       4.217   4.070  16.975  0.00  0.00    +0.000 A 
ATOM      5  N   UNL     1       2.980   3.657  16.849  0.00  0.00    +0.000 NA
ATOM      6  C   UNL     1       2.453   3.398  18.108  0.00  0.00    +0.000 A 
ATOM      7  C   UNL     1       1.191   2.833  18.388  0.00  0.00    +0.000 A 
ATOM      8  C   UNL     1       0.818   2.593  19.717  0.00  0.00    +0.000 A 
ATOM      9  C   UNL     1       1.674   2.930  20.761  0.00  0.00    +0.000 A 
ATOM     10 CL   UNL     1       1.203   2.615  22.386  0.00  0.00    +0.000 Cl
ATOM     11  C   UNL     1       2.917   3.512  20.517  0.00  0.00    +0.000 A 
ATOM     12  C   UNL     1       3.288   3.720  19.180  0.00  0.00    +0.000 A 
ATOM     13  S   UNL     1       4.753   4.359  18.565  0.00  0.00    +0.000 S 
ATOM     14  H   UNL     1       4.582   4.240  14.983  0.00  0.00    +0.000 HD
ENDROOT
BRANCH   1  15
ATOM     15  C   UNL     1       7.029   4.601  14.553  0.00  0.00    +0.000 C 
ATOM     16  O   UNL     1       7.718   5.575  14.293  0.00  0.00    +0.000 OA
BRANCH  15  17
ATOM     17  O   UNL     1       6.667   3.596  13.732  0.00  0.00    +0.000 OA
BRANCH  17  19
ATOM     18  C   UNL     1       5.194   3.234  11.848  0.00  0.00    +0.000 C 
ATOM     19  C   UNL     1       6.439   3.933  12.361  0.00  0.00    +0.000 C 
ENDBRANCH  17  19
ENDBRANCH  15  17
ENDBRANCH   1  15
TORSDOF 3
ENDMDL
MODEL 2
REMARK VINA RESULT:      -6.3      1.065      1.099
REMARK  Name = 
REMARK  4 active torsions:
REMARK  status: ('A' for Active; 'I' for Inactive)
REMARK    1  A    between atoms: C_1  and  C_2
REMARK    2  A    between atoms: C_2  and  O_3
REMARK    3  A    between atoms: O_3  and  C_4
REMARK    4  A    between atoms: C_4  and  C_6
REMARK                            x       y       z     vdW  Elec       q    Type
REMARK                         _______ _______ _______ _____ _____    ______ ____
ROOT
ATOM      1  C   UNL     1       6.741   5.124  15.190  0.00  0.00    +0.000 C 
ATOM      2  O   UNL     1       7.350   5.620  16.124  0.00  0.00    +0.000 OA
ATOM      3  N   UNL     1       5.534   4.460  15.212  0.00  0.00    +0.000 N 
ATOM      4  C   UNL     1       4.784   4.235  16.339  0.00  0.00    +0.000 A 
ATOM      5  N   UNL     1       3.838   3.328  16.385  0.00  0.00    +0.000 NA
ATOM      6  C   UNL     1       3.339   3.251  17.679  0.00  0.00    +0.000 A 
ATOM      7  C   UNL     1       2.393   2.321  18.157  0.00  0.00    +0.000 A 
ATOM      8  C   UNL     1       2.019   2.344  19.508  0.00  0.00    +0.000 A 
ATOM      9  C   UNL     1       2.557   3.293  20.371  0.00  0.00    +0.000 A 
ATOM     10 CL   UNL     1       2.095   3.297  22.030  0.00  0.00    +0.000 Cl
ATOM     11  C   UNL     1       3.476   4.240  19.922  0.00  0.00    +0.000 A 
ATOM     12  C   UNL     1       3.861   4.186  18.575  0.00  0.00    +0.000 A 
ATOM     13  S   UNL     1       4.996   5.167  17.748  0.00  0.00    +0.000 S 
ATOM     14  H   UNL     1       5.244   3.955  14.380  0.00  0.00    +0.000 HD
ENDROOT
BRANCH   1  15
ATOM     15  C   UNL     1       7.365   5.158  13.782  0.00  0.00    +0.000 C 
ATOM     16  O   UNL     1       8.471   5.634  13.578  0.00  0.00    +0.000 OA
BRANCH  15  17
ATOM     17  O   UNL     1       6.506   4.634  12.886  0.00  0.00    +0.000 OA
BRANCH  17  19
ATOM     18  C   UNL     1       5.849   2.596  11.760  0.00  0.00    +0.000 C 
ATOM     19  C   UNL     1       6.986   3.542  12.097  0.00  0.00    +0.000 C 
ENDBRANCH  17  19
ENDBRANCH  15  17
ENDBRANCH   1  15
TORSDOF 3
ENDMDL
MODEL 3
REMARK VINA RESULT:      -6.2      3.777      4.069
REMARK  Name = 
REMARK  4 active torsions:
REMARK  status: ('A' for Active; 'I' for Inactive)
REMARK    1  A    between atoms: C_1  and  C_2
REMARK    2  A    between atoms: C_2  and  O_3
REMARK    3  A    between atoms: O_3  and  C_4
REMARK    4  A    between atoms: C_4  and  C_6
REMARK                            x       y       z     vdW  Elec       q    Type
REMARK                         _______ _______ _______ _____ _____    ______ ____
ROOT
ATOM      1  C   UNL     1       5.781   5.672  16.697  0.00  0.00    +0.000 C 
ATOM      2  O   UNL     1       5.934   6.772  16.194  0.00  0.00    +0.000 OA
ATOM      3  N   UNL     1       4.842   5.279  17.627  0.00  0.00    +0.000 N 
ATOM      4  C   UNL     1       3.882   6.099  18.165  0.00  0.00    +0.000 A 
ATOM      5  N   UNL     1       3.240   5.800  19.268  0.00  0.00    +0.000 NA
ATOM      6  C   UNL     1       2.424   6.864  19.626  0.00  0.00    +0.000 A 
ATOM      7  C   UNL     1       1.660   6.974  20.807  0.00  0.00    +0.000 A 
ATOM      8  C   UNL     1       0.914   8.137  21.046  0.00  0.00    +0.000 A 
ATOM      9  C   UNL     1       0.904   9.170  20.115  0.00  0.00    +0.000 A 
ATOM     10 CL   UNL     1      -0.008  10.595  20.432  0.00  0.00    +0.000 Cl
ATOM     11  C   UNL     1       1.629   9.080  18.927  0.00  0.00    +0.000 A 
ATOM     12  C   UNL     1       2.392   7.923  18.716  0.00  0.00    +0.000 A 
ATOM     13  S   UNL     1       3.416   7.545  17.396  0.00  0.00    +0.000 S 
ATOM     14  H   UNL     1       4.954   4.375  18.076  0.00  0.00    +0.000 HD
ENDROOT
BRANCH   1  15
ATOM     15  C   UNL     1       6.758   4.537  16.338  0.00  0.00    +0.000 C 
ATOM     16  O   UNL     1       7.893   4.496  16.788  0.00  0.00    +0.000 OA
BRANCH  15  17
ATOM     17  O   UNL     1       6.176   3.685  15.472  0.00  0.00    +0.000 OA
BRANCH  17  19
ATOM     18  C   UNL     1       6.218   3.613  13.054  0.00  0.00    +0.000 C 
ATOM     19  C   UNL     1       5.612   4.255  14.287  0.00  0.00    +0.000 C 
ENDBRANCH  17  19
ENDBRANCH  15  17
ENDBRANCH   1  15
TORSDOF 3
ENDMDL
MODEL 4
REMARK VINA RESULT:      -6.2      2.334      2.869
REMARK  Name = 
REMARK  4 active torsions:
REMARK  status: ('A' for Active; 'I' for Inactive)
REMARK    1  A    between atoms: C_1  and  C_2
REMARK    2  A    between atoms: C_2  and  O_3
REMARK    3  A    between atoms: O_3  and  C_4
REMARK    4  A    between atoms: C_4  and  C_6
REMARK                            x       y       z     vdW  Elec       q    Type
REMARK                         _______ _______ _______ _____ _____    ______ ____
ROOT
ATOM      1  C   UNL     1       6.617   4.583  14.294  0.00  0.00    +0.000 C 
ATOM      2  O   UNL     1       6.383   3.454  14.689  0.00  0.00    +0.000 OA
ATOM      3  N   UNL     1       6.207   5.782  14.836  0.00  0.00    +0.000 N 
ATOM      4  C   UNL     1       5.431   5.908  15.961  0.00  0.00    +0.000 A 
ATOM      5  N   UNL     1       4.787   7.013  16.251  0.00  0.00    +0.000 NA
ATOM      6  C   UNL     1       4.000   6.803  17.376  0.00  0.00    +0.000 A 
ATOM      7  C   UNL     1       3.077   7.712  17.935  0.00  0.00    +0.000 A 
ATOM      8  C   UNL     1       2.323   7.335  19.055  0.00  0.00    +0.000 A 
ATOM      9  C   UNL     1       2.497   6.081  19.631  0.00  0.00    +0.000 A 
ATOM     10 CL   UNL     1       1.552   5.633  20.998  0.00  0.00    +0.000 Cl
ATOM     11  C   UNL     1       3.419   5.170  19.117  0.00  0.00    +0.000 A 
ATOM     12  C   UNL     1       4.145   5.552  17.979  0.00  0.00    +0.000 A 
ATOM     13  S   UNL     1       5.299   4.645  17.095  0.00  0.00    +0.000 S 
ATOM     14  H   UNL     1       6.338   6.630  14.293  0.00  0.00    +0.000 HD
ENDROOT
BRANCH   1  15
ATOM     15  C   UNL     1       7.424   4.775  12.996  0.00  0.00    +0.000 C 
ATOM     16  O   UNL     1       8.169   5.729  12.835  0.00  0.00    +0.000 OA
BRANCH  15  17
ATOM     17  O   UNL     1       7.143   3.783  12.129  0.00  0.00    +0.000 OA
BRANCH  17  19
ATOM     18  C   UNL     1       5.567   2.053  11.514  0.00  0.00    +0.000 C 
ATOM     19  C   UNL     1       5.761   3.512  11.884  0.00  0.00    +0.000 C 
ENDBRANCH  17  19
ENDBRANCH  15  17
ENDBRANCH   1  15
TORSDOF 3
ENDMDL
MODEL 5
REMARK VINA RESULT:      -6.1      1.350      1.540
REMARK  Name = 
REMARK  4 active torsions:
REMARK  status: ('A' for Active; 'I' for Inactive)
REMARK    1  A    between atoms: C_1  and  C_2
REMARK    2  A    between atoms: C_2  and  O_3
REMARK    3  A    between atoms: O_3  and  C_4
REMARK    4  A    between atoms: C_4  and  C_6
REMARK                            x       y       z     vdW  Elec       q    Type
REMARK                         _______ _______ _______ _____ _____    ______ ____
ROOT
ATOM      1  C   UNL     1       6.119   4.278  15.435  0.00  0.00    +0.000 C 
ATOM      2  O   UNL     1       6.079   3.062  15.528  0.00  0.00    +0.000 OA
ATOM      3  N   UNL     1       5.540   5.218  16.260  0.00  0.00    +0.000 N 
ATOM      4  C   UNL     1       4.788   4.929  17.371  0.00  0.00    +0.000 A 
ATOM      5  N   UNL     1       3.986   5.806  17.925  0.00  0.00    +0.000 NA
ATOM      6  C   UNL     1       3.277   5.195  18.950  0.00  0.00    +0.000 A 
ATOM      7  C   UNL     1       2.238   5.773  19.711  0.00  0.00    +0.000 A 
ATOM      8  C   UNL     1       1.587   5.009  20.689  0.00  0.00    +0.000 A 
ATOM      9  C   UNL     1       1.975   3.695  20.930  0.00  0.00    +0.000 A 
ATOM     10 CL   UNL     1       1.155   2.770  22.128  0.00  0.00    +0.000 Cl
ATOM     11  C   UNL     1       3.014   3.104  20.212  0.00  0.00    +0.000 A 
ATOM     12  C   UNL     1       3.637   3.872  19.217  0.00  0.00    +0.000 A 
ATOM     13  S   UNL     1       4.892   3.417  18.145  0.00  0.00    +0.000 S 
ATOM     14  H   UNL     1       5.520   6.186  15.952  0.00  0.00    +0.000 HD
ENDROOT
BRANCH   1  15
ATOM     15  C   UNL     1       6.846   4.918  14.238  0.00  0.00    +0.000 C 
ATOM     16  O   UNL     1       7.858   5.587  14.381  0.00  0.00    +0.000 OA
BRANCH  15  17
ATOM     17  O   UNL     1       6.182   4.647  13.098  0.00  0.00    +0.000 OA
BRANCH  17  19
ATOM     18  C   UNL     1       5.697   2.663  11.801  0.00  0.00    +0.000 C 
ATOM     19  C   UNL     1       6.755   3.659  12.237  0.00  0.00    +0.000 C 
ENDBRANCH  17  19
ENDBRANCH  15  17
ENDBRANCH   1  15
TORSDOF 3
ENDMDL
MODEL 6
REMARK VINA RESULT:      -6.1      2.543      2.731
REMARK  Name = 
REMARK  4 active torsions:
REMARK  status: ('A' for Active; 'I' for Inactive)
REMARK    1  A    between atoms: C_1  and  C_2
REMARK    2  A    between atoms: C_2  and  O_3
REMARK    3  A    between atoms: O_3  and  C_4
REMARK    4  A    between atoms: C_4  and  C_6
REMARK                            x       y       z     vdW  Elec       q    Type
REMARK                         _______ _______ _______ _____ _____    ______ ____
ROOT
ATOM      1  C   UNL     1       5.976   5.707  15.748  0.00  0.00    +0.000 C 
ATOM      2  O   UNL     1       6.245   6.884  15.918  0.00  0.00    +0.000 OA
ATOM      3  N   UNL     1       4.993   4.957  16.355  0.00  0.00    +0.000 N 
ATOM      4  C   UNL     1       4.114   5.432  17.297  0.00  0.00    +0.000 A 
ATOM      5  N   UNL     1       3.434   4.638  18.088  0.00  0.00    +0.000 NA
ATOM      6  C   UNL     1       2.726   5.403  19.006  0.00  0.00    +0.000 A 
ATOM      7  C   UNL     1       1.965   4.918  20.090  0.00  0.00    +0.000 A 
ATOM      8  C   UNL     1       1.337   5.823  20.958  0.00  0.00    +0.000 A 
ATOM      9  C   UNL     1       1.442   7.194  20.741  0.00  0.00    +0.000 A 
ATOM     10 CL   UNL     1       0.675   8.289  21.825  0.00  0.00    +0.000 Cl
ATOM     11  C   UNL     1       2.166   7.702  19.664  0.00  0.00    +0.000 A 
ATOM     12  C   UNL     1       2.811   6.785  18.821  0.00  0.00    +0.000 A 
ATOM     13  S   UNL     1       3.806   7.098  17.463  0.00  0.00    +0.000 S 
ATOM     14  H   UNL     1       5.007   3.949  16.234  0.00  0.00    +0.000 HD
ENDROOT
BRANCH   1  15
ATOM     15  C   UNL     1       6.837   4.870  14.783  0.00  0.00    +0.000 C 
ATOM     16  O   UNL     1       7.943   5.240  14.420  0.00  0.00    +0.000 OA
BRANCH  15  17
ATOM     17  O   UNL     1       6.172   3.757  14.420  0.00  0.00    +0.000 OA
BRANCH  17  19
ATOM     18  C   UNL     1       6.513   3.237  12.082  0.00  0.00    +0.000 C 
ATOM     19  C   UNL     1       5.554   3.767  13.130  0.00  0.00    +0.000 C 
ENDBRANCH  17  19
ENDBRANCH  15  17
ENDBRANCH   1  15
TORSDOF 3
ENDMDL
MODEL 7
REMARK VINA RESULT:      -6.1      5.410      6.374
REMARK  Name = 
REMARK  4 active torsions:
REMARK  status: ('A' for Active; 'I' for Inactive)
REMARK    1  A    between atoms: C_1  and  C_2
REMARK    2  A    between atoms: C_2  and  O_3
REMARK    3  A    between atoms: O_3  and  C_4
REMARK    4  A    between atoms: C_4  and  C_6
REMARK                            x       y       z     vdW  Elec       q    Type
REMARK                         _______ _______ _______ _____ _____    ______ ____
ROOT
ATOM      1  C   UNL     1       4.254   5.698  18.790  0.00  0.00    +0.000 C 
ATOM      2  O   UNL     1       4.657   6.348  17.840  0.00  0.00    +0.000 OA
ATOM      3  N   UNL     1       3.224   5.996  19.655  0.00  0.00    +0.000 N 
ATOM      4  C   UNL     1       2.447   7.127  19.589  0.00  0.00    +0.000 A 
ATOM      5  N   UNL     1       1.722   7.541  20.599  0.00  0.00    +0.000 NA
ATOM      6  C   UNL     1       1.144   8.762  20.278  0.00  0.00    +0.000 A 
ATOM      7  C   UNL     1       0.386   9.583  21.139  0.00  0.00    +0.000 A 
ATOM      8  C   UNL     1      -0.098  10.815  20.676  0.00  0.00    +0.000 A 
ATOM      9  C   UNL     1       0.145  11.219  19.367  0.00  0.00    +0.000 A 
ATOM     10 CL   UNL     1      -0.447  12.741  18.822  0.00  0.00    +0.000 Cl
ATOM     11  C   UNL     1       0.870  10.419  18.485  0.00  0.00    +0.000 A 
ATOM     12  C   UNL     1       1.371   9.203  18.972  0.00  0.00    +0.000 A 
ATOM     13  S   UNL     1       2.330   8.040  18.158  0.00  0.00    +0.000 S 
ATOM     14  H   UNL     1       3.123   5.440  20.499  0.00  0.00    +0.000 HD
ENDROOT
BRANCH   1  15
ATOM     15  C   UNL     1       4.973   4.389  19.166  0.00  0.00    +0.000 C 
ATOM     16  O   UNL     1       6.178   4.348  19.361  0.00  0.00    +0.000 OA
BRANCH  15  17
ATOM     17  O   UNL     1       4.090   3.372  19.202  0.00  0.00    +0.000 OA
BRANCH  17  19
ATOM     18  C   UNL     1       2.255   2.551  17.856  0.00  0.00    +0.000 C 
ATOM     19  C   UNL     1       3.754   2.767  17.951  0.00  0.00    +0.000 C 
ENDBRANCH  17  19
ENDBRANCH  15  17
ENDBRANCH   1  15
TORSDOF 3
ENDMDL
MODEL 8
REMARK VINA RESULT:      -6.1      3.561      3.748
REMARK  Name = 
REMARK  4 active torsions:
REMARK  status: ('A' for Active; 'I' for Inactive)
REMARK    1  A    between atoms: C_1  and  C_2
REMARK    2  A    between atoms: C_2  and  O_3
REMARK    3  A    between atoms: O_3  and  C_4
REMARK    4  A    between atoms: C_4  and  C_6
REMARK                            x       y       z     vdW  Elec       q    Type
REMARK                         _______ _______ _______ _____ _____    ______ ____
ROOT
ATOM      1  C   UNL     1       5.385   4.991  16.196  0.00  0.00    +0.000 C 
ATOM      2  O   UNL     1       5.037   4.077  16.925  0.00  0.00    +0.000 OA
ATOM      3  N   UNL     1       5.024   6.319  16.256  0.00  0.00    +0.000 N 
ATOM      4  C   UNL     1       4.172   6.858  17.189  0.00  0.00    +0.000 A 
ATOM      5  N   UNL     1       3.591   8.021  17.021  0.00  0.00    +0.000 NA
ATOM      6  C   UNL     1       2.703   8.245  18.065  0.00  0.00    +0.000 A 
ATOM      7  C   UNL     1       1.809   9.329  18.187  0.00  0.00    +0.000 A 
ATOM      8  C   UNL     1       0.941   9.393  19.287  0.00  0.00    +0.000 A 
ATOM      9  C   UNL     1       0.975   8.407  20.268  0.00  0.00    +0.000 A 
ATOM     10 CL   UNL     1      -0.107   8.497  21.604  0.00  0.00    +0.000 Cl
ATOM     11  C   UNL     1       1.865   7.337  20.188  0.00  0.00    +0.000 A 
ATOM     12  C   UNL     1       2.706   7.272  19.068  0.00  0.00    +0.000 A 
ATOM     13  S   UNL     1       3.856   6.069  18.663  0.00  0.00    +0.000 S 
ATOM     14  H   UNL     1       5.261   6.923  15.475  0.00  0.00    +0.000 HD
ENDROOT
BRANCH   1  15
ATOM     15  C   UNL     1       6.305   4.690  14.998  0.00  0.00    +0.000 C 
ATOM     16  O   UNL     1       7.354   5.290  14.824  0.00  0.00    +0.000 OA
BRANCH  15  17
ATOM     17  O   UNL     1       5.755   3.735  14.223  0.00  0.00    +0.000 OA
BRANCH  17  19
ATOM     18  C   UNL     1       5.135   3.225  11.941  0.00  0.00    +0.000 C 
ATOM     19  C   UNL     1       6.252   3.624  12.887  0.00  0.00    +0.000 C 
ENDBRANCH  17  19
ENDBRANCH  15  17
ENDBRANCH   1  15
TORSDOF 3
ENDMDL
MODEL 9
REMARK VINA RESULT:      -6.1      5.590      6.977
REMARK  Name = 
REMARK  4 active torsions:
REMARK  status: ('A' for Active; 'I' for Inactive)
REMARK    1  A    between atoms: C_1  and  C_2
REMARK    2  A    between atoms: C_2  and  O_3
REMARK    3  A    between atoms: O_3  and  C_4
REMARK    4  A    between atoms: C_4  and  C_6
REMARK                            x       y       z     vdW  Elec       q    Type
REMARK                         _______ _______ _______ _____ _____    ______ ____
ROOT
ATOM      1  C   UNL     1       3.914   5.652  18.890  0.00  0.00    +0.000 C 
ATOM      2  O   UNL     1       4.384   6.262  17.944  0.00  0.00    +0.000 OA
ATOM      3  N   UNL     1       2.910   6.045  19.748  0.00  0.00    +0.000 N 
ATOM      4  C   UNL     1       2.243   7.242  19.678  0.00  0.00    +0.000 A 
ATOM      5  N   UNL     1       1.552   7.722  20.683  0.00  0.00    +0.000 NA
ATOM      6  C   UNL     1       1.094   8.992  20.359  0.00  0.00    +0.000 A 
ATOM      7  C   UNL     1       0.409   9.880  21.216  0.00  0.00    +0.000 A 
ATOM      8  C   UNL     1       0.046  11.152  20.751  0.00  0.00    +0.000 A 
ATOM      9  C   UNL     1       0.335  11.533  19.445  0.00  0.00    +0.000 A 
ATOM     10 CL   UNL     1      -0.107  13.104  18.897  0.00  0.00    +0.000 Cl
ATOM     11  C   UNL     1       0.989  10.669  18.567  0.00  0.00    +0.000 A 
ATOM     12  C   UNL     1       1.370   9.411  19.056  0.00  0.00    +0.000 A 
ATOM     13  S   UNL     1       2.222   8.164  18.247  0.00  0.00    +0.000 S 
ATOM     14  H   UNL     1       2.751   5.499  20.590  0.00  0.00    +0.000 HD
ENDROOT
BRANCH   1  15
ATOM     15  C   UNL     1       4.505   4.281  19.270  0.00  0.00    +0.000 C 
ATOM     16  O   UNL     1       5.709   4.103  19.370  0.00  0.00    +0.000 OA
BRANCH  15  17
ATOM     17  O   UNL     1       3.515   3.380  19.423  0.00  0.00    +0.000 OA
BRANCH  17  19
ATOM     18  C   UNL     1       2.375   2.822  21.482  0.00  0.00    +0.000 C 
ATOM     19  C   UNL     1       3.571   2.553  20.588  0.00  0.00    +0.000 C 
ENDBRANCH  17  19
ENDBRANCH  15  17
ENDBRANCH   1  15
TORSDOF 3
ENDMDL
