MODEL 1
REMARK VINA RESULT:      -7.3      0.000      0.000
REMARK  Name = 
REMARK  9 active torsions:
REMARK  status: ('A' for Active; 'I' for Inactive)
REMARK    1  A    between atoms: C_1  and  O_2
REMARK    2  A    between atoms: O_2  and  C_3
REMARK    3  A    between atoms: C_8  and  C_9
REMARK    4  A    between atoms: C_9  and  C_10
REMARK    5  A    between atoms: C_10  and  N_11
REMARK    6  A    between atoms: C_14  and  C_15
REMARK    7  A    between atoms: C_15  and  C_16
REMARK    8  A    between atoms: C_16  and  C_17
REMARK    9  A    between atoms: N_19  and  O_20
REMARK                            x       y       z     vdW  Elec       q    Type
REMARK                         _______ _______ _______ _____ _____    ______ ____
ROOT
ATOM      1  N   UNL     1       5.985   4.616  17.308  0.00  0.00    +0.000 N 
ATOM      2  C   UNL     1       7.315   4.888  16.833  0.00  0.00    +0.000 C 
ATOM      3  C   UNL     1       7.127   4.765  15.359  0.00  0.00    +0.000 C 
ATOM      4  C   UNL     1       5.892   4.371  15.021  0.00  0.00    +0.000 C 
ATOM      5  C   UNL     1       5.152   4.200  16.288  0.00  0.00    +0.000 C 
ATOM      6  O   UNL     1       4.017   3.759  16.371  0.00  0.00    +0.000 OA
ENDROOT
BRANCH   1   7
ATOM      7  C   UNL     1       5.694   4.323  18.704  0.00  0.00    +0.000 C 
BRANCH   7   8
ATOM      8  C   UNL     1       4.823   5.368  19.403  0.00  0.00    +0.000 C 
BRANCH   8  14
ATOM      9  C   UNL     1       2.351   5.579  20.023  0.00  0.00    +0.000 A 
ATOM     10  C   UNL     1       1.123   4.977  20.324  0.00  0.00    +0.000 A 
ATOM     11  C   UNL     1       1.041   3.598  20.521  0.00  0.00    +0.000 A 
ATOM     12  C   UNL     1       2.178   2.811  20.377  0.00  0.00    +0.000 A 
ATOM     13  C   UNL     1       3.384   3.392  19.988  0.00  0.00    +0.000 A 
ATOM     14  C   UNL     1       3.482   4.780  19.789  0.00  0.00    +0.000 A 
BRANCH   9  16
ATOM     15  C   UNL     1       2.257   7.498  18.644  0.00  0.00    +0.000 C 
ATOM     16  O   UNL     1       2.509   6.937  19.935  0.00  0.00    +0.000 OA
ENDBRANCH   9  16
ENDBRANCH   8  14
ENDBRANCH   7   8
ENDBRANCH   1   7
BRANCH   4  17
ATOM     17  C   UNL     1       5.314   4.062  13.685  0.00  0.00    +0.000 C 
BRANCH  17  18
ATOM     18  C   UNL     1       6.369   3.644  12.663  0.00  0.00    +0.000 C 
BRANCH  18  19
ATOM     19  C   UNL     1       5.855   2.545  11.758  0.00  0.00    +0.000 C 
ATOM     20  O   UNL     1       4.709   2.482  11.319  0.00  0.00    +0.000 OA
ATOM     21  N   UNL     1       6.800   1.591  11.462  0.00  0.00    +0.000 N 
ATOM     22  H   UNL     1       7.652   1.461  11.995  0.00  0.00    +0.000 HD
BRANCH  21  23
ATOM     23  O   UNL     1       6.343   0.487  10.706  0.00  0.00    +0.000 OA
ATOM     24  H   UNL     1       6.237   0.878   9.809  0.00  0.00    +0.000 HD
ENDBRANCH  21  23
ENDBRANCH  18  19
ENDBRANCH  17  18
ENDBRANCH   4  17
TORSDOF 8
ENDMDL
MODEL 2
REMARK VINA RESULT:      -7.2      3.390      6.419
REMARK  Name = 
REMARK  9 active torsions:
REMARK  status: ('A' for Active; 'I' for Inactive)
REMARK    1  A    between atoms: C_1  and  O_2
REMARK    2  A    between atoms: O_2  and  C_3
REMARK    3  A    between atoms: C_8  and  C_9
REMARK    4  A    between atoms: C_9  and  C_10
REMARK    5  A    between atoms: C_10  and  N_11
REMARK    6  A    between atoms: C_14  and  C_15
REMARK    7  A    between atoms: C_15  and  C_16
REMARK    8  A    between atoms: C_16  and  C_17
REMARK    9  A    between atoms: N_19  and  O_20
REMARK                            x       y       z     vdW  Elec       q    Type
REMARK                         _______ _______ _______ _____ _____    ______ ____
ROOT
ATOM      1  N   UNL     1       2.797   6.395  18.578  0.00  0.00    +0.000 N 
ATOM      2  C   UNL     1       2.408   7.001  19.823  0.00  0.00    +0.000 C 
ATOM      3  C   UNL     1       1.725   5.862  20.499  0.00  0.00    +0.000 C 
ATOM      4  C   UNL     1       1.629   4.775  19.722  0.00  0.00    +0.000 C 
ATOM      5  C   UNL     1       2.262   5.130  18.435  0.00  0.00    +0.000 C 
ATOM      6  O   UNL     1       2.277   4.408  17.451  0.00  0.00    +0.000 OA
ENDROOT
BRANCH   1   7
ATOM      7  C   UNL     1       3.243   7.173  17.431  0.00  0.00    +0.000 C 
BRANCH   7   8
ATOM      8  C   UNL     1       4.742   7.474  17.414  0.00  0.00    +0.000 C 
BRANCH   8  14
ATOM      9  C   UNL     1       6.674   5.797  17.385  0.00  0.00    +0.000 A 
ATOM     10  C   UNL     1       7.316   4.701  16.797  0.00  0.00    +0.000 A 
ATOM     11  C   UNL     1       6.891   4.212  15.560  0.00  0.00    +0.000 A 
ATOM     12  C   UNL     1       5.796   4.792  14.929  0.00  0.00    +0.000 A 
ATOM     13  C   UNL     1       5.096   5.824  15.551  0.00  0.00    +0.000 A 
ATOM     14  C   UNL     1       5.515   6.328  16.795  0.00  0.00    +0.000 A 
BRANCH   9  16
ATOM     15  C   UNL     1       7.896   5.545  19.394  0.00  0.00    +0.000 C 
ATOM     16  O   UNL     1       7.122   6.389  18.538  0.00  0.00    +0.000 OA
ENDBRANCH   9  16
ENDBRANCH   8  14
ENDBRANCH   7   8
ENDBRANCH   1   7
BRANCH   4  17
ATOM     17  C   UNL     1       0.968   3.466  19.978  0.00  0.00    +0.000 C 
BRANCH  17  18
ATOM     18  C   UNL     1       1.863   2.485  20.731  0.00  0.00    +0.000 C 
BRANCH  18  19
ATOM     19  C   UNL     1       3.117   2.167  19.944  0.00  0.00    +0.000 C 
ATOM     20  O   UNL     1       4.259   2.421  20.320  0.00  0.00    +0.000 OA
ATOM     21  N   UNL     1       2.867   1.556  18.739  0.00  0.00    +0.000 N 
ATOM     22  H   UNL     1       1.962   1.564  18.282  0.00  0.00    +0.000 HD
BRANCH  21  23
ATOM     23  O   UNL     1       3.997   1.331  17.918  0.00  0.00    +0.000 OA
ATOM     24  H   UNL     1       4.543   0.732  18.474  0.00  0.00    +0.000 HD
ENDBRANCH  21  23
ENDBRANCH  18  19
ENDBRANCH  17  18
ENDBRANCH   4  17
TORSDOF 8
ENDMDL
MODEL 3
REMARK VINA RESULT:      -7.2      1.864      2.526
REMARK  Name = 
REMARK  9 active torsions:
REMARK  status: ('A' for Active; 'I' for Inactive)
REMARK    1  A    between atoms: C_1  and  O_2
REMARK    2  A    between atoms: O_2  and  C_3
REMARK    3  A    between atoms: C_8  and  C_9
REMARK    4  A    between atoms: C_9  and  C_10
REMARK    5  A    between atoms: C_10  and  N_11
REMARK    6  A    between atoms: C_14  and  C_15
REMARK    7  A    between atoms: C_15  and  C_16
REMARK    8  A    between atoms: C_16  and  C_17
REMARK    9  A    between atoms: N_19  and  O_20
REMARK                            x       y       z     vdW  Elec       q    Type
REMARK                         _______ _______ _______ _____ _____    ______ ____
ROOT
ATOM      1  N   UNL     1       6.130   5.794  17.175  0.00  0.00    +0.000 N 
ATOM      2  C   UNL     1       6.959   4.674  17.534  0.00  0.00    +0.000 C 
ATOM      3  C   UNL     1       7.303   4.127  16.191  0.00  0.00    +0.000 C 
ATOM      4  C   UNL     1       6.679   4.765  15.191  0.00  0.00    +0.000 C 
ATOM      5  C   UNL     1       5.852   5.814  15.823  0.00  0.00    +0.000 C 
ATOM      6  O   UNL     1       5.073   6.534  15.220  0.00  0.00    +0.000 OA
ENDROOT
BRANCH   1   7
ATOM      7  C   UNL     1       5.293   6.493  18.140  0.00  0.00    +0.000 C 
BRANCH   7   8
ATOM      8  C   UNL     1       4.804   5.626  19.301  0.00  0.00    +0.000 C 
BRANCH   8  14
ATOM      9  C   UNL     1       3.792   3.293  19.029  0.00  0.00    +0.000 A 
ATOM     10  C   UNL     1       2.727   2.474  18.638  0.00  0.00    +0.000 A 
ATOM     11  C   UNL     1       1.639   3.011  17.948  0.00  0.00    +0.000 A 
ATOM     12  C   UNL     1       1.594   4.376  17.685  0.00  0.00    +0.000 A 
ATOM     13  C   UNL     1       2.607   5.211  18.152  0.00  0.00    +0.000 A 
ATOM     14  C   UNL     1       3.711   4.683  18.845  0.00  0.00    +0.000 A 
BRANCH   9  16
ATOM     15  C   UNL     1       4.730   1.804  20.611  0.00  0.00    +0.000 C 
ATOM     16  O   UNL     1       4.935   2.799  19.604  0.00  0.00    +0.000 OA
ENDBRANCH   9  16
ENDBRANCH   8  14
ENDBRANCH   7   8
ENDBRANCH   1   7
BRANCH   4  17
ATOM     17  C   UNL     1       6.687   4.497  13.727  0.00  0.00    +0.000 C 
BRANCH  17  18
ATOM     18  C   UNL     1       5.338   4.005  13.205  0.00  0.00    +0.000 C 
BRANCH  18  19
ATOM     19  C   UNL     1       5.513   2.978  12.107  0.00  0.00    +0.000 C 
ATOM     20  O   UNL     1       4.620   2.610  11.348  0.00  0.00    +0.000 OA
ATOM     21  N   UNL     1       6.788   2.471  12.029  0.00  0.00    +0.000 N 
ATOM     22  H   UNL     1       7.469   2.544  12.777  0.00  0.00    +0.000 HD
BRANCH  21  23
ATOM     23  O   UNL     1       6.980   1.432  11.090  0.00  0.00    +0.000 OA
ATOM     24  H   UNL     1       6.576   0.660  11.547  0.00  0.00    +0.000 HD
ENDBRANCH  21  23
ENDBRANCH  18  19
ENDBRANCH  17  18
ENDBRANCH   4  17
TORSDOF 8
ENDMDL
MODEL 4
REMARK VINA RESULT:      -7.1      3.428      5.386
REMARK  Name = 
REMARK  9 active torsions:
REMARK  status: ('A' for Active; 'I' for Inactive)
REMARK    1  A    between atoms: C_1  and  O_2
REMARK    2  A    between atoms: O_2  and  C_3
REMARK    3  A    between atoms: C_8  and  C_9
REMARK    4  A    between atoms: C_9  and  C_10
REMARK    5  A    between atoms: C_10  and  N_11
REMARK    6  A    between atoms: C_14  and  C_15
REMARK    7  A    between atoms: C_15  and  C_16
REMARK    8  A    between atoms: C_16  and  C_17
REMARK    9  A    between atoms: N_19  and  O_20
REMARK                            x       y       z     vdW  Elec       q    Type
REMARK                         _______ _______ _______ _____ _____    ______ ____
ROOT
ATOM      1  N   UNL     1       3.427   4.494  16.981  0.00  0.00    +0.000 N 
ATOM      2  C   UNL     1       2.773   5.458  17.825  0.00  0.00    +0.000 C 
ATOM      3  C   UNL     1       3.842   6.486  17.973  0.00  0.00    +0.000 C 
ATOM      4  C   UNL     1       4.995   6.128  17.392  0.00  0.00    +0.000 C 
ATOM      5  C   UNL     1       4.762   4.795  16.798  0.00  0.00    +0.000 C 
ATOM      6  O   UNL     1       5.625   4.118  16.263  0.00  0.00    +0.000 OA
ENDROOT
BRANCH   1   7
ATOM      7  C   UNL     1       2.909   3.148  16.777  0.00  0.00    +0.000 C 
BRANCH   7   8
ATOM      8  C   UNL     1       3.361   2.130  17.825  0.00  0.00    +0.000 C 
BRANCH   8  14
ATOM      9  C   UNL     1       3.440   2.501  20.354  0.00  0.00    +0.000 A 
ATOM     10  C   UNL     1       2.786   2.811  21.552  0.00  0.00    +0.000 A 
ATOM     11  C   UNL     1       1.394   2.898  21.597  0.00  0.00    +0.000 A 
ATOM     12  C   UNL     1       0.654   2.717  20.433  0.00  0.00    +0.000 A 
ATOM     13  C   UNL     1       1.303   2.498  19.220  0.00  0.00    +0.000 A 
ATOM     14  C   UNL     1       2.705   2.405  19.161  0.00  0.00    +0.000 A 
BRANCH   9  16
ATOM     15  C   UNL     1       5.266   1.129  20.971  0.00  0.00    +0.000 C 
ATOM     16  O   UNL     1       4.792   2.289  20.280  0.00  0.00    +0.000 OA
ENDBRANCH   9  16
ENDBRANCH   8  14
ENDBRANCH   7   8
ENDBRANCH   1   7
BRANCH   4  17
ATOM     17  C   UNL     1       6.313   6.819  17.365  0.00  0.00    +0.000 C 
BRANCH  17  18
ATOM     18  C   UNL     1       7.468   5.915  17.791  0.00  0.00    +0.000 C 
BRANCH  18  19
ATOM     19  C   UNL     1       7.325   5.482  19.235  0.00  0.00    +0.000 C 
ATOM     20  O   UNL     1       6.258   5.205  19.777  0.00  0.00    +0.000 OA
ATOM     21  N   UNL     1       8.521   5.425  19.911  0.00  0.00    +0.000 N 
ATOM     22  H   UNL     1       9.367   5.884  19.593  0.00  0.00    +0.000 HD
BRANCH  21  23
ATOM     23  O   UNL     1       8.433   5.128  21.290  0.00  0.00    +0.000 OA
ATOM     24  H   UNL     1       7.461   5.073  21.430  0.00  0.00    +0.000 HD
ENDBRANCH  21  23
ENDBRANCH  18  19
ENDBRANCH  17  18
ENDBRANCH   4  17
TORSDOF 8
ENDMDL
MODEL 5
REMARK VINA RESULT:      -7.1      2.364      3.074
REMARK  Name = 
REMARK  9 active torsions:
REMARK  status: ('A' for Active; 'I' for Inactive)
REMARK    1  A    between atoms: C_1  and  O_2
REMARK    2  A    between atoms: O_2  and  C_3
REMARK    3  A    between atoms: C_8  and  C_9
REMARK    4  A    between atoms: C_9  and  C_10
REMARK    5  A    between atoms: C_10  and  N_11
REMARK    6  A    between atoms: C_14  and  C_15
REMARK    7  A    between atoms: C_15  and  C_16
REMARK    8  A    between atoms: C_16  and  C_17
REMARK    9  A    between atoms: N_19  and  O_20
REMARK                            x       y       z     vdW  Elec       q    Type
REMARK                         _______ _______ _______ _____ _____    ______ ____
ROOT
ATOM      1  N   UNL     1       4.226   6.152  18.024  0.00  0.00    +0.000 N 
ATOM      2  C   UNL     1       4.287   7.126  16.968  0.00  0.00    +0.000 C 
ATOM      3  C   UNL     1       5.157   6.428  15.980  0.00  0.00    +0.000 C 
ATOM      4  C   UNL     1       5.630   5.259  16.434  0.00  0.00    +0.000 C 
ATOM      5  C   UNL     1       5.087   5.096  17.798  0.00  0.00    +0.000 C 
ATOM      6  O   UNL     1       5.383   4.185  18.554  0.00  0.00    +0.000 OA
ENDROOT
BRANCH   1   7
ATOM      7  C   UNL     1       3.735   6.468  19.359  0.00  0.00    +0.000 C 
BRANCH   7   8
ATOM      8  C   UNL     1       2.252   6.164  19.576  0.00  0.00    +0.000 C 
BRANCH   8  14
ATOM      9  C   UNL     1       1.686   3.702  19.177  0.00  0.00    +0.000 A 
ATOM     10  C   UNL     1       1.575   2.393  19.660  0.00  0.00    +0.000 A 
ATOM     11  C   UNL     1       1.701   2.129  21.024  0.00  0.00    +0.000 A 
ATOM     12  C   UNL     1       1.982   3.168  21.905  0.00  0.00    +0.000 A 
ATOM     13  C   UNL     1       2.184   4.459  21.421  0.00  0.00    +0.000 A 
ATOM     14  C   UNL     1       2.057   4.739  20.049  0.00  0.00    +0.000 A 
BRANCH   9  16
ATOM     15  C   UNL     1       2.278   3.353  16.914  0.00  0.00    +0.000 C 
ATOM     16  O   UNL     1       1.456   4.032  17.867  0.00  0.00    +0.000 OA
ENDBRANCH   9  16
ENDBRANCH   8  14
ENDBRANCH   7   8
ENDBRANCH   1   7
BRANCH   4  17
ATOM     17  C   UNL     1       6.574   4.296  15.805  0.00  0.00    +0.000 C 
BRANCH  17  18
ATOM     18  C   UNL     1       6.191   3.936  14.372  0.00  0.00    +0.000 C 
BRANCH  18  19
ATOM     19  C   UNL     1       7.132   4.574  13.372  0.00  0.00    +0.000 C 
ATOM     20  O   UNL     1       7.167   4.301  12.175  0.00  0.00    +0.000 OA
ATOM     21  N   UNL     1       7.971   5.509  13.930  0.00  0.00    +0.000 N 
ATOM     22  H   UNL     1       8.156   5.576  14.924  0.00  0.00    +0.000 HD
BRANCH  21  23
ATOM     23  O   UNL     1       8.941   6.059  13.061  0.00  0.00    +0.000 OA
ATOM     24  H   UNL     1       8.395   6.352  12.297  0.00  0.00    +0.000 HD
ENDBRANCH  21  23
ENDBRANCH  18  19
ENDBRANCH  17  18
ENDBRANCH   4  17
TORSDOF 8
ENDMDL
MODEL 6
REMARK VINA RESULT:      -7.0      4.039      6.220
REMARK  Name = 
REMARK  9 active torsions:
REMARK  status: ('A' for Active; 'I' for Inactive)
REMARK    1  A    between atoms: C_1  and  O_2
REMARK    2  A    between atoms: O_2  and  C_3
REMARK    3  A    between atoms: C_8  and  C_9
REMARK    4  A    between atoms: C_9  and  C_10
REMARK    5  A    between atoms: C_10  and  N_11
REMARK    6  A    between atoms: C_14  and  C_15
REMARK    7  A    between atoms: C_15  and  C_16
REMARK    8  A    between atoms: C_16  and  C_17
REMARK    9  A    between atoms: N_19  and  O_20
REMARK                            x       y       z     vdW  Elec       q    Type
REMARK                         _______ _______ _______ _____ _____    ______ ____
ROOT
ATOM      1  N   UNL     1       6.174   5.206  17.811  0.00  0.00    +0.000 N 
ATOM      2  C   UNL     1       5.713   6.103  16.787  0.00  0.00    +0.000 C 
ATOM      3  C   UNL     1       6.645   7.253  16.968  0.00  0.00    +0.000 C 
ATOM      4  C   UNL     1       7.464   7.101  18.018  0.00  0.00    +0.000 C 
ATOM      5  C   UNL     1       7.121   5.798  18.624  0.00  0.00    +0.000 C 
ATOM      6  O   UNL     1       7.605   5.369  19.659  0.00  0.00    +0.000 OA
ENDROOT
BRANCH   1   7
ATOM      7  C   UNL     1       5.403   4.050  18.248  0.00  0.00    +0.000 C 
BRANCH   7   8
ATOM      8  C   UNL     1       3.997   3.964  17.654  0.00  0.00    +0.000 C 
BRANCH   8  14
ATOM      9  C   UNL     1       2.464   4.903  19.473  0.00  0.00    +0.000 A 
ATOM     10  C   UNL     1       1.464   4.706  20.433  0.00  0.00    +0.000 A 
ATOM     11  C   UNL     1       1.047   3.417  20.766  0.00  0.00    +0.000 A 
ATOM     12  C   UNL     1       1.599   2.322  20.110  0.00  0.00    +0.000 A 
ATOM     13  C   UNL     1       2.528   2.515  19.089  0.00  0.00    +0.000 A 
ATOM     14  C   UNL     1       2.959   3.808  18.745  0.00  0.00    +0.000 A 
BRANCH   9  16
ATOM     15  C   UNL     1       2.256   7.247  19.716  0.00  0.00    +0.000 C 
ATOM     16  O   UNL     1       2.991   6.137  19.193  0.00  0.00    +0.000 OA
ENDBRANCH   9  16
ENDBRANCH   8  14
ENDBRANCH   7   8
ENDBRANCH   1   7
BRANCH   4  17
ATOM     17  C   UNL     1       8.480   8.027  18.585  0.00  0.00    +0.000 C 
BRANCH  17  18
ATOM     18  C   UNL     1       8.363   9.447  18.036  0.00  0.00    +0.000 C 
BRANCH  18  19
ATOM     19  C   UNL     1       9.255  10.407  18.794  0.00  0.00    +0.000 C 
ATOM     20  O   UNL     1       9.320  10.480  20.019  0.00  0.00    +0.000 OA
ATOM     21  N   UNL     1      10.007  11.218  17.977  0.00  0.00    +0.000 N 
ATOM     22  H   UNL     1       9.800  11.374  16.997  0.00  0.00    +0.000 HD
BRANCH  21  23
ATOM     23  O   UNL     1      10.779  12.204  18.633  0.00  0.00    +0.000 OA
ATOM     24  H   UNL     1      11.491  11.669  19.049  0.00  0.00    +0.000 HD
ENDBRANCH  21  23
ENDBRANCH  18  19
ENDBRANCH  17  18
ENDBRANCH   4  17
TORSDOF 8
ENDMDL
MODEL 7
REMARK VINA RESULT:      -7.0      1.438      2.253
REMARK  Name = 
REMARK  9 active torsions:
REMARK  status: ('A' for Active; 'I' for Inactive)
REMARK    1  A    between atoms: C_1  and  O_2
REMARK    2  A    between atoms: O_2  and  C_3
REMARK    3  A    between atoms: C_8  and  C_9
REMARK    4  A    between atoms: C_9  and  C_10
REMARK    5  A    between atoms: C_10  and  N_11
REMARK    6  A    between atoms: C_14  and  C_15
REMARK    7  A    between atoms: C_15  and  C_16
REMARK    8  A    between atoms: C_16  and  C_17
REMARK    9  A    between atoms: N_19  and  O_20
REMARK                            x       y       z     vdW  Elec       q    Type
REMARK                         _______ _______ _______ _____ _____    ______ ____
ROOT
ATOM      1  N   UNL     1       4.778   6.026  17.071  0.00  0.00    +0.000 N 
ATOM      2  C   UNL     1       5.993   6.766  16.860  0.00  0.00    +0.000 C 
ATOM      3  C   UNL     1       6.647   5.952  15.797  0.00  0.00    +0.000 C 
ATOM      4  C   UNL     1       5.968   4.834  15.502  0.00  0.00    +0.000 C 
ATOM      5  C   UNL     1       4.778   4.832  16.378  0.00  0.00    +0.000 C 
ATOM      6  O   UNL     1       3.976   3.915  16.449  0.00  0.00    +0.000 OA
ENDROOT
BRANCH   1   7
ATOM      7  C   UNL     1       3.916   6.242  18.225  0.00  0.00    +0.000 C 
BRANCH   7   8
ATOM      8  C   UNL     1       4.325   5.466  19.477  0.00  0.00    +0.000 C 
BRANCH   8  14
ATOM      9  C   UNL     1       3.351   3.221  20.220  0.00  0.00    +0.000 A 
ATOM     10  C   UNL     1       2.279   2.474  20.723  0.00  0.00    +0.000 A 
ATOM     11  C   UNL     1       1.014   3.050  20.851  0.00  0.00    +0.000 A 
ATOM     12  C   UNL     1       0.828   4.387  20.517  0.00  0.00    +0.000 A 
ATOM     13  C   UNL     1       1.910   5.161  20.102  0.00  0.00    +0.000 A 
ATOM     14  C   UNL     1       3.189   4.593  19.965  0.00  0.00    +0.000 A 
BRANCH   9  16
ATOM     15  C   UNL     1       4.573   1.531  19.102  0.00  0.00    +0.000 C 
ATOM     16  O   UNL     1       4.581   2.673  19.964  0.00  0.00    +0.000 OA
ENDBRANCH   9  16
ENDBRANCH   8  14
ENDBRANCH   7   8
ENDBRANCH   1   7
BRANCH   4  17
ATOM     17  C   UNL     1       6.301   3.726  14.567  0.00  0.00    +0.000 C 
BRANCH  17  18
ATOM     18  C   UNL     1       6.410   4.186  13.115  0.00  0.00    +0.000 C 
BRANCH  18  19
ATOM     19  C   UNL     1       5.854   3.147  12.164  0.00  0.00    +0.000 C 
ATOM     20  O   UNL     1       4.701   3.138  11.738  0.00  0.00    +0.000 OA
ATOM     21  N   UNL     1       6.768   2.185  11.808  0.00  0.00    +0.000 N 
ATOM     22  H   UNL     1       7.623   2.005  12.323  0.00  0.00    +0.000 HD
BRANCH  21  23
ATOM     23  O   UNL     1       6.271   1.132  11.006  0.00  0.00    +0.000 OA
ATOM     24  H   UNL     1       7.045   0.920  10.437  0.00  0.00    +0.000 HD
ENDBRANCH  21  23
ENDBRANCH  18  19
ENDBRANCH  17  18
ENDBRANCH   4  17
TORSDOF 8
ENDMDL
MODEL 8
REMARK VINA RESULT:      -7.0      4.258      8.105
REMARK  Name = 
REMARK  9 active torsions:
REMARK  status: ('A' for Active; 'I' for Inactive)
REMARK    1  A    between atoms: C_1  and  O_2
REMARK    2  A    between atoms: O_2  and  C_3
REMARK    3  A    between atoms: C_8  and  C_9
REMARK    4  A    between atoms: C_9  and  C_10
REMARK    5  A    between atoms: C_10  and  N_11
REMARK    6  A    between atoms: C_14  and  C_15
REMARK    7  A    between atoms: C_15  and  C_16
REMARK    8  A    between atoms: C_16  and  C_17
REMARK    9  A    between atoms: N_19  and  O_20
REMARK                            x       y       z     vdW  Elec       q    Type
REMARK                         _______ _______ _______ _____ _____    ______ ____
ROOT
ATOM      1  N   UNL     1       1.877   8.201  19.613  0.00  0.00    +0.000 N 
ATOM      2  C   UNL     1       2.136   8.283  18.201  0.00  0.00    +0.000 C 
ATOM      3  C   UNL     1       1.573   9.626  17.881  0.00  0.00    +0.000 C 
ATOM      4  C   UNL     1       0.972  10.204  18.931  0.00  0.00    +0.000 C 
ATOM      5  C   UNL     1       1.100   9.253  20.055  0.00  0.00    +0.000 C 
ATOM      6  O   UNL     1       0.586   9.408  21.151  0.00  0.00    +0.000 OA
ENDROOT
BRANCH   1   7
ATOM      7  C   UNL     1       1.973   6.953  20.359  0.00  0.00    +0.000 C 
BRANCH   7   8
ATOM      8  C   UNL     1       3.021   5.976  19.826  0.00  0.00    +0.000 C 
BRANCH   8  14
ATOM      9  C   UNL     1       2.620   4.096  18.139  0.00  0.00    +0.000 A 
ATOM     10  C   UNL     1       2.039   2.865  17.815  0.00  0.00    +0.000 A 
ATOM     11  C   UNL     1       1.116   2.269  18.677  0.00  0.00    +0.000 A 
ATOM     12  C   UNL     1       0.804   2.884  19.885  0.00  0.00    +0.000 A 
ATOM     13  C   UNL     1       1.447   4.064  20.255  0.00  0.00    +0.000 A 
ATOM     14  C   UNL     1       2.376   4.676  19.395  0.00  0.00    +0.000 A 
BRANCH   9  16
ATOM     15  C   UNL     1       4.666   4.120  16.953  0.00  0.00    +0.000 C 
ATOM     16  O   UNL     1       3.439   4.779  17.278  0.00  0.00    +0.000 OA
ENDBRANCH   9  16
ENDBRANCH   8  14
ENDBRANCH   7   8
ENDBRANCH   1   7
BRANCH   4  17
ATOM     17  C   UNL     1       0.230  11.490  19.024  0.00  0.00    +0.000 C 
BRANCH  17  18
ATOM     18  C   UNL     1      -1.271  11.299  19.224  0.00  0.00    +0.000 C 
BRANCH  18  19
ATOM     19  C   UNL     1      -1.953  10.897  17.933  0.00  0.00    +0.000 C 
ATOM     20  O   UNL     1      -2.458   9.797  17.724  0.00  0.00    +0.000 OA
ATOM     21  N   UNL     1      -1.957  11.891  16.983  0.00  0.00    +0.000 N 
ATOM     22  H   UNL     1      -1.341  12.696  17.010  0.00  0.00    +0.000 HD
BRANCH  21  23
ATOM     23  O   UNL     1      -2.487  11.534  15.722  0.00  0.00    +0.000 OA
ATOM     24  H   UNL     1      -1.884  10.810  15.440  0.00  0.00    +0.000 HD
ENDBRANCH  21  23
ENDBRANCH  18  19
ENDBRANCH  17  18
ENDBRANCH   4  17
TORSDOF 8
ENDMDL
MODEL 9
REMARK VINA RESULT:      -7.0      1.663      2.380
REMARK  Name = 
REMARK  9 active torsions:
REMARK  status: ('A' for Active; 'I' for Inactive)
REMARK    1  A    between atoms: C_1  and  O_2
REMARK    2  A    between atoms: O_2  and  C_3
REMARK    3  A    between atoms: C_8  and  C_9
REMARK    4  A    between atoms: C_9  and  C_10
REMARK    5  A    between atoms: C_10  and  N_11
REMARK    6  A    between atoms: C_14  and  C_15
REMARK    7  A    between atoms: C_15  and  C_16
REMARK    8  A    between atoms: C_16  and  C_17
REMARK    9  A    between atoms: N_19  and  O_20
REMARK                            x       y       z     vdW  Elec       q    Type
REMARK                         _______ _______ _______ _____ _____    ______ ____
ROOT
ATOM      1  N   UNL     1       5.425   5.806  17.188  0.00  0.00    +0.000 N 
ATOM      2  C   UNL     1       5.863   4.492  17.575  0.00  0.00    +0.000 C 
ATOM      3  C   UNL     1       6.445   3.991  16.298  0.00  0.00    +0.000 C 
ATOM      4  C   UNL     1       6.276   4.844  15.278  0.00  0.00    +0.000 C 
ATOM      5  C   UNL     1       5.547   6.006  15.827  0.00  0.00    +0.000 C 
ATOM      6  O   UNL     1       5.139   6.942  15.159  0.00  0.00    +0.000 OA
ENDROOT
BRANCH   1   7
ATOM      7  C   UNL     1       4.520   6.605  18.002  0.00  0.00    +0.000 C 
BRANCH   7   8
ATOM      8  C   UNL     1       3.036   6.364  17.722  0.00  0.00    +0.000 C 
BRANCH   8  14
ATOM      9  C   UNL     1       2.153   4.109  18.543  0.00  0.00    +0.000 A 
ATOM     10  C   UNL     1       1.641   3.313  19.574  0.00  0.00    +0.000 A 
ATOM     11  C   UNL     1       1.277   3.884  20.794  0.00  0.00    +0.000 A 
ATOM     12  C   UNL     1       1.465   5.246  21.002  0.00  0.00    +0.000 A 
ATOM     13  C   UNL     1       2.059   6.028  20.012  0.00  0.00    +0.000 A 
ATOM     14  C   UNL     1       2.427   5.466  18.777  0.00  0.00    +0.000 A 
BRANCH   9  16
ATOM     15  C   UNL     1       2.799   2.243  17.240  0.00  0.00    +0.000 C 
ATOM     16  O   UNL     1       2.416   3.620  17.289  0.00  0.00    +0.000 OA
ENDBRANCH   9  16
ENDBRANCH   8  14
ENDBRANCH   7   8
ENDBRANCH   1   7
BRANCH   4  17
ATOM     17  C   UNL     1       6.636   4.705  13.841  0.00  0.00    +0.000 C 
BRANCH  17  18
ATOM     18  C   UNL     1       5.686   3.787  13.075  0.00  0.00    +0.000 C 
BRANCH  18  19
ATOM     19  C   UNL     1       6.433   2.931  12.074  0.00  0.00    +0.000 C 
ATOM     20  O   UNL     1       7.443   3.285  11.471  0.00  0.00    +0.000 OA
ATOM     21  N   UNL     1       5.871   1.691  11.886  0.00  0.00    +0.000 N 
ATOM     22  H   UNL     1       4.920   1.459  12.152  0.00  0.00    +0.000 HD
BRANCH  21  23
ATOM     23  O   UNL     1       6.468   0.891  10.884  0.00  0.00    +0.000 OA
ATOM     24  H   UNL     1       5.771   0.871  10.191  0.00  0.00    +0.000 HD
ENDBRANCH  21  23
ENDBRANCH  18  19
ENDBRANCH  17  18
ENDBRANCH   4  17
TORSDOF 8
ENDMDL
