MODEL 1
REMARK VINA RESULT:      -4.6      0.000      0.000
REMARK  Name = 
REMARK  4 active torsions:
REMARK  status: ('A' for Active; 'I' for Inactive)
REMARK    1  A    between atoms: C_1  and  N_2
REMARK    2  A    between atoms: N_5  and  C_6
REMARK    3  A    between atoms: C_6  and  C_7
REMARK    4  A    between atoms: C_7  and  C_8
REMARK                            x       y       z     vdW  Elec       q    Type
REMARK                         _______ _______ _______ _____ _____    ______ ____
ROOT
ATOM      1  C   UNL     1       5.162   6.028  15.979  0.00  0.00    +0.000 C 
ATOM      2  N   UNL     1       4.967   5.210  17.170  0.00  0.00    +0.000 NA
ATOM      3  C   UNL     1       4.203   3.991  16.860  0.00  0.00    +0.000 C 
ATOM      4  C   UNL     1       3.954   3.134  18.124  0.00  0.00    +0.000 C 
ATOM      5  N   UNL     1       3.284   3.845  19.237  0.00  0.00    +0.000 NA
ATOM      6  C   UNL     1       4.045   5.094  19.496  0.00  0.00    +0.000 C 
ATOM      7  C   UNL     1       4.303   5.970  18.244  0.00  0.00    +0.000 C 
ENDROOT
BRANCH   5   8
ATOM      8  C   UNL     1       1.861   4.138  18.982  0.00  0.00    +0.000 C 
BRANCH   8   9
ATOM      9  C   UNL     1       0.896   3.164  19.671  0.00  0.00    +0.000 C 
BRANCH   9  10
ATOM     10  C   UNL     1       1.360   2.865  21.031  0.00  0.00    +0.000 C 
ATOM     11  N   UNL     1       1.727   2.647  22.111  0.00  0.00    +0.000 NA
ENDBRANCH   9  10
ENDBRANCH   8   9
ENDBRANCH   5   8
TORSDOF 3
ENDMDL
MODEL 2
REMARK VINA RESULT:      -4.6      1.728      4.858
REMARK  Name = 
REMARK  4 active torsions:
REMARK  status: ('A' for Active; 'I' for Inactive)
REMARK    1  A    between atoms: C_1  and  N_2
REMARK    2  A    between atoms: N_5  and  C_6
REMARK    3  A    between atoms: C_6  and  C_7
REMARK    4  A    between atoms: C_7  and  C_8
REMARK                            x       y       z     vdW  Elec       q    Type
REMARK                         _______ _______ _______ _____ _____    ______ ____
ROOT
ATOM      1  C   UNL     1       1.963   2.946  21.427  0.00  0.00    +0.000 C 
ATOM      2  N   UNL     1       1.862   2.937  19.973  0.00  0.00    +0.000 NA
ATOM      3  C   UNL     1       2.993   2.217  19.364  0.00  0.00    +0.000 C 
ATOM      4  C   UNL     1       2.918   2.237  17.819  0.00  0.00    +0.000 C 
ATOM      5  N   UNL     1       2.834   3.587  17.215  0.00  0.00    +0.000 NA
ATOM      6  C   UNL     1       1.719   4.308  17.881  0.00  0.00    +0.000 C 
ATOM      7  C   UNL     1       1.775   4.304  19.429  0.00  0.00    +0.000 C 
ENDROOT
BRANCH   5   8
ATOM      8  C   UNL     1       4.088   4.356  17.306  0.00  0.00    +0.000 C 
BRANCH   8   9
ATOM      9  C   UNL     1       5.061   4.091  16.149  0.00  0.00    +0.000 C 
BRANCH   9  10
ATOM     10  C   UNL     1       6.436   4.397  16.561  0.00  0.00    +0.000 C 
ATOM     11  N   UNL     1       7.522   4.627  16.903  0.00  0.00    +0.000 NA
ENDBRANCH   9  10
ENDBRANCH   8   9
ENDBRANCH   5   8
TORSDOF 3
ENDMDL
MODEL 3
REMARK VINA RESULT:      -4.5      1.608      5.005
REMARK  Name = 
REMARK  4 active torsions:
REMARK  status: ('A' for Active; 'I' for Inactive)
REMARK    1  A    between atoms: C_1  and  N_2
REMARK    2  A    between atoms: N_5  and  C_6
REMARK    3  A    between atoms: C_6  and  C_7
REMARK    4  A    between atoms: C_7  and  C_8
REMARK                            x       y       z     vdW  Elec       q    Type
REMARK                         _______ _______ _______ _____ _____    ______ ____
ROOT
ATOM      1  C   UNL     1       1.422   2.818  21.280  0.00  0.00    +0.000 C 
ATOM      2  N   UNL     1       1.458   2.938  19.828  0.00  0.00    +0.000 NA
ATOM      3  C   UNL     1       2.479   2.052  19.245  0.00  0.00    +0.000 C 
ATOM      4  C   UNL     1       2.554   2.200  17.706  0.00  0.00    +0.000 C 
ATOM      5  N   UNL     1       2.791   3.581  17.224  0.00  0.00    +0.000 NA
ATOM      6  C   UNL     1       1.781   4.461  17.865  0.00  0.00    +0.000 C 
ATOM      7  C   UNL     1       1.690   4.331  19.406  0.00  0.00    +0.000 C 
ENDROOT
BRANCH   5   8
ATOM      8  C   UNL     1       4.157   4.073  17.481  0.00  0.00    +0.000 C 
BRANCH   8   9
ATOM      9  C   UNL     1       5.033   4.151  16.223  0.00  0.00    +0.000 C 
BRANCH   9  10
ATOM     10  C   UNL     1       5.235   5.550  15.830  0.00  0.00    +0.000 C 
ATOM     11  N   UNL     1       5.380   6.655  15.505  0.00  0.00    +0.000 NA
ENDBRANCH   9  10
ENDBRANCH   8   9
ENDBRANCH   5   8
TORSDOF 3
ENDMDL
MODEL 4
REMARK VINA RESULT:      -4.4      1.620      4.856
REMARK  Name = 
REMARK  4 active torsions:
REMARK  status: ('A' for Active; 'I' for Inactive)
REMARK    1  A    between atoms: C_1  and  N_2
REMARK    2  A    between atoms: N_5  and  C_6
REMARK    3  A    between atoms: C_6  and  C_7
REMARK    4  A    between atoms: C_7  and  C_8
REMARK                            x       y       z     vdW  Elec       q    Type
REMARK                         _______ _______ _______ _____ _____    ______ ____
ROOT
ATOM      1  C   UNL     1       1.626   2.877  21.441  0.00  0.00    +0.000 C 
ATOM      2  N   UNL     1       1.703   3.681  20.227  0.00  0.00    +0.000 NA
ATOM      3  C   UNL     1       1.812   2.831  19.030  0.00  0.00    +0.000 C 
ATOM      4  C   UNL     1       1.936   3.673  17.739  0.00  0.00    +0.000 C 
ATOM      5  N   UNL     1       3.053   4.646  17.733  0.00  0.00    +0.000 NA
ATOM      6  C   UNL     1       2.950   5.456  18.974  0.00  0.00    +0.000 C 
ATOM      7  C   UNL     1       2.827   4.633  20.281  0.00  0.00    +0.000 C 
ENDROOT
BRANCH   5   8
ATOM      8  C   UNL     1       4.384   4.020  17.623  0.00  0.00    +0.000 C 
BRANCH   8   9
ATOM      9  C   UNL     1       5.134   4.385  16.335  0.00  0.00    +0.000 C 
BRANCH   9  10
ATOM     10  C   UNL     1       6.579   4.436  16.584  0.00  0.00    +0.000 C 
ATOM     11  N   UNL     1       7.723   4.456  16.783  0.00  0.00    +0.000 NA
ENDBRANCH   9  10
ENDBRANCH   8   9
ENDBRANCH   5   8
TORSDOF 3
ENDMDL
MODEL 5
REMARK VINA RESULT:      -4.4      1.172      1.275
REMARK  Name = 
REMARK  4 active torsions:
REMARK  status: ('A' for Active; 'I' for Inactive)
REMARK    1  A    between atoms: C_1  and  N_2
REMARK    2  A    between atoms: N_5  and  C_6
REMARK    3  A    between atoms: C_6  and  C_7
REMARK    4  A    between atoms: C_7  and  C_8
REMARK                            x       y       z     vdW  Elec       q    Type
REMARK                         _______ _______ _______ _____ _____    ______ ____
ROOT
ATOM      1  C   UNL     1       6.369   6.788  17.427  0.00  0.00    +0.000 C 
ATOM      2  N   UNL     1       5.666   5.536  17.678  0.00  0.00    +0.000 NA
ATOM      3  C   UNL     1       4.291   5.582  17.157  0.00  0.00    +0.000 C 
ATOM      4  C   UNL     1       3.521   4.273  17.453  0.00  0.00    +0.000 C 
ATOM      5  N   UNL     1       3.474   3.887  18.883  0.00  0.00    +0.000 NA
ATOM      6  C   UNL     1       4.868   3.897  19.396  0.00  0.00    +0.000 C 
ATOM      7  C   UNL     1       5.657   5.199  19.113  0.00  0.00    +0.000 C 
ENDROOT
BRANCH   5   8
ATOM      8  C   UNL     1       2.605   4.752  19.702  0.00  0.00    +0.000 C 
BRANCH   8   9
ATOM      9  C   UNL     1       1.283   4.089  20.111  0.00  0.00    +0.000 C 
BRANCH   9  10
ATOM     10  C   UNL     1       1.497   3.187  21.248  0.00  0.00    +0.000 C 
ATOM     11  N   UNL     1       1.678   2.462  22.137  0.00  0.00    +0.000 NA
ENDBRANCH   9  10
ENDBRANCH   8   9
ENDBRANCH   5   8
TORSDOF 3
ENDMDL
MODEL 6
REMARK VINA RESULT:      -4.4      1.457      2.225
REMARK  Name = 
REMARK  4 active torsions:
REMARK  status: ('A' for Active; 'I' for Inactive)
REMARK    1  A    between atoms: C_1  and  N_2
REMARK    2  A    between atoms: N_5  and  C_6
REMARK    3  A    between atoms: C_6  and  C_7
REMARK    4  A    between atoms: C_7  and  C_8
REMARK                            x       y       z     vdW  Elec       q    Type
REMARK                         _______ _______ _______ _____ _____    ______ ____
ROOT
ATOM      1  C   UNL     1       5.305   5.265  19.178  0.00  0.00    +0.000 C 
ATOM      2  N   UNL     1       4.171   4.937  18.322  0.00  0.00    +0.000 NA
ATOM      3  C   UNL     1       2.899   5.337  18.945  0.00  0.00    +0.000 C 
ATOM      4  C   UNL     1       1.685   4.958  18.064  0.00  0.00    +0.000 C 
ATOM      5  N   UNL     1       1.604   3.526  17.697  0.00  0.00    +0.000 NA
ATOM      6  C   UNL     1       2.915   3.136  17.118  0.00  0.00    +0.000 C 
ATOM      7  C   UNL     1       4.146   3.503  17.984  0.00  0.00    +0.000 C 
ENDROOT
BRANCH   5   8
ATOM      8  C   UNL     1       1.244   2.644  18.823  0.00  0.00    +0.000 C 
BRANCH   8   9
ATOM      9  C   UNL     1       0.730   3.398  20.057  0.00  0.00    +0.000 C 
BRANCH   9  10
ATOM     10  C   UNL     1       1.434   2.944  21.261  0.00  0.00    +0.000 C 
ATOM     11  N   UNL     1       1.995   2.604  22.219  0.00  0.00    +0.000 NA
ENDBRANCH   9  10
ENDBRANCH   8   9
ENDBRANCH   5   8
TORSDOF 3
ENDMDL
MODEL 7
REMARK VINA RESULT:      -4.4      1.379      4.922
REMARK  Name = 
REMARK  4 active torsions:
REMARK  status: ('A' for Active; 'I' for Inactive)
REMARK    1  A    between atoms: C_1  and  N_2
REMARK    2  A    between atoms: N_5  and  C_6
REMARK    3  A    between atoms: C_6  and  C_7
REMARK    4  A    between atoms: C_7  and  C_8
REMARK                            x       y       z     vdW  Elec       q    Type
REMARK                         _______ _______ _______ _____ _____    ______ ____
ROOT
ATOM      1  C   UNL     1       1.857   2.667  21.489  0.00  0.00    +0.000 C 
ATOM      2  N   UNL     1       2.137   2.801  20.065  0.00  0.00    +0.000 NA
ATOM      3  C   UNL     1       3.541   3.177  19.830  0.00  0.00    +0.000 C 
ATOM      4  C   UNL     1       3.840   3.361  18.324  0.00  0.00    +0.000 C 
ATOM      5  N   UNL     1       2.965   4.333  17.628  0.00  0.00    +0.000 NA
ATOM      6  C   UNL     1       1.557   3.961  17.922  0.00  0.00    +0.000 C 
ATOM      7  C   UNL     1       1.234   3.774  19.425  0.00  0.00    +0.000 C 
ENDROOT
BRANCH   5   8
ATOM      8  C   UNL     1       3.227   5.737  17.998  0.00  0.00    +0.000 C 
BRANCH   8   9
ATOM      9  C   UNL     1       4.700   6.145  17.867  0.00  0.00    +0.000 C 
BRANCH   9  10
ATOM     10  C   UNL     1       5.028   6.426  16.465  0.00  0.00    +0.000 C 
ATOM     11  N   UNL     1       5.276   6.633  15.349  0.00  0.00    +0.000 NA
ENDBRANCH   9  10
ENDBRANCH   8   9
ENDBRANCH   5   8
TORSDOF 3
ENDMDL
MODEL 8
REMARK VINA RESULT:      -4.4      1.700      2.183
REMARK  Name = 
REMARK  4 active torsions:
REMARK  status: ('A' for Active; 'I' for Inactive)
REMARK    1  A    between atoms: C_1  and  N_2
REMARK    2  A    between atoms: N_5  and  C_6
REMARK    3  A    between atoms: C_6  and  C_7
REMARK    4  A    between atoms: C_7  and  C_8
REMARK                            x       y       z     vdW  Elec       q    Type
REMARK                         _______ _______ _______ _____ _____    ______ ____
ROOT
ATOM      1  C   UNL     1       6.902   4.755  15.327  0.00  0.00    +0.000 C 
ATOM      2  N   UNL     1       6.222   5.219  16.531  0.00  0.00    +0.000 NA
ATOM      3  C   UNL     1       6.926   4.775  17.745  0.00  0.00    +0.000 C 
ATOM      4  C   UNL     1       6.192   5.227  19.030  0.00  0.00    +0.000 C 
ATOM      5  N   UNL     1       4.775   4.803  19.120  0.00  0.00    +0.000 NA
ATOM      6  C   UNL     1       4.101   5.218  17.863  0.00  0.00    +0.000 C 
ATOM      7  C   UNL     1       4.817   4.774  16.563  0.00  0.00    +0.000 C 
ENDROOT
BRANCH   5   8
ATOM      8  C   UNL     1       4.602   3.359  19.358  0.00  0.00    +0.000 C 
BRANCH   8   9
ATOM      9  C   UNL     1       3.137   2.928  19.504  0.00  0.00    +0.000 C 
BRANCH   9  10
ATOM     10  C   UNL     1       2.776   2.822  20.922  0.00  0.00    +0.000 C 
ATOM     11  N   UNL     1       2.474   2.747  22.041  0.00  0.00    +0.000 NA
ENDBRANCH   9  10
ENDBRANCH   8   9
ENDBRANCH   5   8
TORSDOF 3
ENDMDL
MODEL 9
REMARK VINA RESULT:      -4.4      1.205      1.921
REMARK  Name = 
REMARK  4 active torsions:
REMARK  status: ('A' for Active; 'I' for Inactive)
REMARK    1  A    between atoms: C_1  and  N_2
REMARK    2  A    between atoms: N_5  and  C_6
REMARK    3  A    between atoms: C_6  and  C_7
REMARK    4  A    between atoms: C_7  and  C_8
REMARK                            x       y       z     vdW  Elec       q    Type
REMARK                         _______ _______ _______ _____ _____    ______ ____
ROOT
ATOM      1  C   UNL     1       6.630   4.696  17.669  0.00  0.00    +0.000 C 
ATOM      2  N   UNL     1       5.213   4.896  17.392  0.00  0.00    +0.000 NA
ATOM      3  C   UNL     1       4.672   6.024  18.169  0.00  0.00    +0.000 C 
ATOM      4  C   UNL     1       3.159   6.221  17.914  0.00  0.00    +0.000 C 
ATOM      5  N   UNL     1       2.323   5.024  18.168  0.00  0.00    +0.000 NA
ATOM      6  C   UNL     1       2.918   3.891  17.415  0.00  0.00    +0.000 C 
ATOM      7  C   UNL     1       4.433   3.673  17.656  0.00  0.00    +0.000 C 
ENDROOT
BRANCH   5   8
ATOM      8  C   UNL     1       2.184   4.691  19.598  0.00  0.00    +0.000 C 
BRANCH   8   9
ATOM      9  C   UNL     1       1.121   3.621  19.883  0.00  0.00    +0.000 C 
BRANCH   9  10
ATOM     10  C   UNL     1       1.381   2.977  21.175  0.00  0.00    +0.000 C 
ATOM     11  N   UNL     1       1.596   2.452  22.188  0.00  0.00    +0.000 NA
ENDBRANCH   9  10
ENDBRANCH   8   9
ENDBRANCH   5   8
TORSDOF 3
ENDMDL
