MODEL 1
REMARK VINA RESULT:      -9.0      0.000      0.000
REMARK  Name = 
REMARK  7 active torsions:
REMARK  status: ('A' for Active; 'I' for Inactive)
REMARK    1  A    between atoms: C_1  and  C_2
REMARK    2  A    between atoms: C_4  and  C_5
REMARK    3  A    between atoms: C_6  and  C_7
REMARK    4  A    between atoms: N_9  and  C_10
REMARK    5  A    between atoms: C_13  and  N_14
REMARK    6  A    between atoms: C_16  and  C_17
REMARK    7  A    between atoms: C_22  and  C_23
REMARK                            x       y       z     vdW  Elec       q    Type
REMARK                         _______ _______ _______ _____ _____    ______ ____
ROOT
ATOM      1  C   UNL     1       0.959   8.949  19.680  0.00  0.00    +0.000 A 
ATOM      2  C   UNL     1       1.424   9.108  18.372  0.00  0.00    +0.000 A 
ATOM      3  C   UNL     1       2.325   8.199  17.813  0.00  0.00    +0.000 A 
ATOM      4  C   UNL     1       2.761   7.093  18.549  0.00  0.00    +0.000 A 
ATOM      5  C   UNL     1       2.334   6.941  19.873  0.00  0.00    +0.000 A 
ATOM      6  C   UNL     1       1.443   7.872  20.434  0.00  0.00    +0.000 A 
ENDROOT
BRANCH   4   7
ATOM      7  N   UNL     1       3.662   6.192  17.930  0.00  0.00    +0.000 N 
ATOM      8  N   UNL     1       4.871   6.668  17.523  0.00  0.00    +0.000 NA
ATOM      9  C   UNL     1       5.612   5.591  17.217  0.00  0.00    +0.000 A 
ATOM     10  C   UNL     1       4.820   4.424  17.278  0.00  0.00    +0.000 A 
ATOM     11  C   UNL     1       3.561   4.841  17.673  0.00  0.00    +0.000 A 
BRANCH   9  12
ATOM     12  C   UNL     1       7.068   5.668  16.832  0.00  0.00    +0.000 C 
ATOM     13  F   UNL     1       7.664   6.843  17.162  0.00  0.00    +0.000 F 
ATOM     14  F   UNL     1       7.787   4.682  17.437  0.00  0.00    +0.000 F 
ATOM     15  F   UNL     1       7.241   5.499  15.494  0.00  0.00    +0.000 F 
ENDBRANCH   9  12
BRANCH  11  16
ATOM     16  C   UNL     1       2.312   4.063  17.723  0.00  0.00    +0.000 C 
ATOM     17  F   UNL     1       1.221   4.702  17.244  0.00  0.00    +0.000 F 
ATOM     18  F   UNL     1       2.427   2.922  16.992  0.00  0.00    +0.000 F 
ATOM     19  F   UNL     1       2.027   3.681  18.992  0.00  0.00    +0.000 F 
ENDBRANCH  11  16
ENDBRANCH   4   7
BRANCH   1  22
ATOM     20  C   UNL     1       0.368  10.930  21.065  0.00  0.00    +0.000 C 
ATOM     21  O   UNL     1       1.506  11.343  21.264  0.00  0.00    +0.000 OA
ATOM     22  N   UNL     1       0.034   9.836  20.285  0.00  0.00    +0.000 N 
ATOM     23  H   UNL     1      -0.936   9.718  20.028  0.00  0.00    +0.000 HD
BRANCH  20  29
ATOM     24  C   UNL     1      -4.154  13.286  23.673  0.00  0.00    +0.000 C 
ATOM     25  C   UNL     1      -2.930  12.788  22.967  0.00  0.00    +0.000 A 
ATOM     26  C   UNL     1      -2.479  13.378  21.786  0.00  0.00    +0.000 A 
ATOM     27  C   UNL     1      -1.367  12.845  21.103  0.00  0.00    +0.000 A 
ATOM     28  C   UNL     1      -0.964  13.479  19.805  0.00  0.00    +0.000 C 
ATOM     29  C   UNL     1      -0.734  11.725  21.662  0.00  0.00    +0.000 A 
ATOM     30  C   UNL     1      -1.255  11.210  22.851  0.00  0.00    +0.000 A 
ATOM     31  N   UNL     1      -2.320  11.720  23.515  0.00  0.00    +0.000 NA
ENDBRANCH  20  29
ENDBRANCH   1  22
TORSDOF 5
ENDMDL
MODEL 2
REMARK VINA RESULT:      -8.9      0.787      1.315
REMARK  Name = 
REMARK  7 active torsions:
REMARK  status: ('A' for Active; 'I' for Inactive)
REMARK    1  A    between atoms: C_1  and  C_2
REMARK    2  A    between atoms: C_4  and  C_5
REMARK    3  A    between atoms: C_6  and  C_7
REMARK    4  A    between atoms: N_9  and  C_10
REMARK    5  A    between atoms: C_13  and  N_14
REMARK    6  A    between atoms: C_16  and  C_17
REMARK    7  A    between atoms: C_22  and  C_23
REMARK                            x       y       z     vdW  Elec       q    Type
REMARK                         _______ _______ _______ _____ _____    ______ ____
ROOT
ATOM      1  C   UNL     1       1.331   8.844  19.758  0.00  0.00    +0.000 A 
ATOM      2  C   UNL     1       1.691   7.665  20.413  0.00  0.00    +0.000 A 
ATOM      3  C   UNL     1       2.470   6.696  19.777  0.00  0.00    +0.000 A 
ATOM      4  C   UNL     1       2.927   6.902  18.472  0.00  0.00    +0.000 A 
ATOM      5  C   UNL     1       2.544   8.062  17.789  0.00  0.00    +0.000 A 
ATOM      6  C   UNL     1       1.743   9.022  18.431  0.00  0.00    +0.000 A 
ENDROOT
BRANCH   4   7
ATOM      7  N   UNL     1       3.727   5.896  17.878  0.00  0.00    +0.000 N 
ATOM      8  N   UNL     1       4.976   6.233  17.454  0.00  0.00    +0.000 NA
ATOM      9  C   UNL     1       5.601   5.077  17.177  0.00  0.00    +0.000 A 
ATOM     10  C   UNL     1       4.692   4.001  17.272  0.00  0.00    +0.000 A 
ATOM     11  C   UNL     1       3.485   4.556  17.658  0.00  0.00    +0.000 A 
BRANCH   9  12
ATOM     12  C   UNL     1       7.055   4.992  16.786  0.00  0.00    +0.000 C 
ATOM     13  F   UNL     1       7.830   4.338  17.689  0.00  0.00    +0.000 F 
ATOM     14  F   UNL     1       7.206   4.344  15.599  0.00  0.00    +0.000 F 
ATOM     15  F   UNL     1       7.601   6.227  16.619  0.00  0.00    +0.000 F 
ENDBRANCH   9  12
BRANCH  11  16
ATOM     16  C   UNL     1       2.163   3.913  17.733  0.00  0.00    +0.000 C 
ATOM     17  F   UNL     1       1.144   4.642  17.228  0.00  0.00    +0.000 F 
ATOM     18  F   UNL     1       2.160   2.739  17.047  0.00  0.00    +0.000 F 
ATOM     19  F   UNL     1       1.841   3.611  19.016  0.00  0.00    +0.000 F 
ENDBRANCH  11  16
ENDBRANCH   4   7
BRANCH   1  22
ATOM     20  C   UNL     1       0.661  10.265  21.688  0.00  0.00    +0.000 C 
ATOM     21  O   UNL     1       1.501   9.867  22.490  0.00  0.00    +0.000 OA
ATOM     22  N   UNL     1       0.556   9.863  20.367  0.00  0.00    +0.000 N 
ATOM     23  H   UNL     1      -0.035  10.406  19.753  0.00  0.00    +0.000 HD
BRANCH  20  29
ATOM     24  C   UNL     1      -3.488  13.736  23.567  0.00  0.00    +0.000 C 
ATOM     25  C   UNL     1      -2.320  12.923  23.098  0.00  0.00    +0.000 A 
ATOM     26  C   UNL     1      -1.320  13.477  22.300  0.00  0.00    +0.000 A 
ATOM     27  C   UNL     1      -0.270  12.673  21.813  0.00  0.00    +0.000 A 
ATOM     28  C   UNL     1       0.744  13.305  20.907  0.00  0.00    +0.000 C 
ATOM     29  C   UNL     1      -0.266  11.316  22.174  0.00  0.00    +0.000 A 
ATOM     30  C   UNL     1      -1.307  10.856  22.982  0.00  0.00    +0.000 A 
ATOM     31  N   UNL     1      -2.317  11.625  23.458  0.00  0.00    +0.000 NA
ENDBRANCH  20  29
ENDBRANCH   1  22
TORSDOF 5
ENDMDL
MODEL 3
REMARK VINA RESULT:      -8.9      0.898      1.550
REMARK  Name = 
REMARK  7 active torsions:
REMARK  status: ('A' for Active; 'I' for Inactive)
REMARK    1  A    between atoms: C_1  and  C_2
REMARK    2  A    between atoms: C_4  and  C_5
REMARK    3  A    between atoms: C_6  and  C_7
REMARK    4  A    between atoms: N_9  and  C_10
REMARK    5  A    between atoms: C_13  and  N_14
REMARK    6  A    between atoms: C_16  and  C_17
REMARK    7  A    between atoms: C_22  and  C_23
REMARK                            x       y       z     vdW  Elec       q    Type
REMARK                         _______ _______ _______ _____ _____    ______ ____
ROOT
ATOM      1  C   UNL     1       1.116   9.134  19.510  0.00  0.00    +0.000 A 
ATOM      2  C   UNL     1       1.593   9.217  18.200  0.00  0.00    +0.000 A 
ATOM      3  C   UNL     1       2.445   8.240  17.681  0.00  0.00    +0.000 A 
ATOM      4  C   UNL     1       2.819   7.142  18.461  0.00  0.00    +0.000 A 
ATOM      5  C   UNL     1       2.380   7.065  19.787  0.00  0.00    +0.000 A 
ATOM      6  C   UNL     1       1.538   8.063  20.307  0.00  0.00    +0.000 A 
ENDROOT
BRANCH   4   7
ATOM      7  N   UNL     1       3.672   6.171  17.882  0.00  0.00    +0.000 N 
ATOM      8  N   UNL     1       4.902   6.567  17.454  0.00  0.00    +0.000 NA
ATOM      9  C   UNL     1       5.588   5.442  17.195  0.00  0.00    +0.000 A 
ATOM     10  C   UNL     1       4.738   4.320  17.307  0.00  0.00    +0.000 A 
ATOM     11  C   UNL     1       3.503   4.816  17.684  0.00  0.00    +0.000 A 
BRANCH   9  12
ATOM     12  C   UNL     1       7.044   5.429  16.806  0.00  0.00    +0.000 C 
ATOM     13  F   UNL     1       7.782   4.499  17.466  0.00  0.00    +0.000 F 
ATOM     14  F   UNL     1       7.194   5.175  15.477  0.00  0.00    +0.000 F 
ATOM     15  F   UNL     1       7.634   6.634  17.033  0.00  0.00    +0.000 F 
ENDBRANCH   9  12
BRANCH  11  16
ATOM     16  C   UNL     1       2.216   4.105  17.769  0.00  0.00    +0.000 C 
ATOM     17  F   UNL     1       1.165   4.758  17.227  0.00  0.00    +0.000 F 
ATOM     18  F   UNL     1       2.285   2.909  17.125  0.00  0.00    +0.000 F 
ATOM     19  F   UNL     1       1.896   3.831  19.058  0.00  0.00    +0.000 F 
ENDBRANCH  11  16
ENDBRANCH   4   7
BRANCH   1  22
ATOM     20  C   UNL     1       0.629  11.220  20.777  0.00  0.00    +0.000 C 
ATOM     21  O   UNL     1       1.786  11.601  20.926  0.00  0.00    +0.000 OA
ATOM     22  N   UNL     1       0.237  10.092  20.076  0.00  0.00    +0.000 N 
ATOM     23  H   UNL     1      -0.742   9.995  19.846  0.00  0.00    +0.000 HD
BRANCH  20  29
ATOM     24  C   UNL     1      -2.982  15.211  22.734  0.00  0.00    +0.000 C 
ATOM     25  C   UNL     1      -2.128  14.081  22.245  0.00  0.00    +0.000 A 
ATOM     26  C   UNL     1      -2.081  12.860  22.918  0.00  0.00    +0.000 A 
ATOM     27  C   UNL     1      -1.216  11.838  22.479  0.00  0.00    +0.000 A 
ATOM     28  C   UNL     1      -1.157  10.569  23.276  0.00  0.00    +0.000 C 
ATOM     29  C   UNL     1      -0.429  12.092  21.345  0.00  0.00    +0.000 A 
ATOM     30  C   UNL     1      -0.551  13.342  20.736  0.00  0.00    +0.000 A 
ATOM     31  N   UNL     1      -1.385  14.327  21.149  0.00  0.00    +0.000 NA
ENDBRANCH  20  29
ENDBRANCH   1  22
TORSDOF 5
ENDMDL
MODEL 4
REMARK VINA RESULT:      -8.8      1.282      1.948
REMARK  Name = 
REMARK  7 active torsions:
REMARK  status: ('A' for Active; 'I' for Inactive)
REMARK    1  A    between atoms: C_1  and  C_2
REMARK    2  A    between atoms: C_4  and  C_5
REMARK    3  A    between atoms: C_6  and  C_7
REMARK    4  A    between atoms: N_9  and  C_10
REMARK    5  A    between atoms: C_13  and  N_14
REMARK    6  A    between atoms: C_16  and  C_17
REMARK    7  A    between atoms: C_22  and  C_23
REMARK                            x       y       z     vdW  Elec       q    Type
REMARK                         _______ _______ _______ _____ _____    ______ ____
ROOT
ATOM      1  C   UNL     1       1.450   8.955  19.735  0.00  0.00    +0.000 A 
ATOM      2  C   UNL     1       1.894   9.064  18.416  0.00  0.00    +0.000 A 
ATOM      3  C   UNL     1       2.604   8.028  17.807  0.00  0.00    +0.000 A 
ATOM      4  C   UNL     1       2.864   6.844  18.503  0.00  0.00    +0.000 A 
ATOM      5  C   UNL     1       2.458   6.734  19.838  0.00  0.00    +0.000 A 
ATOM      6  C   UNL     1       1.761   7.790  20.449  0.00  0.00    +0.000 A 
ENDROOT
BRANCH   4   7
ATOM      7  N   UNL     1       3.574   5.817  17.834  0.00  0.00    +0.000 N 
ATOM      8  N   UNL     1       4.783   6.120  17.288  0.00  0.00    +0.000 NA
ATOM      9  C   UNL     1       5.346   4.949  16.954  0.00  0.00    +0.000 A 
ATOM     10  C   UNL     1       4.424   3.896  17.142  0.00  0.00    +0.000 A 
ATOM     11  C   UNL     1       3.276   4.484  17.644  0.00  0.00    +0.000 A 
BRANCH   9  12
ATOM     12  C   UNL     1       6.752   4.825  16.421  0.00  0.00    +0.000 C 
ATOM     13  F   UNL     1       6.843   4.115  15.267  0.00  0.00    +0.000 F 
ATOM     14  F   UNL     1       7.289   6.051  16.168  0.00  0.00    +0.000 F 
ATOM     15  F   UNL     1       7.577   4.225  17.321  0.00  0.00    +0.000 F 
ENDBRANCH   9  12
BRANCH  11  16
ATOM     16  C   UNL     1       1.951   3.876  17.852  0.00  0.00    +0.000 C 
ATOM     17  F   UNL     1       1.556   3.795  19.141  0.00  0.00    +0.000 F 
ATOM     18  F   UNL     1       0.989   4.590  17.210  0.00  0.00    +0.000 F 
ATOM     19  F   UNL     1       1.906   2.621  17.340  0.00  0.00    +0.000 F 
ENDBRANCH  11  16
ENDBRANCH   4   7
BRANCH   1  22
ATOM     20  C   UNL     1      -0.527  10.444  19.992  0.00  0.00    +0.000 C 
ATOM     21  O   UNL     1      -1.204   9.986  19.076  0.00  0.00    +0.000 OA
ATOM     22  N   UNL     1       0.712   9.972  20.391  0.00  0.00    +0.000 N 
ATOM     23  H   UNL     1       1.075  10.290  21.279  0.00  0.00    +0.000 HD
BRANCH  20  29
ATOM     24  C   UNL     1      -2.533  15.215  22.444  0.00  0.00    +0.000 C 
ATOM     25  C   UNL     1      -2.082  13.901  21.882  0.00  0.00    +0.000 A 
ATOM     26  C   UNL     1      -1.800  12.813  22.709  0.00  0.00    +0.000 A 
ATOM     27  C   UNL     1      -1.309  11.611  22.161  0.00  0.00    +0.000 A 
ATOM     28  C   UNL     1      -0.961  10.496  23.101  0.00  0.00    +0.000 C 
ATOM     29  C   UNL     1      -1.136  11.551  20.770  0.00  0.00    +0.000 A 
ATOM     30  C   UNL     1      -1.453  12.689  20.026  0.00  0.00    +0.000 A 
ATOM     31  N   UNL     1      -1.930  13.846  20.545  0.00  0.00    +0.000 NA
ENDBRANCH  20  29
ENDBRANCH   1  22
TORSDOF 5
ENDMDL
MODEL 5
REMARK VINA RESULT:      -8.8      1.326      2.120
REMARK  Name = 
REMARK  7 active torsions:
REMARK  status: ('A' for Active; 'I' for Inactive)
REMARK    1  A    between atoms: C_1  and  C_2
REMARK    2  A    between atoms: C_4  and  C_5
REMARK    3  A    between atoms: C_6  and  C_7
REMARK    4  A    between atoms: N_9  and  C_10
REMARK    5  A    between atoms: C_13  and  N_14
REMARK    6  A    between atoms: C_16  and  C_17
REMARK    7  A    between atoms: C_22  and  C_23
REMARK                            x       y       z     vdW  Elec       q    Type
REMARK                         _______ _______ _______ _____ _____    ______ ____
ROOT
ATOM      1  C   UNL     1       1.445   9.029  19.689  0.00  0.00    +0.000 A 
ATOM      2  C   UNL     1       1.759   7.846  20.362  0.00  0.00    +0.000 A 
ATOM      3  C   UNL     1       2.449   6.814  19.722  0.00  0.00    +0.000 A 
ATOM      4  C   UNL     1       2.862   6.957  18.394  0.00  0.00    +0.000 A 
ATOM      5  C   UNL     1       2.522   8.121  17.695  0.00  0.00    +0.000 A 
ATOM      6  C   UNL     1       1.811   9.146  18.341  0.00  0.00    +0.000 A 
ENDROOT
BRANCH   4   7
ATOM      7  N   UNL     1       3.572   5.888  17.796  0.00  0.00    +0.000 N 
ATOM      8  N   UNL     1       4.793   6.148  17.255  0.00  0.00    +0.000 NA
ATOM      9  C   UNL     1       5.349   4.953  16.996  0.00  0.00    +0.000 A 
ATOM     10  C   UNL     1       4.412   3.923  17.226  0.00  0.00    +0.000 A 
ATOM     11  C   UNL     1       3.262   4.549  17.675  0.00  0.00    +0.000 A 
BRANCH   9  12
ATOM     12  C   UNL     1       6.761   4.786  16.495  0.00  0.00    +0.000 C 
ATOM     13  F   UNL     1       7.605   4.229  17.402  0.00  0.00    +0.000 F 
ATOM     14  F   UNL     1       6.798   3.993  15.389  0.00  0.00    +0.000 F 
ATOM     15  F   UNL     1       7.306   5.978  16.128  0.00  0.00    +0.000 F 
ENDBRANCH   9  12
BRANCH  11  16
ATOM     16  C   UNL     1       1.928   3.967  17.893  0.00  0.00    +0.000 C 
ATOM     17  F   UNL     1       1.500   3.983  19.174  0.00  0.00    +0.000 F 
ATOM     18  F   UNL     1       0.988   4.639  17.176  0.00  0.00    +0.000 F 
ATOM     19  F   UNL     1       1.884   2.678  17.473  0.00  0.00    +0.000 F 
ENDBRANCH  11  16
ENDBRANCH   4   7
BRANCH   1  22
ATOM     20  C   UNL     1      -0.520  10.526  19.982  0.00  0.00    +0.000 C 
ATOM     21  O   UNL     1      -1.280   9.963  19.199  0.00  0.00    +0.000 OA
ATOM     22  N   UNL     1       0.762  10.109  20.300  0.00  0.00    +0.000 N 
ATOM     23  H   UNL     1       1.209  10.528  21.103  0.00  0.00    +0.000 HD
BRANCH  20  29
ATOM     24  C   UNL     1      -2.212  15.543  22.166  0.00  0.00    +0.000 C 
ATOM     25  C   UNL     1      -1.853  14.174  21.673  0.00  0.00    +0.000 A 
ATOM     26  C   UNL     1      -1.703  13.099  22.550  0.00  0.00    +0.000 A 
ATOM     27  C   UNL     1      -1.295  11.840  22.069  0.00  0.00    +0.000 A 
ATOM     28  C   UNL     1      -1.088  10.736  23.063  0.00  0.00    +0.000 C 
ATOM     29  C   UNL     1      -1.065  11.711  20.690  0.00  0.00    +0.000 A 
ATOM     30  C   UNL     1      -1.248  12.842  19.893  0.00  0.00    +0.000 A 
ATOM     31  N   UNL     1      -1.645  14.054  20.347  0.00  0.00    +0.000 NA
ENDBRANCH  20  29
ENDBRANCH   1  22
TORSDOF 5
ENDMDL
MODEL 6
REMARK VINA RESULT:      -8.7      0.915      1.716
REMARK  Name = 
REMARK  7 active torsions:
REMARK  status: ('A' for Active; 'I' for Inactive)
REMARK    1  A    between atoms: C_1  and  C_2
REMARK    2  A    between atoms: C_4  and  C_5
REMARK    3  A    between atoms: C_6  and  C_7
REMARK    4  A    between atoms: N_9  and  C_10
REMARK    5  A    between atoms: C_13  and  N_14
REMARK    6  A    between atoms: C_16  and  C_17
REMARK    7  A    between atoms: C_22  and  C_23
REMARK                            x       y       z     vdW  Elec       q    Type
REMARK                         _______ _______ _______ _____ _____    ______ ____
ROOT
ATOM      1  C   UNL     1       1.007   9.208  19.457  0.00  0.00    +0.000 A 
ATOM      2  C   UNL     1       1.450   9.257  18.133  0.00  0.00    +0.000 A 
ATOM      3  C   UNL     1       2.319   8.288  17.628  0.00  0.00    +0.000 A 
ATOM      4  C   UNL     1       2.746   7.231  18.437  0.00  0.00    +0.000 A 
ATOM      5  C   UNL     1       2.342   7.190  19.776  0.00  0.00    +0.000 A 
ATOM      6  C   UNL     1       1.483   8.180  20.281  0.00  0.00    +0.000 A 
ENDROOT
BRANCH   4   7
ATOM      7  N   UNL     1       3.615   6.266  17.872  0.00  0.00    +0.000 N 
ATOM      8  N   UNL     1       4.832   6.678  17.425  0.00  0.00    +0.000 NA
ATOM      9  C   UNL     1       5.540   5.563  17.185  0.00  0.00    +0.000 A 
ATOM     10  C   UNL     1       4.715   4.426  17.328  0.00  0.00    +0.000 A 
ATOM     11  C   UNL     1       3.472   4.904  17.705  0.00  0.00    +0.000 A 
BRANCH   9  12
ATOM     12  C   UNL     1       6.993   5.571  16.784  0.00  0.00    +0.000 C 
ATOM     13  F   UNL     1       7.196   5.462  15.445  0.00  0.00    +0.000 F 
ATOM     14  F   UNL     1       7.603   6.723  17.178  0.00  0.00    +0.000 F 
ATOM     15  F   UNL     1       7.680   4.555  17.372  0.00  0.00    +0.000 F 
ENDBRANCH   9  12
BRANCH  11  16
ATOM     16  C   UNL     1       2.202   4.167  17.816  0.00  0.00    +0.000 C 
ATOM     17  F   UNL     1       2.202   2.941  17.249  0.00  0.00    +0.000 F 
ATOM     18  F   UNL     1       1.870   3.977  19.121  0.00  0.00    +0.000 F 
ATOM     19  F   UNL     1       1.184   4.867  17.258  0.00  0.00    +0.000 F 
ENDBRANCH  11  16
ENDBRANCH   4   7
BRANCH   1  22
ATOM     20  C   UNL     1       0.483  11.364  20.584  0.00  0.00    +0.000 C 
ATOM     21  O   UNL     1       1.621  11.822  20.611  0.00  0.00    +0.000 OA
ATOM     22  N   UNL     1       0.113  10.159  20.010  0.00  0.00    +0.000 N 
ATOM     23  H   UNL     1      -0.872   9.986  19.867  0.00  0.00    +0.000 HD
BRANCH  20  29
ATOM     24  C   UNL     1      -3.199  15.297  22.525  0.00  0.00    +0.000 C 
ATOM     25  C   UNL     1      -2.322  14.180  22.049  0.00  0.00    +0.000 A 
ATOM     26  C   UNL     1      -2.197  12.993  22.771  0.00  0.00    +0.000 A 
ATOM     27  C   UNL     1      -1.311  11.986  22.338  0.00  0.00    +0.000 A 
ATOM     28  C   UNL     1      -1.167  10.758  23.186  0.00  0.00    +0.000 C 
ATOM     29  C   UNL     1      -0.584  12.219  21.160  0.00  0.00    +0.000 A 
ATOM     30  C   UNL     1      -0.783  13.435  20.504  0.00  0.00    +0.000 A 
ATOM     31  N   UNL     1      -1.637  14.405  20.911  0.00  0.00    +0.000 NA
ENDBRANCH  20  29
ENDBRANCH   1  22
TORSDOF 5
ENDMDL
MODEL 7
REMARK VINA RESULT:      -8.6      1.011      1.837
REMARK  Name = 
REMARK  7 active torsions:
REMARK  status: ('A' for Active; 'I' for Inactive)
REMARK    1  A    between atoms: C_1  and  C_2
REMARK    2  A    between atoms: C_4  and  C_5
REMARK    3  A    between atoms: C_6  and  C_7
REMARK    4  A    between atoms: N_9  and  C_10
REMARK    5  A    between atoms: C_13  and  N_14
REMARK    6  A    between atoms: C_16  and  C_17
REMARK    7  A    between atoms: C_22  and  C_23
REMARK                            x       y       z     vdW  Elec       q    Type
REMARK                         _______ _______ _______ _____ _____    ______ ____
ROOT
ATOM      1  C   UNL     1       1.058   9.231  19.584  0.00  0.00    +0.000 A 
ATOM      2  C   UNL     1       1.533   8.165  20.351  0.00  0.00    +0.000 A 
ATOM      3  C   UNL     1       2.353   7.183  19.789  0.00  0.00    +0.000 A 
ATOM      4  C   UNL     1       2.734   7.264  18.447  0.00  0.00    +0.000 A 
ATOM      5  C   UNL     1       2.236   8.306  17.657  0.00  0.00    +0.000 A 
ATOM      6  C   UNL     1       1.396   9.278  18.225  0.00  0.00    +0.000 A 
ENDROOT
BRANCH   4   7
ATOM      7  N   UNL     1       3.579   6.252  17.930  0.00  0.00    +0.000 N 
ATOM      8  N   UNL     1       4.822   6.605  17.504  0.00  0.00    +0.000 NA
ATOM      9  C   UNL     1       5.492   5.457  17.312  0.00  0.00    +0.000 A 
ATOM     10  C   UNL     1       4.621   4.357  17.463  0.00  0.00    +0.000 A 
ATOM     11  C   UNL     1       3.388   4.892  17.795  0.00  0.00    +0.000 A 
BRANCH   9  12
ATOM     12  C   UNL     1       6.955   5.400  16.949  0.00  0.00    +0.000 C 
ATOM     13  F   UNL     1       7.554   6.618  16.883  0.00  0.00    +0.000 F 
ATOM     14  F   UNL     1       7.656   4.668  17.857  0.00  0.00    +0.000 F 
ATOM     15  F   UNL     1       7.147   4.800  15.743  0.00  0.00    +0.000 F 
ENDBRANCH   9  12
BRANCH  11  16
ATOM     16  C   UNL     1       2.088   4.208  17.892  0.00  0.00    +0.000 C 
ATOM     17  F   UNL     1       1.595   4.095  19.144  0.00  0.00    +0.000 F 
ATOM     18  F   UNL     1       1.142   4.871  17.175  0.00  0.00    +0.000 F 
ATOM     19  F   UNL     1       2.158   2.956  17.375  0.00  0.00    +0.000 F 
ENDBRANCH  11  16
ENDBRANCH   4   7
BRANCH   1  22
ATOM     20  C   UNL     1       0.691  11.351  20.834  0.00  0.00    +0.000 C 
ATOM     21  O   UNL     1       1.867  11.634  21.036  0.00  0.00    +0.000 OA
ATOM     22  N   UNL     1       0.238  10.259  20.112  0.00  0.00    +0.000 N 
ATOM     23  H   UNL     1      -0.735  10.244  19.838  0.00  0.00    +0.000 HD
BRANCH  20  29
ATOM     24  C   UNL     1      -2.653  15.631  22.652  0.00  0.00    +0.000 C 
ATOM     25  C   UNL     1      -1.877  14.433  22.193  0.00  0.00    +0.000 A 
ATOM     26  C   UNL     1      -1.980  13.205  22.846  0.00  0.00    +0.000 A 
ATOM     27  C   UNL     1      -1.187  12.114  22.439  0.00  0.00    +0.000 A 
ATOM     28  C   UNL     1      -1.289  10.836  23.216  0.00  0.00    +0.000 C 
ATOM     29  C   UNL     1      -0.316  12.309  21.356  0.00  0.00    +0.000 A 
ATOM     30  C   UNL     1      -0.289  13.572  20.763  0.00  0.00    +0.000 A 
ATOM     31  N   UNL     1      -1.053  14.624  21.145  0.00  0.00    +0.000 NA
ENDBRANCH  20  29
ENDBRANCH   1  22
TORSDOF 5
ENDMDL
MODEL 8
REMARK VINA RESULT:      -8.6      0.441      1.404
REMARK  Name = 
REMARK  7 active torsions:
REMARK  status: ('A' for Active; 'I' for Inactive)
REMARK    1  A    between atoms: C_1  and  C_2
REMARK    2  A    between atoms: C_4  and  C_5
REMARK    3  A    between atoms: C_6  and  C_7
REMARK    4  A    between atoms: N_9  and  C_10
REMARK    5  A    between atoms: C_13  and  N_14
REMARK    6  A    between atoms: C_16  and  C_17
REMARK    7  A    between atoms: C_22  and  C_23
REMARK                            x       y       z     vdW  Elec       q    Type
REMARK                         _______ _______ _______ _____ _____    ______ ____
ROOT
ATOM      1  C   UNL     1       0.860   8.921  19.824  0.00  0.00    +0.000 A 
ATOM      2  C   UNL     1       1.317   7.823  20.557  0.00  0.00    +0.000 A 
ATOM      3  C   UNL     1       2.211   6.907  19.999  0.00  0.00    +0.000 A 
ATOM      4  C   UNL     1       2.686   7.086  18.697  0.00  0.00    +0.000 A 
ATOM      5  C   UNL     1       2.208   8.160  17.937  0.00  0.00    +0.000 A 
ATOM      6  C   UNL     1       1.294   9.066  18.500  0.00  0.00    +0.000 A 
ENDROOT
BRANCH   4   7
ATOM      7  N   UNL     1       3.603   6.137  18.183  0.00  0.00    +0.000 N 
ATOM      8  N   UNL     1       4.872   6.547  17.913  0.00  0.00    +0.000 NA
ATOM      9  C   UNL     1       5.587   5.432  17.692  0.00  0.00    +0.000 A 
ATOM     10  C   UNL     1       4.734   4.308  17.664  0.00  0.00    +0.000 A 
ATOM     11  C   UNL     1       3.462   4.791  17.916  0.00  0.00    +0.000 A 
BRANCH   9  12
ATOM     12  C   UNL     1       7.078   5.433  17.472  0.00  0.00    +0.000 C 
ATOM     13  F   UNL     1       7.545   4.314  16.857  0.00  0.00    +0.000 F 
ATOM     14  F   UNL     1       7.460   6.489  16.702  0.00  0.00    +0.000 F 
ATOM     15  F   UNL     1       7.757   5.551  18.645  0.00  0.00    +0.000 F 
ENDBRANCH   9  12
BRANCH  11  16
ATOM     16  C   UNL     1       2.176   4.078  17.827  0.00  0.00    +0.000 C 
ATOM     17  F   UNL     1       1.603   3.784  19.014  0.00  0.00    +0.000 F 
ATOM     18  F   UNL     1       1.263   4.817  17.142  0.00  0.00    +0.000 F 
ATOM     19  F   UNL     1       2.314   2.911  17.150  0.00  0.00    +0.000 F 
ENDBRANCH  11  16
ENDBRANCH   4   7
BRANCH   1  22
ATOM     20  C   UNL     1       0.315  10.909  21.217  0.00  0.00    +0.000 C 
ATOM     21  O   UNL     1       1.457  11.185  21.572  0.00  0.00    +0.000 OA
ATOM     22  N   UNL     1      -0.034   9.886  20.351  0.00  0.00    +0.000 N 
ATOM     23  H   UNL     1      -0.970   9.886  19.973  0.00  0.00    +0.000 HD
BRANCH  20  29
ATOM     24  C   UNL     1      -4.181  13.682  23.431  0.00  0.00    +0.000 C 
ATOM     25  C   UNL     1      -2.953  13.070  22.826  0.00  0.00    +0.000 A 
ATOM     26  C   UNL     1      -2.382  13.582  21.661  0.00  0.00    +0.000 A 
ATOM     27  C   UNL     1      -1.271  12.945  21.074  0.00  0.00    +0.000 A 
ATOM     28  C   UNL     1      -0.737  13.499  19.787  0.00  0.00    +0.000 C 
ATOM     29  C   UNL     1      -0.761  11.803  21.711  0.00  0.00    +0.000 A 
ATOM     30  C   UNL     1      -1.397  11.372  22.877  0.00  0.00    +0.000 A 
ATOM     31  N   UNL     1      -2.462  11.982  23.450  0.00  0.00    +0.000 NA
ENDBRANCH  20  29
ENDBRANCH   1  22
TORSDOF 5
ENDMDL
