MODEL 1
REMARK VINA RESULT:      -7.9      0.000      0.000
REMARK  Name = 
REMARK  5 active torsions:
REMARK  status: ('A' for Active; 'I' for Inactive)
REMARK    1  A    between atoms: C_1  and  N_2
REMARK    2  A    between atoms: C_4  and  C_5
REMARK    3  A    between atoms: C_10  and  C_11
REMARK    4  A    between atoms: C_14  and  N_15
REMARK    5  A    between atoms: C_16  and  C_18
REMARK                            x       y       z     vdW  Elec       q    Type
REMARK                         _______ _______ _______ _____ _____    ______ ____
ROOT
ATOM      1  C   UNL     1       6.270   6.062  17.951  0.00  0.00    +0.000 A 
ATOM      2  C   UNL     1       7.298   5.857  18.856  0.00  0.00    +0.000 A 
ATOM      3  C   UNL     1       8.269   6.915  18.840  0.00  0.00    +0.000 A 
ATOM      4  C   UNL     1       7.924   7.908  17.950  0.00  0.00    +0.000 A 
ATOM      5  S   UNL     1       6.589   7.446  17.010  0.00  0.00    +0.000 S 
ENDROOT
BRANCH   1  11
ATOM      6  C   UNL     1       5.923   3.784  15.788  0.00  0.00    +0.000 C 
ATOM      7  N   UNL     1       4.985   4.220  16.800  0.00  0.00    +0.000 N 
ATOM      8  N   UNL     1       3.765   3.640  16.808  0.00  0.00    +0.000 NA
ATOM      9  C   UNL     1       3.080   4.290  17.765  0.00  0.00    +0.000 A 
ATOM     10  C   UNL     1       3.892   5.285  18.370  0.00  0.00    +0.000 A 
ATOM     11  C   UNL     1       5.115   5.232  17.730  0.00  0.00    +0.000 A 
BRANCH   9  12
ATOM     12  C   UNL     1       1.646   3.987  18.101  0.00  0.00    +0.000 C 
ATOM     13  F   UNL     1       1.349   2.660  18.108  0.00  0.00    +0.000 F 
ATOM     14  F   UNL     1       1.302   4.471  19.325  0.00  0.00    +0.000 F 
ATOM     15  F   UNL     1       0.796   4.568  17.210  0.00  0.00    +0.000 F 
ENDBRANCH   9  12
ENDBRANCH   1  11
BRANCH   4  16
ATOM     16  N   UNL     1       8.571   9.111  17.708  0.00  0.00    +0.000 N 
ATOM     17  C   UNL     1       8.999   9.969  18.715  0.00  0.00    +0.000 C 
ATOM     18  O   UNL     1       8.978   9.721  19.918  0.00  0.00    +0.000 OA
ATOM     19  H   UNL     1       8.861   9.297  16.754  0.00  0.00    +0.000 HD
BRANCH  17  20
ATOM     20  C   UNL     1       9.577  11.282  18.319  0.00  0.00    +0.000 A 
ATOM     21  C   UNL     1      10.924  11.523  18.652  0.00  0.00    +0.000 A 
ATOM     22  C   UNL     1      11.534  12.736  18.336  0.00  0.00    +0.000 A 
ATOM     23  C   UNL     1      10.806  13.728  17.683  0.00  0.00    +0.000 A 
ATOM     24  C   UNL     1       9.471  13.498  17.343  0.00  0.00    +0.000 A 
ATOM     25  C   UNL     1       8.866  12.282  17.659  0.00  0.00    +0.000 A 
ATOM     26  F   UNL     1       7.582  12.100  17.309  0.00  0.00    +0.000 F 
ENDBRANCH  17  20
ENDBRANCH   4  16
TORSDOF 4
ENDMDL
MODEL 2
REMARK VINA RESULT:      -7.9      0.966      1.327
REMARK  Name = 
REMARK  5 active torsions:
REMARK  status: ('A' for Active; 'I' for Inactive)
REMARK    1  A    between atoms: C_1  and  N_2
REMARK    2  A    between atoms: C_4  and  C_5
REMARK    3  A    between atoms: C_10  and  C_11
REMARK    4  A    between atoms: C_14  and  N_15
REMARK    5  A    between atoms: C_16  and  C_18
REMARK                            x       y       z     vdW  Elec       q    Type
REMARK                         _______ _______ _______ _____ _____    ______ ____
ROOT
ATOM      1  C   UNL     1       6.288   6.195  17.856  0.00  0.00    +0.000 A 
ATOM      2  C   UNL     1       7.366   6.011  18.706  0.00  0.00    +0.000 A 
ATOM      3  C   UNL     1       8.287   7.113  18.676  0.00  0.00    +0.000 A 
ATOM      4  C   UNL     1       7.857   8.113  17.833  0.00  0.00    +0.000 A 
ATOM      5  S   UNL     1       6.500   7.616  16.943  0.00  0.00    +0.000 S 
ENDROOT
BRANCH   1  11
ATOM      6  C   UNL     1       6.023   3.827  15.778  0.00  0.00    +0.000 C 
ATOM      7  N   UNL     1       5.068   4.269  16.772  0.00  0.00    +0.000 N 
ATOM      8  N   UNL     1       3.868   3.649  16.800  0.00  0.00    +0.000 NA
ATOM      9  C   UNL     1       3.160   4.311  17.731  0.00  0.00    +0.000 A 
ATOM     10  C   UNL     1       3.937   5.354  18.300  0.00  0.00    +0.000 A 
ATOM     11  C   UNL     1       5.162   5.318  17.664  0.00  0.00    +0.000 A 
BRANCH   9  12
ATOM     12  C   UNL     1       1.735   3.974  18.076  0.00  0.00    +0.000 C 
ATOM     13  F   UNL     1       1.459   2.642  18.038  0.00  0.00    +0.000 F 
ATOM     14  F   UNL     1       1.402   4.407  19.321  0.00  0.00    +0.000 F 
ATOM     15  F   UNL     1       0.863   4.573  17.218  0.00  0.00    +0.000 F 
ENDBRANCH   9  12
ENDBRANCH   1  11
BRANCH   4  16
ATOM     16  N   UNL     1       8.437   9.351  17.597  0.00  0.00    +0.000 N 
ATOM     17  C   UNL     1       9.039  10.118  18.588  0.00  0.00    +0.000 C 
ATOM     18  O   UNL     1       9.245   9.755  19.744  0.00  0.00    +0.000 OA
ATOM     19  H   UNL     1       8.543   9.636  16.630  0.00  0.00    +0.000 HD
BRANCH  17  20
ATOM     20  C   UNL     1       9.522  11.478  18.225  0.00  0.00    +0.000 A 
ATOM     21  C   UNL     1       8.555  12.494  18.096  0.00  0.00    +0.000 A 
ATOM     22  C   UNL     1       8.922  13.791  17.737  0.00  0.00    +0.000 A 
ATOM     23  C   UNL     1      10.261  14.090  17.499  0.00  0.00    +0.000 A 
ATOM     24  C   UNL     1      11.229  13.092  17.629  0.00  0.00    +0.000 A 
ATOM     25  C   UNL     1      10.858  11.797  17.990  0.00  0.00    +0.000 A 
ATOM     26  F   UNL     1      11.820  10.869  18.111  0.00  0.00    +0.000 F 
ENDBRANCH  17  20
ENDBRANCH   4  16
TORSDOF 4
ENDMDL
MODEL 3
REMARK VINA RESULT:      -7.7      5.576      7.379
REMARK  Name = 
REMARK  5 active torsions:
REMARK  status: ('A' for Active; 'I' for Inactive)
REMARK    1  A    between atoms: C_1  and  N_2
REMARK    2  A    between atoms: C_4  and  C_5
REMARK    3  A    between atoms: C_10  and  C_11
REMARK    4  A    between atoms: C_14  and  N_15
REMARK    5  A    between atoms: C_16  and  C_18
REMARK                            x       y       z     vdW  Elec       q    Type
REMARK                         _______ _______ _______ _____ _____    ______ ____
ROOT
ATOM      1  C   UNL     1       4.356   5.166  16.899  0.00  0.00    +0.000 A 
ATOM      2  C   UNL     1       3.499   4.403  17.676  0.00  0.00    +0.000 A 
ATOM      3  C   UNL     1       2.717   5.199  18.581  0.00  0.00    +0.000 A 
ATOM      4  C   UNL     1       2.980   6.543  18.433  0.00  0.00    +0.000 A 
ATOM      5  S   UNL     1       4.297   6.795  17.392  0.00  0.00    +0.000 S 
ENDROOT
BRANCH   1  11
ATOM      6  C   UNL     1       7.466   4.653  17.132  0.00  0.00    +0.000 C 
ATOM      7  N   UNL     1       6.601   4.459  15.988  0.00  0.00    +0.000 N 
ATOM      8  N   UNL     1       7.178   4.068  14.831  0.00  0.00    +0.000 NA
ATOM      9  C   UNL     1       6.179   4.062  13.931  0.00  0.00    +0.000 A 
ATOM     10  C   UNL     1       4.957   4.445  14.543  0.00  0.00    +0.000 A 
ATOM     11  C   UNL     1       5.249   4.707  15.867  0.00  0.00    +0.000 A 
BRANCH   9  12
ATOM     12  C   UNL     1       6.378   3.711  12.483  0.00  0.00    +0.000 C 
ATOM     13  F   UNL     1       6.807   2.437  12.277  0.00  0.00    +0.000 F 
ATOM     14  F   UNL     1       5.231   3.859  11.767  0.00  0.00    +0.000 F 
ATOM     15  F   UNL     1       7.299   4.527  11.898  0.00  0.00    +0.000 F 
ENDBRANCH   9  12
ENDBRANCH   1  11
BRANCH   4  16
ATOM     16  N   UNL     1       2.377   7.614  19.075  0.00  0.00    +0.000 N 
ATOM     17  C   UNL     1       1.644   7.491  20.250  0.00  0.00    +0.000 C 
ATOM     18  O   UNL     1       1.545   6.469  20.924  0.00  0.00    +0.000 OA
ATOM     19  H   UNL     1       2.604   8.544  18.738  0.00  0.00    +0.000 HD
BRANCH  17  20
ATOM     20  C   UNL     1       0.953   8.701  20.775  0.00  0.00    +0.000 A 
ATOM     21  C   UNL     1       0.868   8.841  22.174  0.00  0.00    +0.000 A 
ATOM     22  C   UNL     1       0.218   9.934  22.746  0.00  0.00    +0.000 A 
ATOM     23  C   UNL     1      -0.359  10.901  21.928  0.00  0.00    +0.000 A 
ATOM     24  C   UNL     1      -0.277  10.776  20.539  0.00  0.00    +0.000 A 
ATOM     25  C   UNL     1       0.376   9.682  19.972  0.00  0.00    +0.000 A 
ATOM     26  F   UNL     1       0.438   9.602  18.633  0.00  0.00    +0.000 F 
ENDBRANCH  17  20
ENDBRANCH   4  16
TORSDOF 4
ENDMDL
MODEL 4
REMARK VINA RESULT:      -7.7      5.573      7.102
REMARK  Name = 
REMARK  5 active torsions:
REMARK  status: ('A' for Active; 'I' for Inactive)
REMARK    1  A    between atoms: C_1  and  N_2
REMARK    2  A    between atoms: C_4  and  C_5
REMARK    3  A    between atoms: C_10  and  C_11
REMARK    4  A    between atoms: C_14  and  N_15
REMARK    5  A    between atoms: C_16  and  C_18
REMARK                            x       y       z     vdW  Elec       q    Type
REMARK                         _______ _______ _______ _____ _____    ______ ____
ROOT
ATOM      1  C   UNL     1       4.297   5.094  16.920  0.00  0.00    +0.000 A 
ATOM      2  C   UNL     1       3.379   4.326  17.617  0.00  0.00    +0.000 A 
ATOM      3  C   UNL     1       2.608   5.098  18.551  0.00  0.00    +0.000 A 
ATOM      4  C   UNL     1       2.939   6.433  18.502  0.00  0.00    +0.000 A 
ATOM      5  S   UNL     1       4.299   6.688  17.520  0.00  0.00    +0.000 S 
ENDROOT
BRANCH   1  11
ATOM      6  C   UNL     1       7.416   4.641  17.154  0.00  0.00    +0.000 C 
ATOM      7  N   UNL     1       6.557   4.438  16.007  0.00  0.00    +0.000 N 
ATOM      8  N   UNL     1       7.143   4.068  14.848  0.00  0.00    +0.000 NA
ATOM      9  C   UNL     1       6.146   4.049  13.947  0.00  0.00    +0.000 A 
ATOM     10  C   UNL     1       4.915   4.403  14.559  0.00  0.00    +0.000 A 
ATOM     11  C   UNL     1       5.200   4.660  15.886  0.00  0.00    +0.000 A 
BRANCH   9  12
ATOM     12  C   UNL     1       6.354   3.713  12.496  0.00  0.00    +0.000 C 
ATOM     13  F   UNL     1       6.800   2.446  12.281  0.00  0.00    +0.000 F 
ATOM     14  F   UNL     1       5.207   3.851  11.778  0.00  0.00    +0.000 F 
ATOM     15  F   UNL     1       7.265   4.546  11.921  0.00  0.00    +0.000 F 
ENDBRANCH   9  12
ENDBRANCH   1  11
BRANCH   4  16
ATOM     16  N   UNL     1       2.368   7.489  19.198  0.00  0.00    +0.000 N 
ATOM     17  C   UNL     1       1.679   8.530  18.584  0.00  0.00    +0.000 C 
ATOM     18  O   UNL     1       1.382   8.583  17.393  0.00  0.00    +0.000 OA
ATOM     19  H   UNL     1       2.340   7.417  20.209  0.00  0.00    +0.000 HD
BRANCH  17  20
ATOM     20  C   UNL     1       1.215   9.660  19.434  0.00  0.00    +0.000 A 
ATOM     21  C   UNL     1       1.407  10.964  18.938  0.00  0.00    +0.000 A 
ATOM     22  C   UNL     1       1.019  12.078  19.682  0.00  0.00    +0.000 A 
ATOM     23  C   UNL     1       0.437  11.905  20.935  0.00  0.00    +0.000 A 
ATOM     24  C   UNL     1       0.237  10.617  21.435  0.00  0.00    +0.000 A 
ATOM     25  C   UNL     1       0.624   9.505  20.687  0.00  0.00    +0.000 A 
ATOM     26  F   UNL     1       0.408   8.284  21.202  0.00  0.00    +0.000 F 
ENDBRANCH  17  20
ENDBRANCH   4  16
TORSDOF 4
ENDMDL
MODEL 5
REMARK VINA RESULT:      -7.6      5.565      7.058
REMARK  Name = 
REMARK  5 active torsions:
REMARK  status: ('A' for Active; 'I' for Inactive)
REMARK    1  A    between atoms: C_1  and  N_2
REMARK    2  A    between atoms: C_4  and  C_5
REMARK    3  A    between atoms: C_10  and  C_11
REMARK    4  A    between atoms: C_14  and  N_15
REMARK    5  A    between atoms: C_16  and  C_18
REMARK                            x       y       z     vdW  Elec       q    Type
REMARK                         _______ _______ _______ _____ _____    ______ ____
ROOT
ATOM      1  C   UNL     1       4.335   5.112  16.986  0.00  0.00    +0.000 A 
ATOM      2  C   UNL     1       3.429   4.302  17.651  0.00  0.00    +0.000 A 
ATOM      3  C   UNL     1       2.619   5.030  18.587  0.00  0.00    +0.000 A 
ATOM      4  C   UNL     1       2.910   6.376  18.571  0.00  0.00    +0.000 A 
ATOM      5  S   UNL     1       4.278   6.692  17.619  0.00  0.00    +0.000 S 
ENDROOT
BRANCH   1  11
ATOM      6  C   UNL     1       7.467   4.787  17.254  0.00  0.00    +0.000 C 
ATOM      7  N   UNL     1       6.631   4.562  16.095  0.00  0.00    +0.000 N 
ATOM      8  N   UNL     1       7.247   4.229  14.939  0.00  0.00    +0.000 NA
ATOM      9  C   UNL     1       6.262   4.179  14.025  0.00  0.00    +0.000 A 
ATOM     10  C   UNL     1       5.010   4.475  14.625  0.00  0.00    +0.000 A 
ATOM     11  C   UNL     1       5.268   4.729  15.958  0.00  0.00    +0.000 A 
BRANCH   9  12
ATOM     12  C   UNL     1       6.502   3.869  12.574  0.00  0.00    +0.000 C 
ATOM     13  F   UNL     1       7.379   4.712  11.967  0.00  0.00    +0.000 F 
ATOM     14  F   UNL     1       6.986   2.610  12.401  0.00  0.00    +0.000 F 
ATOM     15  F   UNL     1       5.345   3.934  11.856  0.00  0.00    +0.000 F 
ENDBRANCH   9  12
ENDBRANCH   1  11
BRANCH   4  16
ATOM     16  N   UNL     1       2.295   7.399  19.279  0.00  0.00    +0.000 N 
ATOM     17  C   UNL     1       1.726   8.516  18.676  0.00  0.00    +0.000 C 
ATOM     18  O   UNL     1       1.583   8.676  17.467  0.00  0.00    +0.000 OA
ATOM     19  H   UNL     1       2.139   7.248  20.270  0.00  0.00    +0.000 HD
BRANCH  17  20
ATOM     20  C   UNL     1       1.201   9.595  19.556  0.00  0.00    +0.000 A 
ATOM     21  C   UNL     1       0.561   9.204  20.748  0.00  0.00    +0.000 A 
ATOM     22  C   UNL     1       0.022  10.153  21.616  0.00  0.00    +0.000 A 
ATOM     23  C   UNL     1       0.113  11.507  21.304  0.00  0.00    +0.000 A 
ATOM     24  C   UNL     1       0.750  11.907  20.128  0.00  0.00    +0.000 A 
ATOM     25  C   UNL     1       1.289  10.955  19.263  0.00  0.00    +0.000 A 
ATOM     26  F   UNL     1       1.899  11.382  18.146  0.00  0.00    +0.000 F 
ENDBRANCH  17  20
ENDBRANCH   4  16
TORSDOF 4
ENDMDL
MODEL 6
REMARK VINA RESULT:      -7.5      5.460      7.188
REMARK  Name = 
REMARK  5 active torsions:
REMARK  status: ('A' for Active; 'I' for Inactive)
REMARK    1  A    between atoms: C_1  and  N_2
REMARK    2  A    between atoms: C_4  and  C_5
REMARK    3  A    between atoms: C_10  and  C_11
REMARK    4  A    between atoms: C_14  and  N_15
REMARK    5  A    between atoms: C_16  and  C_18
REMARK                            x       y       z     vdW  Elec       q    Type
REMARK                         _______ _______ _______ _____ _____    ______ ____
ROOT
ATOM      1  C   UNL     1       4.493   4.852  17.873  0.00  0.00    +0.000 A 
ATOM      2  C   UNL     1       3.964   3.950  18.781  0.00  0.00    +0.000 A 
ATOM      3  C   UNL     1       3.132   4.582  19.767  0.00  0.00    +0.000 A 
ATOM      4  C   UNL     1       3.026   5.937  19.550  0.00  0.00    +0.000 A 
ATOM      5  S   UNL     1       4.089   6.443  18.328  0.00  0.00    +0.000 S 
ENDROOT
BRANCH   1  11
ATOM      6  C   UNL     1       7.651   4.773  17.780  0.00  0.00    +0.000 C 
ATOM      7  N   UNL     1       6.709   4.506  16.715  0.00  0.00    +0.000 N 
ATOM      8  N   UNL     1       7.213   4.249  15.488  0.00  0.00    +0.000 NA
ATOM      9  C   UNL     1       6.138   4.139  14.689  0.00  0.00    +0.000 A 
ATOM     10  C   UNL     1       4.943   4.321  15.434  0.00  0.00    +0.000 A 
ATOM     11  C   UNL     1       5.330   4.566  16.737  0.00  0.00    +0.000 A 
BRANCH   9  12
ATOM     12  C   UNL     1       6.234   3.880  13.211  0.00  0.00    +0.000 C 
ATOM     13  F   UNL     1       7.134   4.672  12.569  0.00  0.00    +0.000 F 
ATOM     14  F   UNL     1       6.587   2.593  12.947  0.00  0.00    +0.000 F 
ATOM     15  F   UNL     1       5.036   4.081  12.594  0.00  0.00    +0.000 F 
ENDBRANCH   9  12
ENDBRANCH   1  11
BRANCH   4  16
ATOM     16  N   UNL     1       2.262   6.864  20.244  0.00  0.00    +0.000 N 
ATOM     17  C   UNL     1       1.768   8.033  19.674  0.00  0.00    +0.000 C 
ATOM     18  O   UNL     1       1.831   8.326  18.483  0.00  0.00    +0.000 OA
ATOM     19  H   UNL     1       1.941   6.601  21.169  0.00  0.00    +0.000 HD
BRANCH  17  20
ATOM     20  C   UNL     1       1.060   8.998  20.558  0.00  0.00    +0.000 A 
ATOM     21  C   UNL     1       0.619   8.526  21.810  0.00  0.00    +0.000 A 
ATOM     22  C   UNL     1      -0.071   9.361  22.688  0.00  0.00    +0.000 A 
ATOM     23  C   UNL     1      -0.333  10.680  22.327  0.00  0.00    +0.000 A 
ATOM     24  C   UNL     1       0.103  11.161  21.090  0.00  0.00    +0.000 A 
ATOM     25  C   UNL     1       0.795  10.323  20.216  0.00  0.00    +0.000 A 
ATOM     26  F   UNL     1       1.203  10.826  19.040  0.00  0.00    +0.000 F 
ENDBRANCH  17  20
ENDBRANCH   4  16
TORSDOF 4
ENDMDL
MODEL 7
REMARK VINA RESULT:      -7.5      0.884      1.198
REMARK  Name = 
REMARK  5 active torsions:
REMARK  status: ('A' for Active; 'I' for Inactive)
REMARK    1  A    between atoms: C_1  and  N_2
REMARK    2  A    between atoms: C_4  and  C_5
REMARK    3  A    between atoms: C_10  and  C_11
REMARK    4  A    between atoms: C_14  and  N_15
REMARK    5  A    between atoms: C_16  and  C_18
REMARK                            x       y       z     vdW  Elec       q    Type
REMARK                         _______ _______ _______ _____ _____    ______ ____
ROOT
ATOM      1  C   UNL     1       6.446   6.300  17.890  0.00  0.00    +0.000 A 
ATOM      2  C   UNL     1       7.506   6.095  18.757  0.00  0.00    +0.000 A 
ATOM      3  C   UNL     1       8.419   7.203  18.786  0.00  0.00    +0.000 A 
ATOM      4  C   UNL     1       8.000   8.228  17.968  0.00  0.00    +0.000 A 
ATOM      5  S   UNL     1       6.667   7.753  17.031  0.00  0.00    +0.000 S 
ENDROOT
BRANCH   1  11
ATOM      6  C   UNL     1       6.225   4.036  15.696  0.00  0.00    +0.000 C 
ATOM      7  N   UNL     1       5.256   4.418  16.700  0.00  0.00    +0.000 N 
ATOM      8  N   UNL     1       4.062   3.787  16.685  0.00  0.00    +0.000 NA
ATOM      9  C   UNL     1       3.338   4.395  17.640  0.00  0.00    +0.000 A 
ATOM     10  C   UNL     1       4.098   5.416  18.268  0.00  0.00    +0.000 A 
ATOM     11  C   UNL     1       5.330   5.423  17.643  0.00  0.00    +0.000 A 
BRANCH   9  12
ATOM     12  C   UNL     1       1.914   4.027  17.953  0.00  0.00    +0.000 C 
ATOM     13  F   UNL     1       0.994   4.707  17.217  0.00  0.00    +0.000 F 
ATOM     14  F   UNL     1       1.678   2.703  17.746  0.00  0.00    +0.000 F 
ATOM     15  F   UNL     1       1.616   4.267  19.260  0.00  0.00    +0.000 F 
ENDBRANCH   9  12
ENDBRANCH   1  11
BRANCH   4  16
ATOM     16  N   UNL     1       8.577   9.477  17.787  0.00  0.00    +0.000 N 
ATOM     17  C   UNL     1       9.078  10.250  18.829  0.00  0.00    +0.000 C 
ATOM     18  O   UNL     1       9.190   9.884  19.996  0.00  0.00    +0.000 OA
ATOM     19  H   UNL     1       8.759   9.769  16.833  0.00  0.00    +0.000 HD
BRANCH  17  20
ATOM     20  C   UNL     1       9.566  11.620  18.513  0.00  0.00    +0.000 A 
ATOM     21  C   UNL     1      10.493  11.749  17.461  0.00  0.00    +0.000 A 
ATOM     22  C   UNL     1      11.015  12.996  17.116  0.00  0.00    +0.000 A 
ATOM     23  C   UNL     1      10.621  14.130  17.820  0.00  0.00    +0.000 A 
ATOM     24  C   UNL     1       9.698  14.015  18.862  0.00  0.00    +0.000 A 
ATOM     25  C   UNL     1       9.177  12.767  19.202  0.00  0.00    +0.000 A 
ATOM     26  F   UNL     1       8.288  12.700  20.206  0.00  0.00    +0.000 F 
ENDBRANCH  17  20
ENDBRANCH   4  16
TORSDOF 4
ENDMDL
MODEL 8
REMARK VINA RESULT:      -7.4      5.938      7.655
REMARK  Name = 
REMARK  5 active torsions:
REMARK  status: ('A' for Active; 'I' for Inactive)
REMARK    1  A    between atoms: C_1  and  N_2
REMARK    2  A    between atoms: C_4  and  C_5
REMARK    3  A    between atoms: C_10  and  C_11
REMARK    4  A    between atoms: C_14  and  N_15
REMARK    5  A    between atoms: C_16  and  C_18
REMARK                            x       y       z     vdW  Elec       q    Type
REMARK                         _______ _______ _______ _____ _____    ______ ____
ROOT
ATOM      1  C   UNL     1       2.812   6.138  18.942  0.00  0.00    +0.000 A 
ATOM      2  C   UNL     1       2.393   5.722  20.195  0.00  0.00    +0.000 A 
ATOM      3  C   UNL     1       1.655   6.736  20.896  0.00  0.00    +0.000 A 
ATOM      4  C   UNL     1       1.506   7.874  20.135  0.00  0.00    +0.000 A 
ATOM      5  S   UNL     1       2.432   7.783  18.715  0.00  0.00    +0.000 S 
ENDROOT
BRANCH   1  11
ATOM      6  C   UNL     1       2.053   3.302  17.773  0.00  0.00    +0.000 C 
ATOM      7  N   UNL     1       3.178   4.148  17.434  0.00  0.00    +0.000 N 
ATOM      8  N   UNL     1       4.077   3.662  16.551  0.00  0.00    +0.000 NA
ATOM      9  C   UNL     1       5.046   4.593  16.498  0.00  0.00    +0.000 A 
ATOM     10  C   UNL     1       4.738   5.682  17.356  0.00  0.00    +0.000 A 
ATOM     11  C   UNL     1       3.534   5.373  17.959  0.00  0.00    +0.000 A 
BRANCH   9  12
ATOM     12  C   UNL     1       6.279   4.450  15.649  0.00  0.00    +0.000 C 
ATOM     13  F   UNL     1       6.230   3.409  14.776  0.00  0.00    +0.000 F 
ATOM     14  F   UNL     1       6.515   5.569  14.912  0.00  0.00    +0.000 F 
ATOM     15  F   UNL     1       7.388   4.259  16.417  0.00  0.00    +0.000 F 
ENDBRANCH   9  12
ENDBRANCH   1  11
BRANCH   4  16
ATOM     16  N   UNL     1       0.802   9.029  20.441  0.00  0.00    +0.000 N 
ATOM     17  C   UNL     1       0.875   9.669  21.673  0.00  0.00    +0.000 C 
ATOM     18  O   UNL     1       1.648   9.378  22.582  0.00  0.00    +0.000 OA
ATOM     19  H   UNL     1       0.321   9.495  19.678  0.00  0.00    +0.000 HD
BRANCH  17  20
ATOM     20  C   UNL     1      -0.020  10.835  21.911  0.00  0.00    +0.000 A 
ATOM     21  C   UNL     1      -1.015  10.695  22.898  0.00  0.00    +0.000 A 
ATOM     22  C   UNL     1      -1.907  11.733  23.167  0.00  0.00    +0.000 A 
ATOM     23  C   UNL     1      -1.819  12.924  22.452  0.00  0.00    +0.000 A 
ATOM     24  C   UNL     1      -0.834  13.076  21.475  0.00  0.00    +0.000 A 
ATOM     25  C   UNL     1       0.058  12.037  21.210  0.00  0.00    +0.000 A 
ATOM     26  F   UNL     1       0.995  12.226  20.267  0.00  0.00    +0.000 F 
ENDBRANCH  17  20
ENDBRANCH   4  16
TORSDOF 4
ENDMDL
MODEL 9
REMARK VINA RESULT:      -7.4      5.881      7.788
REMARK  Name = 
REMARK  5 active torsions:
REMARK  status: ('A' for Active; 'I' for Inactive)
REMARK    1  A    between atoms: C_1  and  N_2
REMARK    2  A    between atoms: C_4  and  C_5
REMARK    3  A    between atoms: C_10  and  C_11
REMARK    4  A    between atoms: C_14  and  N_15
REMARK    5  A    between atoms: C_16  and  C_18
REMARK                            x       y       z     vdW  Elec       q    Type
REMARK                         _______ _______ _______ _____ _____    ______ ____
ROOT
ATOM      1  C   UNL     1       2.978   6.055  18.895  0.00  0.00    +0.000 A 
ATOM      2  C   UNL     1       2.459   5.592  20.093  0.00  0.00    +0.000 A 
ATOM      3  C   UNL     1       1.641   6.570  20.755  0.00  0.00    +0.000 A 
ATOM      4  C   UNL     1       1.535   7.728  20.017  0.00  0.00    +0.000 A 
ATOM      5  S   UNL     1       2.584   7.698  18.684  0.00  0.00    +0.000 S 
ENDROOT
BRANCH   1  11
ATOM      6  C   UNL     1       2.353   3.274  17.528  0.00  0.00    +0.000 C 
ATOM      7  N   UNL     1       3.503   4.133  17.344  0.00  0.00    +0.000 N 
ATOM      8  N   UNL     1       4.490   3.688  16.536  0.00  0.00    +0.000 NA
ATOM      9  C   UNL     1       5.455   4.620  16.624  0.00  0.00    +0.000 A 
ATOM     10  C   UNL     1       5.057   5.669  17.494  0.00  0.00    +0.000 A 
ATOM     11  C   UNL     1       3.799   5.334  17.957  0.00  0.00    +0.000 A 
BRANCH   9  12
ATOM     12  C   UNL     1       6.768   4.515  15.900  0.00  0.00    +0.000 C 
ATOM     13  F   UNL     1       7.202   5.690  15.371  0.00  0.00    +0.000 F 
ATOM     14  F   UNL     1       7.759   4.064  16.717  0.00  0.00    +0.000 F 
ATOM     15  F   UNL     1       6.695   3.630  14.867  0.00  0.00    +0.000 F 
ENDBRANCH   9  12
ENDBRANCH   1  11
BRANCH   4  16
ATOM     16  N   UNL     1       0.782   8.860  20.294  0.00  0.00    +0.000 N 
ATOM     17  C   UNL     1       0.909   9.600  21.465  0.00  0.00    +0.000 C 
ATOM     18  O   UNL     1       1.769   9.428  22.325  0.00  0.00    +0.000 OA
ATOM     19  H   UNL     1       0.215   9.234  19.542  0.00  0.00    +0.000 HD
BRANCH  17  20
ATOM     20  C   UNL     1      -0.038  10.725  21.689  0.00  0.00    +0.000 A 
ATOM     21  C   UNL     1      -0.133  11.701  20.678  0.00  0.00    +0.000 A 
ATOM     22  C   UNL     1      -0.981  12.799  20.819  0.00  0.00    +0.000 A 
ATOM     23  C   UNL     1      -1.745  12.939  21.975  0.00  0.00    +0.000 A 
ATOM     24  C   UNL     1      -1.663  11.975  22.983  0.00  0.00    +0.000 A 
ATOM     25  C   UNL     1      -0.815  10.877  22.835  0.00  0.00    +0.000 A 
ATOM     26  F   UNL     1      -0.770   9.970  23.824  0.00  0.00    +0.000 F 
ENDBRANCH  17  20
ENDBRANCH   4  16
TORSDOF 4
ENDMDL
