MODEL 1
REMARK VINA RESULT:      -8.3      0.000      0.000
REMARK  Name = 
REMARK  3 active torsions:
REMARK  status: ('A' for Active; 'I' for Inactive)
REMARK    1  A    between atoms: C_1  and  C_2
REMARK    2  A    between atoms: C_8  and  N_9
REMARK    3  A    between atoms: C_10  and  C_12
REMARK                            x       y       z     vdW  Elec       q    Type
REMARK                         _______ _______ _______ _____ _____    ______ ____
ROOT
ATOM      1  C   UNL     1       0.804   9.112  19.079  0.00  0.00    +0.000 C 
ATOM      2  C   UNL     1       0.553  10.555  18.604  0.00  0.00    +0.000 C 
ATOM      3  C   UNL     1       1.158  11.653  19.477  0.00  0.00    +0.000 C 
ATOM      4  N   UNL     1       0.847  11.377  20.863  0.00  0.00    +0.000 N 
ATOM      5  C   UNL     1       0.050  12.203  21.641  0.00  0.00    +0.000 A 
ATOM      6  N   UNL     1      -1.028  11.709  22.201  0.00  0.00    +0.000 NA
ATOM      7  C   UNL     1      -1.891  12.549  22.955  0.00  0.00    +0.000 A 
ATOM      8  C   UNL     1      -3.073  12.007  23.469  0.00  0.00    +0.000 A 
ATOM      9  C   UNL     1      -3.961  12.794  24.213  0.00  0.00    +0.000 A 
ATOM     10  C   UNL     1      -3.675  14.137  24.458  0.00  0.00    +0.000 A 
ATOM     11  C   UNL     1      -2.503  14.700  23.947  0.00  0.00    +0.000 A 
ATOM     12  C   UNL     1      -1.630  13.907  23.193  0.00  0.00    +0.000 A 
ATOM     13  N   UNL     1      -0.451  14.406  22.624  0.00  0.00    +0.000 N 
ATOM     14  C   UNL     1       0.082  15.672  22.695  0.00  0.00    +0.000 A 
ATOM     15  C   UNL     1       1.268  15.674  21.991  0.00  0.00    +0.000 A 
ATOM     16  C   UNL     1       1.455  14.370  21.474  0.00  0.00    +0.000 A 
ATOM     17  C   UNL     1       0.369  13.606  21.864  0.00  0.00    +0.000 A 
ATOM     18  C   UNL     1       1.492  10.190  21.387  0.00  0.00    +0.000 C 
ATOM     19  C   UNL     1       1.074   8.948  20.600  0.00  0.00    +0.000 C 
ENDROOT
BRANCH   1  21
ATOM     20  N   UNL     1       2.250   7.147  18.663  0.00  0.00    +0.000 N 
ATOM     21  C   UNL     1       1.842   8.405  18.183  0.00  0.00    +0.000 C 
ATOM     22  O   UNL     1       2.249   8.948  17.160  0.00  0.00    +0.000 OA
ATOM     23  H   UNL     1       1.913   6.877  19.579  0.00  0.00    +0.000 HD
BRANCH  20  31
ATOM     24  C   UNL     1       1.557   4.335  17.785  0.00  0.00    +0.000 C 
ATOM     25  C   UNL     1       2.930   4.956  17.698  0.00  0.00    +0.000 A 
ATOM     26  C   UNL     1       3.952   4.123  17.173  0.00  0.00    +0.000 A 
ATOM     27  C   UNL     1       5.252   4.591  17.020  0.00  0.00    +0.000 A 
ATOM     28  C   UNL     1       5.539   5.906  17.352  0.00  0.00    +0.000 A 
ATOM     29 CL   UNL     1       7.137   6.508  17.127  0.00  0.00    +0.000 Cl
ATOM     30  C   UNL     1       4.547   6.746  17.863  0.00  0.00    +0.000 A 
ATOM     31  C   UNL     1       3.237   6.290  18.079  0.00  0.00    +0.000 A 
ENDBRANCH  20  31
ENDBRANCH   1  21
TORSDOF 2
ENDMDL
MODEL 2
REMARK VINA RESULT:      -8.1      2.024      3.660
REMARK  Name = 
REMARK  3 active torsions:
REMARK  status: ('A' for Active; 'I' for Inactive)
REMARK    1  A    between atoms: C_1  and  C_2
REMARK    2  A    between atoms: C_8  and  N_9
REMARK    3  A    between atoms: C_10  and  C_12
REMARK                            x       y       z     vdW  Elec       q    Type
REMARK                         _______ _______ _______ _____ _____    ______ ____
ROOT
ATOM      1  C   UNL     1       1.757   8.794  20.740  0.00  0.00    +0.000 C 
ATOM      2  C   UNL     1       1.289   9.020  22.190  0.00  0.00    +0.000 C 
ATOM      3  C   UNL     1      -0.098   9.639  22.349  0.00  0.00    +0.000 C 
ATOM      4  N   UNL     1      -0.210  10.776  21.461  0.00  0.00    +0.000 N 
ATOM      5  C   UNL     1      -0.374  12.078  21.911  0.00  0.00    +0.000 A 
ATOM      6  N   UNL     1       0.502  12.989  21.563  0.00  0.00    +0.000 NA
ATOM      7  C   UNL     1       0.389  14.316  22.057  0.00  0.00    +0.000 A 
ATOM      8  C   UNL     1       1.385  15.241  21.732  0.00  0.00    +0.000 A 
ATOM      9  C   UNL     1       1.324  16.560  22.200  0.00  0.00    +0.000 A 
ATOM     10  C   UNL     1       0.257  16.973  22.999  0.00  0.00    +0.000 A 
ATOM     11  C   UNL     1      -0.744  16.063  23.342  0.00  0.00    +0.000 A 
ATOM     12  C   UNL     1      -0.665  14.744  22.880  0.00  0.00    +0.000 A 
ATOM     13  N   UNL     1      -1.615  13.767  23.205  0.00  0.00    +0.000 N 
ATOM     14  C   UNL     1      -2.756  13.880  23.964  0.00  0.00    +0.000 A 
ATOM     15  C   UNL     1      -3.380  12.650  23.983  0.00  0.00    +0.000 A 
ATOM     16  C   UNL     1      -2.587  11.764  23.214  0.00  0.00    +0.000 A 
ATOM     17  C   UNL     1      -1.490  12.473  22.757  0.00  0.00    +0.000 A 
ATOM     18  C   UNL     1      -0.197  10.429  20.054  0.00  0.00    +0.000 C 
ATOM     19  C   UNL     1       1.103   9.720  19.678  0.00  0.00    +0.000 C 
ENDROOT
BRANCH   1  21
ATOM     20  N   UNL     1       2.473   6.969  19.231  0.00  0.00    +0.000 N 
ATOM     21  C   UNL     1       1.716   7.297  20.371  0.00  0.00    +0.000 C 
ATOM     22  O   UNL     1       1.056   6.510  21.043  0.00  0.00    +0.000 OA
ATOM     23  H   UNL     1       2.876   7.740  18.713  0.00  0.00    +0.000 HD
BRANCH  20  31
ATOM     24  C   UNL     1       4.673   6.354  17.246  0.00  0.00    +0.000 C 
ATOM     25  C   UNL     1       3.586   5.392  17.659  0.00  0.00    +0.000 A 
ATOM     26  C   UNL     1       3.621   4.118  17.036  0.00  0.00    +0.000 A 
ATOM     27  C   UNL     1       2.686   3.137  17.355  0.00  0.00    +0.000 A 
ATOM     28  C   UNL     1       1.733   3.405  18.324  0.00  0.00    +0.000 A 
ATOM     29 CL   UNL     1       0.597   2.183  18.754  0.00  0.00    +0.000 Cl
ATOM     30  C   UNL     1       1.684   4.650  18.954  0.00  0.00    +0.000 A 
ATOM     31  C   UNL     1       2.578   5.678  18.620  0.00  0.00    +0.000 A 
ENDBRANCH  20  31
ENDBRANCH   1  21
TORSDOF 2
ENDMDL
MODEL 3
REMARK VINA RESULT:      -8.0      2.352      4.008
REMARK  Name = 
REMARK  3 active torsions:
REMARK  status: ('A' for Active; 'I' for Inactive)
REMARK    1  A    between atoms: C_1  and  C_2
REMARK    2  A    between atoms: C_8  and  N_9
REMARK    3  A    between atoms: C_10  and  C_12
REMARK                            x       y       z     vdW  Elec       q    Type
REMARK                         _______ _______ _______ _____ _____    ______ ____
ROOT
ATOM      1  C   UNL     1       0.855   9.623  21.701  0.00  0.00    +0.000 C 
ATOM      2  C   UNL     1       0.169   9.832  23.064  0.00  0.00    +0.000 C 
ATOM      3  C   UNL     1      -1.171  10.565  23.025  0.00  0.00    +0.000 C 
ATOM      4  N   UNL     1      -1.039  11.741  22.193  0.00  0.00    +0.000 N 
ATOM      5  C   UNL     1      -1.169  13.034  22.679  0.00  0.00    +0.000 A 
ATOM      6  N   UNL     1      -0.177  13.877  22.530  0.00  0.00    +0.000 NA
ATOM      7  C   UNL     1      -0.264  15.188  23.069  0.00  0.00    +0.000 A 
ATOM      8  C   UNL     1       0.844  16.033  22.963  0.00  0.00    +0.000 A 
ATOM      9  C   UNL     1       0.811  17.333  23.485  0.00  0.00    +0.000 A 
ATOM     10  C   UNL     1      -0.338  17.807  24.118  0.00  0.00    +0.000 A 
ATOM     11  C   UNL     1      -1.453  16.977  24.242  0.00  0.00    +0.000 A 
ATOM     12  C   UNL     1      -1.404  15.675  23.729  0.00  0.00    +0.000 A 
ATOM     13  N   UNL     1      -2.471  14.774  23.839  0.00  0.00    +0.000 N 
ATOM     14  C   UNL     1      -3.711  14.958  24.405  0.00  0.00    +0.000 A 
ATOM     15  C   UNL     1      -4.426  13.789  24.254  0.00  0.00    +0.000 A 
ATOM     16  C   UNL     1      -3.589  12.867  23.581  0.00  0.00    +0.000 A 
ATOM     17  C   UNL     1      -2.377  13.492  23.349  0.00  0.00    +0.000 A 
ATOM     18  C   UNL     1      -0.816  11.451  20.791  0.00  0.00    +0.000 C 
ATOM     19  C   UNL     1       0.468  10.644  20.596  0.00  0.00    +0.000 C 
ENDROOT
BRANCH   1  21
ATOM     20  N   UNL     1       1.927   7.660  20.641  0.00  0.00    +0.000 N 
ATOM     21  C   UNL     1       0.757   8.151  21.251  0.00  0.00    +0.000 C 
ATOM     22  O   UNL     1      -0.280   7.517  21.424  0.00  0.00    +0.000 OA
ATOM     23  H   UNL     1       2.665   8.331  20.465  0.00  0.00    +0.000 HD
BRANCH  20  31
ATOM     24  C   UNL     1       3.005   7.315  17.835  0.00  0.00    +0.000 C 
ATOM     25  C   UNL     1       2.582   6.188  18.744  0.00  0.00    +0.000 A 
ATOM     26  C   UNL     1       2.698   4.882  18.203  0.00  0.00    +0.000 A 
ATOM     27  C   UNL     1       2.364   3.760  18.954  0.00  0.00    +0.000 A 
ATOM     28  C   UNL     1       1.947   3.927  20.265  0.00  0.00    +0.000 A 
ATOM     29 CL   UNL     1       1.570   2.543  21.217  0.00  0.00    +0.000 Cl
ATOM     30  C   UNL     1       1.832   5.203  20.821  0.00  0.00    +0.000 A 
ATOM     31  C   UNL     1       2.112   6.358  20.075  0.00  0.00    +0.000 A 
ENDBRANCH  20  31
ENDBRANCH   1  21
TORSDOF 2
ENDMDL
MODEL 4
REMARK VINA RESULT:      -8.0      1.333      1.345
REMARK  Name = 
REMARK  3 active torsions:
REMARK  status: ('A' for Active; 'I' for Inactive)
REMARK    1  A    between atoms: C_1  and  C_2
REMARK    2  A    between atoms: C_8  and  N_9
REMARK    3  A    between atoms: C_10  and  C_12
REMARK                            x       y       z     vdW  Elec       q    Type
REMARK                         _______ _______ _______ _____ _____    ______ ____
ROOT
ATOM      1  C   UNL     1       0.672   9.259  19.228  0.00  0.00    +0.000 C 
ATOM      2  C   UNL     1      -0.228  10.228  18.438  0.00  0.00    +0.000 C 
ATOM      3  C   UNL     1       0.003  11.714  18.708  0.00  0.00    +0.000 C 
ATOM      4  N   UNL     1       0.067  11.927  20.138  0.00  0.00    +0.000 N 
ATOM      5  C   UNL     1      -0.861  12.688  20.834  0.00  0.00    +0.000 A 
ATOM      6  N   UNL     1      -1.530  12.138  21.818  0.00  0.00    +0.000 NA
ATOM      7  C   UNL     1      -2.527  12.879  22.509  0.00  0.00    +0.000 A 
ATOM      8  C   UNL     1      -3.277  12.235  23.498  0.00  0.00    +0.000 A 
ATOM      9  C   UNL     1      -4.276  12.919  24.202  0.00  0.00    +0.000 A 
ATOM     10  C   UNL     1      -4.534  14.263  23.929  0.00  0.00    +0.000 A 
ATOM     11  C   UNL     1      -3.802  14.922  22.939  0.00  0.00    +0.000 A 
ATOM     12  C   UNL     1      -2.816  14.224  22.232  0.00  0.00    +0.000 A 
ATOM     13  N   UNL     1      -2.060  14.808  21.207  0.00  0.00    +0.000 N 
ATOM     14  C   UNL     1      -2.095  16.095  20.725  0.00  0.00    +0.000 A 
ATOM     15  C   UNL     1      -1.149  16.201  19.726  0.00  0.00    +0.000 A 
ATOM     16  C   UNL     1      -0.527  14.937  19.598  0.00  0.00    +0.000 A 
ATOM     17  C   UNL     1      -1.119  14.084  20.513  0.00  0.00    +0.000 A 
ATOM     18  C   UNL     1       1.221  11.325  20.775  0.00  0.00    +0.000 C 
ATOM     19  C   UNL     1       1.231   9.811  20.568  0.00  0.00    +0.000 C 
ENDROOT
BRANCH   1  21
ATOM     20  N   UNL     1       2.194   7.369  18.744  0.00  0.00    +0.000 N 
ATOM     21  C   UNL     1       1.747   8.632  18.315  0.00  0.00    +0.000 C 
ATOM     22  O   UNL     1       2.146   9.235  17.323  0.00  0.00    +0.000 OA
ATOM     23  H   UNL     1       1.856   7.045  19.643  0.00  0.00    +0.000 HD
BRANCH  20  31
ATOM     24  C   UNL     1       1.640   4.543  17.814  0.00  0.00    +0.000 C 
ATOM     25  C   UNL     1       2.978   5.235  17.730  0.00  0.00    +0.000 A 
ATOM     26  C   UNL     1       4.038   4.466  17.183  0.00  0.00    +0.000 A 
ATOM     27  C   UNL     1       5.311   5.004  17.030  0.00  0.00    +0.000 A 
ATOM     28  C   UNL     1       5.532   6.325  17.387  0.00  0.00    +0.000 A 
ATOM     29 CL   UNL     1       7.096   7.013  17.164  0.00  0.00    +0.000 Cl
ATOM     30  C   UNL     1       4.503   7.102  17.921  0.00  0.00    +0.000 A 
ATOM     31  C   UNL     1       3.220   6.576  18.136  0.00  0.00    +0.000 A 
ENDBRANCH  20  31
ENDBRANCH   1  21
TORSDOF 2
ENDMDL
MODEL 5
REMARK VINA RESULT:      -7.8      2.461      3.798
REMARK  Name = 
REMARK  3 active torsions:
REMARK  status: ('A' for Active; 'I' for Inactive)
REMARK    1  A    between atoms: C_1  and  C_2
REMARK    2  A    between atoms: C_8  and  N_9
REMARK    3  A    between atoms: C_10  and  C_12
REMARK                            x       y       z     vdW  Elec       q    Type
REMARK                         _______ _______ _______ _____ _____    ______ ____
ROOT
ATOM      1  C   UNL     1       1.566   9.379  19.489  0.00  0.00    +0.000 C 
ATOM      2  C   UNL     1       1.409   9.984  20.896  0.00  0.00    +0.000 C 
ATOM      3  C   UNL     1      -0.017  10.356  21.300  0.00  0.00    +0.000 C 
ATOM      4  N   UNL     1      -0.634  11.094  20.219  0.00  0.00    +0.000 N 
ATOM      5  C   UNL     1      -1.030  12.419  20.332  0.00  0.00    +0.000 A 
ATOM      6  N   UNL     1      -0.537  13.306  19.503  0.00  0.00    +0.000 NA
ATOM      7  C   UNL     1      -0.882  14.678  19.635  0.00  0.00    +0.000 A 
ATOM      8  C   UNL     1      -0.275  15.608  18.786  0.00  0.00    +0.000 A 
ATOM      9  C   UNL     1      -0.576  16.973  18.881  0.00  0.00    +0.000 A 
ATOM     10  C   UNL     1      -1.497  17.426  19.826  0.00  0.00    +0.000 A 
ATOM     11  C   UNL     1      -2.109  16.515  20.689  0.00  0.00    +0.000 A 
ATOM     12  C   UNL     1      -1.789  15.155  20.594  0.00  0.00    +0.000 A 
ATOM     13  N   UNL     1      -2.339  14.185  21.443  0.00  0.00    +0.000 N 
ATOM     14  C   UNL     1      -3.259  14.334  22.455  0.00  0.00    +0.000 A 
ATOM     15  C   UNL     1      -3.508  13.088  22.990  0.00  0.00    +0.000 A 
ATOM     16  C   UNL     1      -2.710  12.157  22.283  0.00  0.00    +0.000 A 
ATOM     17  C   UNL     1      -1.981  12.861  21.341  0.00  0.00    +0.000 A 
ATOM     18  C   UNL     1      -0.858  10.309  19.021  0.00  0.00    +0.000 C 
ATOM     19  C   UNL     1       0.459   9.765  18.470  0.00  0.00    +0.000 C 
ENDROOT
BRANCH   1  21
ATOM     20  N   UNL     1       2.322   7.310  18.362  0.00  0.00    +0.000 N 
ATOM     21  C   UNL     1       1.843   7.863  19.564  0.00  0.00    +0.000 C 
ATOM     22  O   UNL     1       1.635   7.246  20.604  0.00  0.00    +0.000 OA
ATOM     23  H   UNL     1       2.338   7.919  17.553  0.00  0.00    +0.000 HD
BRANCH  20  31
ATOM     24  C   UNL     1       4.924   6.463  17.071  0.00  0.00    +0.000 C 
ATOM     25  C   UNL     1       3.813   5.525  17.475  0.00  0.00    +0.000 A 
ATOM     26  C   UNL     1       4.034   4.152  17.198  0.00  0.00    +0.000 A 
ATOM     27  C   UNL     1       3.093   3.188  17.548  0.00  0.00    +0.000 A 
ATOM     28  C   UNL     1       1.941   3.580  18.210  0.00  0.00    +0.000 A 
ATOM     29 CL   UNL     1       0.789   2.391  18.683  0.00  0.00    +0.000 Cl
ATOM     30  C   UNL     1       1.706   4.926  18.498  0.00  0.00    +0.000 A 
ATOM     31  C   UNL     1       2.610   5.929  18.114  0.00  0.00    +0.000 A 
ENDBRANCH  20  31
ENDBRANCH   1  21
TORSDOF 2
ENDMDL
MODEL 6
REMARK VINA RESULT:      -7.7      3.387      4.515
REMARK  Name = 
REMARK  3 active torsions:
REMARK  status: ('A' for Active; 'I' for Inactive)
REMARK    1  A    between atoms: C_1  and  C_2
REMARK    2  A    between atoms: C_8  and  N_9
REMARK    3  A    between atoms: C_10  and  C_12
REMARK                            x       y       z     vdW  Elec       q    Type
REMARK                         _______ _______ _______ _____ _____    ______ ____
ROOT
ATOM      1  C   UNL     1       0.256  10.232  20.118  0.00  0.00    +0.000 C 
ATOM      2  C   UNL     1       0.721  10.687  18.722  0.00  0.00    +0.000 C 
ATOM      3  C   UNL     1       1.838  11.729  18.704  0.00  0.00    +0.000 C 
ATOM      4  N   UNL     1       1.511  12.784  19.640  0.00  0.00    +0.000 N 
ATOM      5  C   UNL     1       1.270  14.094  19.253  0.00  0.00    +0.000 A 
ATOM      6  N   UNL     1       0.123  14.650  19.558  0.00  0.00    +0.000 NA
ATOM      7  C   UNL     1      -0.170  15.971  19.125  0.00  0.00    +0.000 A 
ATOM      8  C   UNL     1      -1.434  16.502  19.399  0.00  0.00    +0.000 A 
ATOM      9  C   UNL     1      -1.775  17.797  18.986  0.00  0.00    +0.000 A 
ATOM     10  C   UNL     1      -0.851  18.581  18.296  0.00  0.00    +0.000 A 
ATOM     11  C   UNL     1       0.414  18.066  18.005  0.00  0.00    +0.000 A 
ATOM     12  C   UNL     1       0.739  16.767  18.410  0.00  0.00    +0.000 A 
ATOM     13  N   UNL     1       1.976  16.171  18.132  0.00  0.00    +0.000 N 
ATOM     14  C   UNL     1       3.067  16.694  17.477  0.00  0.00    +0.000 A 
ATOM     15  C   UNL     1       4.058  15.735  17.466  0.00  0.00    +0.000 A 
ATOM     16  C   UNL     1       3.548  14.594  18.131  0.00  0.00    +0.000 A 
ATOM     17  C   UNL     1       2.251  14.880  18.520  0.00  0.00    +0.000 A 
ATOM     18  C   UNL     1       1.516  12.365  21.027  0.00  0.00    +0.000 C 
ATOM     19  C   UNL     1       0.497  11.251  21.265  0.00  0.00    +0.000 C 
ENDROOT
BRANCH   1  21
ATOM     20  N   UNL     1       1.680   8.306  19.496  0.00  0.00    +0.000 N 
ATOM     21  C   UNL     1       0.758   8.808  20.433  0.00  0.00    +0.000 C 
ATOM     22  O   UNL     1       0.346   8.211  21.423  0.00  0.00    +0.000 OA
ATOM     23  H   UNL     1       1.842   8.868  18.669  0.00  0.00    +0.000 HD
BRANCH  20  31
ATOM     24  C   UNL     1       3.693   7.504  17.384  0.00  0.00    +0.000 C 
ATOM     25  C   UNL     1       3.188   6.604  18.485  0.00  0.00    +0.000 A 
ATOM     26  C   UNL     1       3.707   5.284  18.489  0.00  0.00    +0.000 A 
ATOM     27  C   UNL     1       3.336   4.369  19.470  0.00  0.00    +0.000 A 
ATOM     28  C   UNL     1       2.475   4.774  20.477  0.00  0.00    +0.000 A 
ATOM     29 CL   UNL     1       2.043   3.662  21.719  0.00  0.00    +0.000 Cl
ATOM     30  C   UNL     1       1.958   6.071  20.497  0.00  0.00    +0.000 A 
ATOM     31  C   UNL     1       2.270   7.001  19.494  0.00  0.00    +0.000 A 
ENDBRANCH  20  31
ENDBRANCH   1  21
TORSDOF 2
ENDMDL
MODEL 7
REMARK VINA RESULT:      -7.6      1.947      2.871
REMARK  Name = 
REMARK  3 active torsions:
REMARK  status: ('A' for Active; 'I' for Inactive)
REMARK    1  A    between atoms: C_1  and  C_2
REMARK    2  A    between atoms: C_8  and  N_9
REMARK    3  A    between atoms: C_10  and  C_12
REMARK                            x       y       z     vdW  Elec       q    Type
REMARK                         _______ _______ _______ _____ _____    ______ ____
ROOT
ATOM      1  C   UNL     1       1.289   9.774  19.673  0.00  0.00    +0.000 C 
ATOM      2  C   UNL     1      -0.125   9.371  20.132  0.00  0.00    +0.000 C 
ATOM      3  C   UNL     1      -1.267  10.225  19.585  0.00  0.00    +0.000 C 
ATOM      4  N   UNL     1      -0.924  11.622  19.739  0.00  0.00    +0.000 N 
ATOM      5  C   UNL     1      -1.630  12.493  20.556  0.00  0.00    +0.000 A 
ATOM      6  N   UNL     1      -0.999  13.124  21.515  0.00  0.00    +0.000 NA
ATOM      7  C   UNL     1      -1.711  13.977  22.401  0.00  0.00    +0.000 A 
ATOM      8  C   UNL     1      -1.020  14.570  23.462  0.00  0.00    +0.000 A 
ATOM      9  C   UNL     1      -1.678  15.412  24.367  0.00  0.00    +0.000 A 
ATOM     10  C   UNL     1      -3.039  15.677  24.219  0.00  0.00    +0.000 A 
ATOM     11  C   UNL     1      -3.750  15.088  23.171  0.00  0.00    +0.000 A 
ATOM     12  C   UNL     1      -3.085  14.237  22.281  0.00  0.00    +0.000 A 
ATOM     13  N   UNL     1      -3.734  13.587  21.223  0.00  0.00    +0.000 N 
ATOM     14  C   UNL     1      -5.053  13.655  20.838  0.00  0.00    +0.000 A 
ATOM     15  C   UNL     1      -5.213  12.854  19.726  0.00  0.00    +0.000 A 
ATOM     16  C   UNL     1      -3.953  12.280  19.434  0.00  0.00    +0.000 A 
ATOM     17  C   UNL     1      -3.055  12.735  20.384  0.00  0.00    +0.000 A 
ATOM     18  C   UNL     1       0.190  12.051  18.916  0.00  0.00    +0.000 C 
ATOM     19  C   UNL     1       1.454  11.260  19.254  0.00  0.00    +0.000 C 
ENDROOT
BRANCH   1  21
ATOM     20  N   UNL     1       2.291   7.560  19.207  0.00  0.00    +0.000 N 
ATOM     21  C   UNL     1       1.845   8.770  18.643  0.00  0.00    +0.000 C 
ATOM     22  O   UNL     1       1.881   9.061  17.451  0.00  0.00    +0.000 OA
ATOM     23  H   UNL     1       2.303   7.505  20.218  0.00  0.00    +0.000 HD
BRANCH  20  31
ATOM     24  C   UNL     1       1.544   4.693  19.822  0.00  0.00    +0.000 C 
ATOM     25  C   UNL     1       2.587   5.119  18.819  0.00  0.00    +0.000 A 
ATOM     26  C   UNL     1       3.260   4.069  18.143  0.00  0.00    +0.000 A 
ATOM     27  C   UNL     1       4.224   4.337  17.177  0.00  0.00    +0.000 A 
ATOM     28  C   UNL     1       4.500   5.654  16.848  0.00  0.00    +0.000 A 
ATOM     29 CL   UNL     1       5.663   5.996  15.624  0.00  0.00    +0.000 Cl
ATOM     30  C   UNL     1       3.845   6.705  17.495  0.00  0.00    +0.000 A 
ATOM     31  C   UNL     1       2.905   6.470  18.510  0.00  0.00    +0.000 A 
ENDBRANCH  20  31
ENDBRANCH   1  21
TORSDOF 2
ENDMDL
MODEL 8
REMARK VINA RESULT:      -7.6      2.849      4.316
REMARK  Name = 
REMARK  3 active torsions:
REMARK  status: ('A' for Active; 'I' for Inactive)
REMARK    1  A    between atoms: C_1  and  C_2
REMARK    2  A    between atoms: C_8  and  N_9
REMARK    3  A    between atoms: C_10  and  C_12
REMARK                            x       y       z     vdW  Elec       q    Type
REMARK                         _______ _______ _______ _____ _____    ______ ____
ROOT
ATOM      1  C   UNL     1       2.270   8.094  19.793  0.00  0.00    +0.000 C 
ATOM      2  C   UNL     1       1.592   8.824  20.968  0.00  0.00    +0.000 C 
ATOM      3  C   UNL     1       0.274   9.523  20.639  0.00  0.00    +0.000 C 
ATOM      4  N   UNL     1       0.439  10.292  19.424  0.00  0.00    +0.000 N 
ATOM      5  C   UNL     1       0.347  11.675  19.382  0.00  0.00    +0.000 A 
ATOM      6  N   UNL     1       1.364  12.370  18.935  0.00  0.00    +0.000 NA
ATOM      7  C   UNL     1       1.315  13.791  18.935  0.00  0.00    +0.000 A 
ATOM      8  C   UNL     1       2.448  14.501  18.527  0.00  0.00    +0.000 A 
ATOM      9  C   UNL     1       2.454  15.902  18.516  0.00  0.00    +0.000 A 
ATOM     10  C   UNL     1       1.320  16.612  18.910  0.00  0.00    +0.000 A 
ATOM     11  C   UNL     1       0.181  15.922  19.328  0.00  0.00    +0.000 A 
ATOM     12  C   UNL     1       0.191  14.523  19.348  0.00  0.00    +0.000 A 
ATOM     13  N   UNL     1      -0.902  13.761  19.782  0.00  0.00    +0.000 N 
ATOM     14  C   UNL     1      -2.135  14.180  20.222  0.00  0.00    +0.000 A 
ATOM     15  C   UNL     1      -2.885  13.061  20.519  0.00  0.00    +0.000 A 
ATOM     16  C   UNL     1      -2.076  11.930  20.255  0.00  0.00    +0.000 A 
ATOM     17  C   UNL     1      -0.846  12.387  19.816  0.00  0.00    +0.000 A 
ATOM     18  C   UNL     1       0.652   9.485  18.240  0.00  0.00    +0.000 C 
ATOM     19  C   UNL     1       1.912   8.629  18.380  0.00  0.00    +0.000 C 
ENDROOT
BRANCH   1  21
ATOM     20  N   UNL     1       3.013   5.831  19.122  0.00  0.00    +0.000 N 
ATOM     21  C   UNL     1       2.128   6.564  19.934  0.00  0.00    +0.000 C 
ATOM     22  O   UNL     1       1.291   6.087  20.695  0.00  0.00    +0.000 OA
ATOM     23  H   UNL     1       3.571   6.359  18.462  0.00  0.00    +0.000 HD
BRANCH  20  31
ATOM     24  C   UNL     1       1.199   4.352  17.205  0.00  0.00    +0.000 C 
ATOM     25  C   UNL     1       2.200   3.700  18.127  0.00  0.00    +0.000 A 
ATOM     26  C   UNL     1       2.255   2.283  18.074  0.00  0.00    +0.000 A 
ATOM     27  C   UNL     1       3.156   1.570  18.859  0.00  0.00    +0.000 A 
ATOM     28  C   UNL     1       4.036   2.264  19.674  0.00  0.00    +0.000 A 
ATOM     29 CL   UNL     1       5.183   1.392  20.618  0.00  0.00    +0.000 Cl
ATOM     30  C   UNL     1       4.004   3.658  19.736  0.00  0.00    +0.000 A 
ATOM     31  C   UNL     1       3.074   4.405  18.998  0.00  0.00    +0.000 A 
ENDBRANCH  20  31
ENDBRANCH   1  21
TORSDOF 2
ENDMDL
MODEL 9
REMARK VINA RESULT:      -7.5      2.832      4.110
REMARK  Name = 
REMARK  3 active torsions:
REMARK  status: ('A' for Active; 'I' for Inactive)
REMARK    1  A    between atoms: C_1  and  C_2
REMARK    2  A    between atoms: C_8  and  N_9
REMARK    3  A    between atoms: C_10  and  C_12
REMARK                            x       y       z     vdW  Elec       q    Type
REMARK                         _______ _______ _______ _____ _____    ______ ____
ROOT
ATOM      1  C   UNL     1       1.140   9.682  20.251  0.00  0.00    +0.000 C 
ATOM      2  C   UNL     1       0.827  10.425  21.563  0.00  0.00    +0.000 C 
ATOM      3  C   UNL     1      -0.614  10.907  21.723  0.00  0.00    +0.000 C 
ATOM      4  N   UNL     1      -1.026  11.569  20.504  0.00  0.00    +0.000 N 
ATOM      5  C   UNL     1      -1.348  12.917  20.444  0.00  0.00    +0.000 A 
ATOM      6  N   UNL     1      -0.688  13.696  19.622  0.00  0.00    +0.000 NA
ATOM      7  C   UNL     1      -0.960  15.090  19.583  0.00  0.00    +0.000 A 
ATOM      8  C   UNL     1      -0.182  15.903  18.753  0.00  0.00    +0.000 A 
ATOM      9  C   UNL     1      -0.405  17.284  18.685  0.00  0.00    +0.000 A 
ATOM     10  C   UNL     1      -1.417  17.871  19.444  0.00  0.00    +0.000 A 
ATOM     11  C   UNL     1      -2.200  17.079  20.286  0.00  0.00    +0.000 A 
ATOM     12  C   UNL     1      -1.959  15.702  20.356  0.00  0.00    +0.000 A 
ATOM     13  N   UNL     1      -2.683  14.846  21.197  0.00  0.00    +0.000 N 
ATOM     14  C   UNL     1      -3.722  15.137  22.049  0.00  0.00    +0.000 A 
ATOM     15  C   UNL     1      -4.123  13.962  22.649  0.00  0.00    +0.000 A 
ATOM     16  C   UNL     1      -3.295  12.929  22.148  0.00  0.00    +0.000 A 
ATOM     17  C   UNL     1      -2.399  13.502  21.263  0.00  0.00    +0.000 A 
ATOM     18  C   UNL     1      -1.131  10.687  19.359  0.00  0.00    +0.000 C 
ATOM     19  C   UNL     1       0.212  10.026  19.053  0.00  0.00    +0.000 C 
ENDROOT
BRANCH   1  21
ATOM     20  N   UNL     1       2.228   7.547  19.633  0.00  0.00    +0.000 N 
ATOM     21  C   UNL     1       1.306   8.168  20.496  0.00  0.00    +0.000 C 
ATOM     22  O   UNL     1       0.655   7.607  21.373  0.00  0.00    +0.000 OA
ATOM     23  H   UNL     1       2.607   8.115  18.884  0.00  0.00    +0.000 HD
BRANCH  20  31
ATOM     24  C   UNL     1       4.091   6.439  17.521  0.00  0.00    +0.000 C 
ATOM     25  C   UNL     1       3.390   5.617  18.575  0.00  0.00    +0.000 A 
ATOM     26  C   UNL     1       3.634   4.220  18.532  0.00  0.00    +0.000 A 
ATOM     27  C   UNL     1       3.064   3.362  19.467  0.00  0.00    +0.000 A 
ATOM     28  C   UNL     1       2.277   3.892  20.476  0.00  0.00    +0.000 A 
ATOM     29 CL   UNL     1       1.601   2.843  21.663  0.00  0.00    +0.000 Cl
ATOM     30  C   UNL     1       2.029   5.265  20.543  0.00  0.00    +0.000 A 
ATOM     31  C   UNL     1       2.546   6.152  19.586  0.00  0.00    +0.000 A 
ENDBRANCH  20  31
ENDBRANCH   1  21
TORSDOF 2
ENDMDL
