MODEL 1
REMARK VINA RESULT:      -6.3      0.000      0.000
REMARK  Name = 
REMARK  14 active torsions:
REMARK  status: ('A' for Active; 'I' for Inactive)
REMARK    1  A    between atoms: C_1  and  C_2
REMARK    2  A    between atoms: C_2  and  N_3
REMARK    3  A    between atoms: N_3  and  C_4
REMARK    4  A    between atoms: C_7  and  C_8
REMARK    5  A    between atoms: C_9  and  C_10
REMARK    6  A    between atoms: C_10  and  C_11
REMARK    7  A    between atoms: C_10  and  C_12
REMARK    8  A    between atoms: C_12  and  C_13
REMARK    9  A    between atoms: C_13  and  C_14
REMARK   10  A    between atoms: C_14  and  C_15
REMARK   11  A    between atoms: C_15  and  C_16
REMARK   12  A    between atoms: C_15  and  C_17
REMARK   13  A    between atoms: C_20  and  C_21
REMARK   14  A    between atoms: C_22  and  O_23
REMARK                            x       y       z     vdW  Elec       q    Type
REMARK                         _______ _______ _______ _____ _____    ______ ____
ROOT
ATOM      1  C   UNL     1       7.950   7.461  17.691  0.00  0.00    +0.000 C 
ATOM      2  C   UNL     1       8.095   6.387  18.761  0.00  0.00    +0.000 C 
ATOM      3  C   UNL     1       7.532   5.025  18.281  0.00  0.00    +0.000 C 
ATOM      4  C   UNL     1       5.937   5.078  17.970  0.00  0.00    +0.000 C 
ATOM      5  C   UNL     1       5.343   5.488  19.340  0.00  0.00    +0.000 C 
ATOM      6  C   UNL     1       5.384   3.644  17.596  0.00  0.00    +0.000 C 
ATOM      7  C   UNL     1       5.677   3.526  16.088  0.00  0.00    +0.000 C 
ATOM      8  C   UNL     1       6.303   4.823  15.598  0.00  0.00    +0.000 C 
ATOM      9  C   UNL     1       5.868   5.948  16.602  0.00  0.00    +0.000 C 
ATOM     10  C   UNL     1       4.701   6.578  15.729  0.00  0.00    +0.000 C 
ATOM     11  C   UNL     1       6.671   7.266  16.837  0.00  0.00    +0.000 C 
ENDROOT
BRANCH   1  12
ATOM     12  N   UNL     1       7.834   8.883  18.171  0.00  0.00    +0.000 NA
ATOM     13  H   UNL     1       7.622   9.472  17.355  0.00  0.00    +0.000 HD
BRANCH  12  15
ATOM     14  C   UNL     1       9.261  10.862  18.318  0.00  0.00    +0.000 C 
ATOM     15  C   UNL     1       8.908   9.492  18.934  0.00  0.00    +0.000 C 
ENDBRANCH  12  15
ENDBRANCH   1  12
BRANCH   6  16
ATOM     16  C   UNL     1       3.898   3.255  18.016  0.00  0.00    +0.000 C 
ATOM     17  C   UNL     1       3.792   1.769  18.409  0.00  0.00    +0.000 C 
BRANCH  16  18
ATOM     18  C   UNL     1       2.708   3.667  17.084  0.00  0.00    +0.000 C 
BRANCH  18  19
ATOM     19  C   UNL     1       1.791   4.690  17.810  0.00  0.00    +0.000 C 
BRANCH  19  20
ATOM     20  C   UNL     1       1.968   4.957  19.314  0.00  0.00    +0.000 C 
BRANCH  20  21
ATOM     21  C   UNL     1       1.178   4.105  20.329  0.00  0.00    +0.000 C 
ATOM     22  C   UNL     1       0.532   2.859  19.721  0.00  0.00    +0.000 C 
ATOM     23  C   UNL     1       2.119   3.653  21.470  0.00  0.00    +0.000 C 
ENDBRANCH  20  21
ENDBRANCH  19  20
ENDBRANCH  18  19
ENDBRANCH  16  18
ENDBRANCH   6  16
BRANCH  11  24
ATOM     24  O   UNL     1       5.660   8.130  17.451  0.00  0.00    +0.000 OA
ATOM     25  H   UNL     1       5.820   9.007  17.044  0.00  0.00    +0.000 HD
ENDBRANCH  11  24
TORSDOF 8
ENDMDL
MODEL 2
REMARK VINA RESULT:      -5.9      0.716      1.107
REMARK  Name = 
REMARK  14 active torsions:
REMARK  status: ('A' for Active; 'I' for Inactive)
REMARK    1  A    between atoms: C_1  and  C_2
REMARK    2  A    between atoms: C_2  and  N_3
REMARK    3  A    between atoms: N_3  and  C_4
REMARK    4  A    between atoms: C_7  and  C_8
REMARK    5  A    between atoms: C_9  and  C_10
REMARK    6  A    between atoms: C_10  and  C_11
REMARK    7  A    between atoms: C_10  and  C_12
REMARK    8  A    between atoms: C_12  and  C_13
REMARK    9  A    between atoms: C_13  and  C_14
REMARK   10  A    between atoms: C_14  and  C_15
REMARK   11  A    between atoms: C_15  and  C_16
REMARK   12  A    between atoms: C_15  and  C_17
REMARK   13  A    between atoms: C_20  and  C_21
REMARK   14  A    between atoms: C_22  and  O_23
REMARK                            x       y       z     vdW  Elec       q    Type
REMARK                         _______ _______ _______ _____ _____    ______ ____
ROOT
ATOM      1  C   UNL     1       7.974   7.276  17.848  0.00  0.00    +0.000 C 
ATOM      2  C   UNL     1       8.142   6.058  18.747  0.00  0.00    +0.000 C 
ATOM      3  C   UNL     1       7.499   4.795  18.119  0.00  0.00    +0.000 C 
ATOM      4  C   UNL     1       5.891   4.939  17.923  0.00  0.00    +0.000 C 
ATOM      5  C   UNL     1       5.397   5.168  19.372  0.00  0.00    +0.000 C 
ATOM      6  C   UNL     1       5.262   3.589  17.390  0.00  0.00    +0.000 C 
ATOM      7  C   UNL     1       5.458   3.677  15.864  0.00  0.00    +0.000 C 
ATOM      8  C   UNL     1       6.103   5.011  15.520  0.00  0.00    +0.000 C 
ATOM      9  C   UNL     1       5.773   5.995  16.698  0.00  0.00    +0.000 C 
ATOM     10  C   UNL     1       4.581   6.777  15.999  0.00  0.00    +0.000 C 
ATOM     11  C   UNL     1       6.639   7.242  17.061  0.00  0.00    +0.000 C 
ENDROOT
BRANCH   1  12
ATOM     12  N   UNL     1       7.942   8.619  18.528  0.00  0.00    +0.000 NA
ATOM     13  H   UNL     1       6.960   8.916  18.589  0.00  0.00    +0.000 HD
BRANCH  12  15
ATOM     14  C   UNL     1       9.362  10.489  19.209  0.00  0.00    +0.000 C 
ATOM     15  C   UNL     1       8.744   9.719  18.023  0.00  0.00    +0.000 C 
ENDBRANCH  12  15
ENDBRANCH   1  12
BRANCH   6  16
ATOM     16  C   UNL     1       3.789   3.189  17.847  0.00  0.00    +0.000 C 
ATOM     17  C   UNL     1       3.700   1.698  18.224  0.00  0.00    +0.000 C 
BRANCH  16  18
ATOM     18  C   UNL     1       2.571   3.608  16.956  0.00  0.00    +0.000 C 
BRANCH  18  19
ATOM     19  C   UNL     1       1.616   4.535  17.759  0.00  0.00    +0.000 C 
BRANCH  19  20
ATOM     20  C   UNL     1       2.183   5.700  18.587  0.00  0.00    +0.000 C 
BRANCH  20  21
ATOM     21  C   UNL     1       2.084   5.650  20.125  0.00  0.00    +0.000 C 
ATOM     22  C   UNL     1       1.467   6.904  20.746  0.00  0.00    +0.000 C 
ATOM     23  C   UNL     1       1.232   4.432  20.551  0.00  0.00    +0.000 C 
ENDBRANCH  20  21
ENDBRANCH  19  20
ENDBRANCH  18  19
ENDBRANCH  16  18
ENDBRANCH   6  16
BRANCH  11  24
ATOM     24  O   UNL     1       5.701   8.041  17.854  0.00  0.00    +0.000 OA
ATOM     25  H   UNL     1       6.206   8.265  18.663  0.00  0.00    +0.000 HD
ENDBRANCH  11  24
TORSDOF 8
ENDMDL
MODEL 3
REMARK VINA RESULT:      -5.9      2.404      7.060
REMARK  Name = 
REMARK  14 active torsions:
REMARK  status: ('A' for Active; 'I' for Inactive)
REMARK    1  A    between atoms: C_1  and  C_2
REMARK    2  A    between atoms: C_2  and  N_3
REMARK    3  A    between atoms: N_3  and  C_4
REMARK    4  A    between atoms: C_7  and  C_8
REMARK    5  A    between atoms: C_9  and  C_10
REMARK    6  A    between atoms: C_10  and  C_11
REMARK    7  A    between atoms: C_10  and  C_12
REMARK    8  A    between atoms: C_12  and  C_13
REMARK    9  A    between atoms: C_13  and  C_14
REMARK   10  A    between atoms: C_14  and  C_15
REMARK   11  A    between atoms: C_15  and  C_16
REMARK   12  A    between atoms: C_15  and  C_17
REMARK   13  A    between atoms: C_20  and  C_21
REMARK   14  A    between atoms: C_22  and  O_23
REMARK                            x       y       z     vdW  Elec       q    Type
REMARK                         _______ _______ _______ _____ _____    ______ ____
ROOT
ATOM      1  C   UNL     1       2.017   4.323  17.850  0.00  0.00    +0.000 C 
ATOM      2  C   UNL     1       2.350   5.626  18.563  0.00  0.00    +0.000 C 
ATOM      3  C   UNL     1       3.460   6.413  17.820  0.00  0.00    +0.000 C 
ATOM      4  C   UNL     1       4.872   5.608  17.762  0.00  0.00    +0.000 C 
ATOM      5  C   UNL     1       5.211   5.423  19.261  0.00  0.00    +0.000 C 
ATOM      6  C   UNL     1       6.003   6.493  17.100  0.00  0.00    +0.000 C 
ATOM      7  C   UNL     1       5.805   6.261  15.589  0.00  0.00    +0.000 C 
ATOM      8  C   UNL     1       4.677   5.263  15.381  0.00  0.00    +0.000 C 
ATOM      9  C   UNL     1       4.562   4.421  16.701  0.00  0.00    +0.000 C 
ATOM     10  C   UNL     1       5.340   3.130  16.201  0.00  0.00    +0.000 C 
ATOM     11  C   UNL     1       3.258   3.697  17.164  0.00  0.00    +0.000 C 
ENDROOT
BRANCH   1  12
ATOM     12  N   UNL     1       1.490   3.200  18.704  0.00  0.00    +0.000 NA
ATOM     13  H   UNL     1       0.868   2.627  18.119  0.00  0.00    +0.000 HD
BRANCH  12  15
ATOM     14  C   UNL     1       1.716   2.982  21.128  0.00  0.00    +0.000 C 
ATOM     15  C   UNL     1       0.832   3.483  19.967  0.00  0.00    +0.000 C 
ENDBRANCH  12  15
ENDBRANCH   1  12
BRANCH   6  16
ATOM     16  C   UNL     1       7.505   6.333  17.606  0.00  0.00    +0.000 C 
ATOM     17  C   UNL     1       7.782   4.905  18.112  0.00  0.00    +0.000 C 
BRANCH  16  18
ATOM     18  C   UNL     1       8.095   7.395  18.595  0.00  0.00    +0.000 C 
BRANCH  18  19
ATOM     19  C   UNL     1       8.396   8.719  17.839  0.00  0.00    +0.000 C 
BRANCH  19  20
ATOM     20  C   UNL     1       8.598  10.028  18.621  0.00  0.00    +0.000 C 
BRANCH  20  21
ATOM     21  C   UNL     1       9.454  11.152  18.002  0.00  0.00    +0.000 C 
ATOM     22  C   UNL     1       8.754  12.512  17.964  0.00  0.00    +0.000 C 
ATOM     23  C   UNL     1      10.766  11.307  18.804  0.00  0.00    +0.000 C 
ENDBRANCH  20  21
ENDBRANCH  19  20
ENDBRANCH  18  19
ENDBRANCH  16  18
ENDBRANCH   6  16
BRANCH  11  24
ATOM     24  O   UNL     1       3.780   2.720  18.123  0.00  0.00    +0.000 OA
ATOM     25  H   UNL     1       3.156   1.967  18.056  0.00  0.00    +0.000 HD
ENDBRANCH  11  24
TORSDOF 8
ENDMDL
MODEL 4
REMARK VINA RESULT:      -5.5      0.613      1.268
REMARK  Name = 
REMARK  14 active torsions:
REMARK  status: ('A' for Active; 'I' for Inactive)
REMARK    1  A    between atoms: C_1  and  C_2
REMARK    2  A    between atoms: C_2  and  N_3
REMARK    3  A    between atoms: N_3  and  C_4
REMARK    4  A    between atoms: C_7  and  C_8
REMARK    5  A    between atoms: C_9  and  C_10
REMARK    6  A    between atoms: C_10  and  C_11
REMARK    7  A    between atoms: C_10  and  C_12
REMARK    8  A    between atoms: C_12  and  C_13
REMARK    9  A    between atoms: C_13  and  C_14
REMARK   10  A    between atoms: C_14  and  C_15
REMARK   11  A    between atoms: C_15  and  C_16
REMARK   12  A    between atoms: C_15  and  C_17
REMARK   13  A    between atoms: C_20  and  C_21
REMARK   14  A    between atoms: C_22  and  O_23
REMARK                            x       y       z     vdW  Elec       q    Type
REMARK                         _______ _______ _______ _____ _____    ______ ____
ROOT
ATOM      1  C   UNL     1       8.013   7.417  17.774  0.00  0.00    +0.000 C 
ATOM      2  C   UNL     1       8.066   6.290  18.797  0.00  0.00    +0.000 C 
ATOM      3  C   UNL     1       7.547   4.957  18.203  0.00  0.00    +0.000 C 
ATOM      4  C   UNL     1       5.984   5.031  17.759  0.00  0.00    +0.000 C 
ATOM      5  C   UNL     1       5.275   5.375  19.092  0.00  0.00    +0.000 C 
ATOM      6  C   UNL     1       5.466   3.620  17.268  0.00  0.00    +0.000 C 
ATOM      7  C   UNL     1       5.888   3.576  15.786  0.00  0.00    +0.000 C 
ATOM      8  C   UNL     1       6.552   4.894  15.417  0.00  0.00    +0.000 C 
ATOM      9  C   UNL     1       6.033   5.968  16.437  0.00  0.00    +0.000 C 
ATOM     10  C   UNL     1       4.945   6.646  15.499  0.00  0.00    +0.000 C 
ATOM     11  C   UNL     1       6.812   7.270  16.805  0.00  0.00    +0.000 C 
ENDROOT
BRANCH   1  12
ATOM     12  N   UNL     1       7.856   8.814  18.313  0.00  0.00    +0.000 NA
ATOM     13  H   UNL     1       7.487   9.402  17.555  0.00  0.00    +0.000 HD
BRANCH  12  15
ATOM     14  C   UNL     1       9.147  10.889  18.313  0.00  0.00    +0.000 C 
ATOM     15  C   UNL     1       8.977   9.491  18.941  0.00  0.00    +0.000 C 
ENDBRANCH  12  15
ENDBRANCH   1  12
BRANCH   6  16
ATOM     16  C   UNL     1       3.949   3.216  17.539  0.00  0.00    +0.000 C 
ATOM     17  C   UNL     1       2.996   4.400  17.292  0.00  0.00    +0.000 C 
BRANCH  16  18
ATOM     18  C   UNL     1       3.581   2.478  18.871  0.00  0.00    +0.000 C 
BRANCH  18  19
ATOM     19  C   UNL     1       2.105   1.994  18.823  0.00  0.00    +0.000 C 
BRANCH  19  20
ATOM     20  C   UNL     1       0.969   2.930  19.266  0.00  0.00    +0.000 C 
BRANCH  20  21
ATOM     21  C   UNL     1       0.998   3.533  20.686  0.00  0.00    +0.000 C 
ATOM     22  C   UNL     1       1.704   2.651  21.718  0.00  0.00    +0.000 C 
ATOM     23  C   UNL     1       1.713   4.903  20.653  0.00  0.00    +0.000 C 
ENDBRANCH  20  21
ENDBRANCH  19  20
ENDBRANCH  18  19
ENDBRANCH  16  18
ENDBRANCH   6  16
BRANCH  11  24
ATOM     24  O   UNL     1       5.752   8.107  17.373  0.00  0.00    +0.000 OA
ATOM     25  H   UNL     1       5.042   8.078  16.699  0.00  0.00    +0.000 HD
ENDBRANCH  11  24
TORSDOF 8
ENDMDL
MODEL 5
REMARK VINA RESULT:      -5.4      3.098      6.663
REMARK  Name = 
REMARK  14 active torsions:
REMARK  status: ('A' for Active; 'I' for Inactive)
REMARK    1  A    between atoms: C_1  and  C_2
REMARK    2  A    between atoms: C_2  and  N_3
REMARK    3  A    between atoms: N_3  and  C_4
REMARK    4  A    between atoms: C_7  and  C_8
REMARK    5  A    between atoms: C_9  and  C_10
REMARK    6  A    between atoms: C_10  and  C_11
REMARK    7  A    between atoms: C_10  and  C_12
REMARK    8  A    between atoms: C_12  and  C_13
REMARK    9  A    between atoms: C_13  and  C_14
REMARK   10  A    between atoms: C_14  and  C_15
REMARK   11  A    between atoms: C_15  and  C_16
REMARK   12  A    between atoms: C_15  and  C_17
REMARK   13  A    between atoms: C_20  and  C_21
REMARK   14  A    between atoms: C_22  and  O_23
REMARK                            x       y       z     vdW  Elec       q    Type
REMARK                         _______ _______ _______ _____ _____    ______ ____
ROOT
ATOM      1  C   UNL     1       2.868   3.854  19.866  0.00  0.00    +0.000 C 
ATOM      2  C   UNL     1       3.756   2.747  19.315  0.00  0.00    +0.000 C 
ATOM      3  C   UNL     1       5.109   3.304  18.805  0.00  0.00    +0.000 C 
ATOM      4  C   UNL     1       4.936   4.343  17.566  0.00  0.00    +0.000 C 
ATOM      5  C   UNL     1       4.240   3.470  16.494  0.00  0.00    +0.000 C 
ATOM      6  C   UNL     1       6.344   4.795  17.004  0.00  0.00    +0.000 C 
ATOM      7  C   UNL     1       6.745   5.961  17.930  0.00  0.00    +0.000 C 
ATOM      8  C   UNL     1       5.624   6.215  18.926  0.00  0.00    +0.000 C 
ATOM      9  C   UNL     1       4.306   5.653  18.285  0.00  0.00    +0.000 C 
ATOM     10  C   UNL     1       3.708   7.034  17.778  0.00  0.00    +0.000 C 
ATOM     11  C   UNL     1       3.062   5.192  19.108  0.00  0.00    +0.000 C 
ENDROOT
BRANCH   1  12
ATOM     12  N   UNL     1       1.381   3.628  19.795  0.00  0.00    +0.000 NA
ATOM     13  H   UNL     1       0.933   4.540  19.641  0.00  0.00    +0.000 HD
BRANCH  12  15
ATOM     14  C   UNL     1       1.697   2.575  21.978  0.00  0.00    +0.000 C 
ATOM     15  C   UNL     1       0.691   2.929  20.864  0.00  0.00    +0.000 C 
ENDBRANCH  12  15
ENDBRANCH   1  12
BRANCH   6  16
ATOM     16  C   UNL     1       6.493   5.101  15.448  0.00  0.00    +0.000 C 
ATOM     17  C   UNL     1       5.516   6.201  14.992  0.00  0.00    +0.000 C 
BRANCH  16  18
ATOM     18  C   UNL     1       6.497   3.909  14.432  0.00  0.00    +0.000 C 
BRANCH  18  19
ATOM     19  C   UNL     1       7.095   4.368  13.073  0.00  0.00    +0.000 C 
BRANCH  19  20
ATOM     20  C   UNL     1       6.654   3.691  11.765  0.00  0.00    +0.000 C 
BRANCH  20  21
ATOM     21  C   UNL     1       5.556   2.608  11.809  0.00  0.00    +0.000 C 
ATOM     22  C   UNL     1       4.231   3.045  11.181  0.00  0.00    +0.000 C 
ATOM     23  C   UNL     1       6.047   1.342  11.069  0.00  0.00    +0.000 C 
ENDBRANCH  20  21
ENDBRANCH  19  20
ENDBRANCH  18  19
ENDBRANCH  16  18
ENDBRANCH   6  16
BRANCH  11  24
ATOM     24  O   UNL     1       2.002   5.223  18.097  0.00  0.00    +0.000 OA
ATOM     25  H   UNL     1       1.199   4.953  18.589  0.00  0.00    +0.000 HD
ENDBRANCH  11  24
TORSDOF 8
ENDMDL
MODEL 6
REMARK VINA RESULT:      -5.3      3.002      6.471
REMARK  Name = 
REMARK  14 active torsions:
REMARK  status: ('A' for Active; 'I' for Inactive)
REMARK    1  A    between atoms: C_1  and  C_2
REMARK    2  A    between atoms: C_2  and  N_3
REMARK    3  A    between atoms: N_3  and  C_4
REMARK    4  A    between atoms: C_7  and  C_8
REMARK    5  A    between atoms: C_9  and  C_10
REMARK    6  A    between atoms: C_10  and  C_11
REMARK    7  A    between atoms: C_10  and  C_12
REMARK    8  A    between atoms: C_12  and  C_13
REMARK    9  A    between atoms: C_13  and  C_14
REMARK   10  A    between atoms: C_14  and  C_15
REMARK   11  A    between atoms: C_15  and  C_16
REMARK   12  A    between atoms: C_15  and  C_17
REMARK   13  A    between atoms: C_20  and  C_21
REMARK   14  A    between atoms: C_22  and  O_23
REMARK                            x       y       z     vdW  Elec       q    Type
REMARK                         _______ _______ _______ _____ _____    ______ ____
ROOT
ATOM      1  C   UNL     1       2.898   4.429  20.237  0.00  0.00    +0.000 C 
ATOM      2  C   UNL     1       3.665   3.157  19.906  0.00  0.00    +0.000 C 
ATOM      3  C   UNL     1       5.050   3.473  19.286  0.00  0.00    +0.000 C 
ATOM      4  C   UNL     1       4.940   4.263  17.868  0.00  0.00    +0.000 C 
ATOM      5  C   UNL     1       4.138   3.269  16.993  0.00  0.00    +0.000 C 
ATOM      6  C   UNL     1       6.368   4.462  17.217  0.00  0.00    +0.000 C 
ATOM      7  C   UNL     1       6.898   5.741  17.893  0.00  0.00    +0.000 C 
ATOM      8  C   UNL     1       5.833   6.289  18.830  0.00  0.00    +0.000 C 
ATOM      9  C   UNL     1       4.452   5.742  18.322  0.00  0.00    +0.000 C 
ATOM     10  C   UNL     1       3.970   7.049  17.559  0.00  0.00    +0.000 C 
ATOM     11  C   UNL     1       3.194   5.570  19.230  0.00  0.00    +0.000 C 
ENDROOT
BRANCH   1  12
ATOM     12  N   UNL     1       1.395   4.336  20.223  0.00  0.00    +0.000 NA
ATOM     13  H   UNL     1       1.039   4.907  21.001  0.00  0.00    +0.000 HD
BRANCH  12  15
ATOM     14  C   UNL     1       0.600   2.517  18.797  0.00  0.00    +0.000 C 
ATOM     15  C   UNL     1       0.738   3.041  20.241  0.00  0.00    +0.000 C 
ENDBRANCH  12  15
ENDBRANCH   1  12
BRANCH   6  16
ATOM     16  C   UNL     1       6.503   4.444  15.630  0.00  0.00    +0.000 C 
ATOM     17  C   UNL     1       7.875   4.974  15.173  0.00  0.00    +0.000 C 
BRANCH  16  18
ATOM     18  C   UNL     1       5.354   5.058  14.759  0.00  0.00    +0.000 C 
BRANCH  18  19
ATOM     19  C   UNL     1       4.968   4.076  13.617  0.00  0.00    +0.000 C 
BRANCH  19  20
ATOM     20  C   UNL     1       6.059   3.456  12.728  0.00  0.00    +0.000 C 
BRANCH  20  21
ATOM     21  C   UNL     1       5.659   2.804  11.388  0.00  0.00    +0.000 C 
ATOM     22  C   UNL     1       6.029   1.323  11.286  0.00  0.00    +0.000 C 
ATOM     23  C   UNL     1       4.133   2.936  11.182  0.00  0.00    +0.000 C 
ENDBRANCH  20  21
ENDBRANCH  19  20
ENDBRANCH  18  19
ENDBRANCH  16  18
ENDBRANCH   6  16
BRANCH  11  24
ATOM     24  O   UNL     1       2.114   5.504  18.241  0.00  0.00    +0.000 OA
ATOM     25  H   UNL     1       1.931   6.443  18.030  0.00  0.00    +0.000 HD
ENDBRANCH  11  24
TORSDOF 8
ENDMDL
MODEL 7
REMARK VINA RESULT:      -5.3      2.467      4.135
REMARK  Name = 
REMARK  14 active torsions:
REMARK  status: ('A' for Active; 'I' for Inactive)
REMARK    1  A    between atoms: C_1  and  C_2
REMARK    2  A    between atoms: C_2  and  N_3
REMARK    3  A    between atoms: N_3  and  C_4
REMARK    4  A    between atoms: C_7  and  C_8
REMARK    5  A    between atoms: C_9  and  C_10
REMARK    6  A    between atoms: C_10  and  C_11
REMARK    7  A    between atoms: C_10  and  C_12
REMARK    8  A    between atoms: C_12  and  C_13
REMARK    9  A    between atoms: C_13  and  C_14
REMARK   10  A    between atoms: C_14  and  C_15
REMARK   11  A    between atoms: C_15  and  C_16
REMARK   12  A    between atoms: C_15  and  C_17
REMARK   13  A    between atoms: C_20  and  C_21
REMARK   14  A    between atoms: C_22  and  O_23
REMARK                            x       y       z     vdW  Elec       q    Type
REMARK                         _______ _______ _______ _____ _____    ______ ____
ROOT
ATOM      1  C   UNL     1       7.051   4.540  15.812  0.00  0.00    +0.000 C 
ATOM      2  C   UNL     1       7.159   5.992  16.259  0.00  0.00    +0.000 C 
ATOM      3  C   UNL     1       6.470   6.218  17.629  0.00  0.00    +0.000 C 
ATOM      4  C   UNL     1       4.872   5.922  17.588  0.00  0.00    +0.000 C 
ATOM      5  C   UNL     1       4.373   6.933  16.526  0.00  0.00    +0.000 C 
ATOM      6  C   UNL     1       4.193   6.275  18.971  0.00  0.00    +0.000 C 
ATOM      7  C   UNL     1       4.409   5.004  19.815  0.00  0.00    +0.000 C 
ATOM      8  C   UNL     1       5.112   3.955  18.967  0.00  0.00    +0.000 C 
ATOM      9  C   UNL     1       4.811   4.305  17.466  0.00  0.00    +0.000 C 
ATOM     10  C   UNL     1       3.660   3.239  17.223  0.00  0.00    +0.000 C 
ATOM     11  C   UNL     1       5.724   3.884  16.272  0.00  0.00    +0.000 C 
ENDROOT
BRANCH   1  12
ATOM     12  N   UNL     1       7.067   4.286  14.328  0.00  0.00    +0.000 NA
ATOM     13  H   UNL     1       7.564   3.401  14.168  0.00  0.00    +0.000 HD
BRANCH  12  15
ATOM     14  C   UNL     1       7.441   4.786  11.965  0.00  0.00    +0.000 C 
ATOM     15  C   UNL     1       7.578   5.293  13.415  0.00  0.00    +0.000 C 
ENDBRANCH  12  15
ENDBRANCH   1  12
BRANCH   6  16
ATOM     16  C   UNL     1       2.701   6.832  18.980  0.00  0.00    +0.000 C 
ATOM     17  C   UNL     1       2.565   8.101  18.117  0.00  0.00    +0.000 C 
BRANCH  16  18
ATOM     18  C   UNL     1       1.961   7.013  20.349  0.00  0.00    +0.000 C 
BRANCH  18  19
ATOM     19  C   UNL     1       1.397   5.649  20.836  0.00  0.00    +0.000 C 
BRANCH  19  20
ATOM     20  C   UNL     1       1.133   4.517  19.829  0.00  0.00    +0.000 C 
BRANCH  20  21
ATOM     21  C   UNL     1       1.022   3.065  20.337  0.00  0.00    +0.000 C 
ATOM     22  C   UNL     1       1.369   2.012  19.283  0.00  0.00    +0.000 C 
ATOM     23  C   UNL     1       1.964   2.866  21.546  0.00  0.00    +0.000 C 
ENDBRANCH  20  21
ENDBRANCH  19  20
ENDBRANCH  18  19
ENDBRANCH  16  18
ENDBRANCH   6  16
BRANCH  11  24
ATOM     24  O   UNL     1       4.812   4.014  15.133  0.00  0.00    +0.000 OA
ATOM     25  H   UNL     1       5.285   4.612  14.518  0.00  0.00    +0.000 HD
ENDBRANCH  11  24
TORSDOF 8
ENDMDL
MODEL 8
REMARK VINA RESULT:      -5.2      2.162      3.477
REMARK  Name = 
REMARK  14 active torsions:
REMARK  status: ('A' for Active; 'I' for Inactive)
REMARK    1  A    between atoms: C_1  and  C_2
REMARK    2  A    between atoms: C_2  and  N_3
REMARK    3  A    between atoms: N_3  and  C_4
REMARK    4  A    between atoms: C_7  and  C_8
REMARK    5  A    between atoms: C_9  and  C_10
REMARK    6  A    between atoms: C_10  and  C_11
REMARK    7  A    between atoms: C_10  and  C_12
REMARK    8  A    between atoms: C_12  and  C_13
REMARK    9  A    between atoms: C_13  and  C_14
REMARK   10  A    between atoms: C_14  and  C_15
REMARK   11  A    between atoms: C_15  and  C_16
REMARK   12  A    between atoms: C_15  and  C_17
REMARK   13  A    between atoms: C_20  and  C_21
REMARK   14  A    between atoms: C_22  and  O_23
REMARK                            x       y       z     vdW  Elec       q    Type
REMARK                         _______ _______ _______ _____ _____    ______ ____
ROOT
ATOM      1  C   UNL     1       5.992   5.545  16.602  0.00  0.00    +0.000 C 
ATOM      2  C   UNL     1       6.464   4.563  17.665  0.00  0.00    +0.000 C 
ATOM      3  C   UNL     1       5.323   3.610  18.105  0.00  0.00    +0.000 C 
ATOM      4  C   UNL     1       4.079   4.396  18.799  0.00  0.00    +0.000 C 
ATOM      5  C   UNL     1       4.751   5.078  20.015  0.00  0.00    +0.000 C 
ATOM      6  C   UNL     1       2.994   3.378  19.335  0.00  0.00    +0.000 C 
ATOM      7  C   UNL     1       2.125   3.089  18.095  0.00  0.00    +0.000 C 
ATOM      8  C   UNL     1       2.627   3.925  16.928  0.00  0.00    +0.000 C 
ATOM      9  C   UNL     1       3.390   5.153  17.541  0.00  0.00    +0.000 C 
ATOM     10  C   UNL     1       2.235   6.230  17.373  0.00  0.00    +0.000 C 
ATOM     11  C   UNL     1       4.508   5.947  16.794  0.00  0.00    +0.000 C 
ENDROOT
BRANCH   1  12
ATOM     12  N   UNL     1       6.705   6.870  16.541  0.00  0.00    +0.000 NA
ATOM     13  H   UNL     1       7.077   6.982  15.589  0.00  0.00    +0.000 HD
BRANCH  12  15
ATOM     14  C   UNL     1       7.848   8.723  17.654  0.00  0.00    +0.000 C 
ATOM     15  C   UNL     1       7.746   7.191  17.501  0.00  0.00    +0.000 C 
ENDBRANCH  12  15
ENDBRANCH   1  12
BRANCH   6  16
ATOM     16  C   UNL     1       2.174   3.744  20.650  0.00  0.00    +0.000 C 
ATOM     17  C   UNL     1       1.641   2.482  21.355  0.00  0.00    +0.000 C 
BRANCH  16  18
ATOM     18  C   UNL     1       1.063   4.846  20.576  0.00  0.00    +0.000 C 
BRANCH  18  19
ATOM     19  C   UNL     1       1.586   6.174  21.191  0.00  0.00    +0.000 C 
BRANCH  19  20
ATOM     20  C   UNL     1       1.690   7.441  20.326  0.00  0.00    +0.000 C 
BRANCH  20  21
ATOM     21  C   UNL     1       1.084   8.761  20.844  0.00  0.00    +0.000 C 
ATOM     22  C   UNL     1       0.718   9.751  19.737  0.00  0.00    +0.000 C 
ATOM     23  C   UNL     1      -0.192   8.459  21.663  0.00  0.00    +0.000 C 
ENDBRANCH  20  21
ENDBRANCH  19  20
ENDBRANCH  18  19
ENDBRANCH  16  18
ENDBRANCH   6  16
BRANCH  11  24
ATOM     24  O   UNL     1       4.540   7.204  17.547  0.00  0.00    +0.000 OA
ATOM     25  H   UNL     1       5.441   7.553  17.385  0.00  0.00    +0.000 HD
ENDBRANCH  11  24
TORSDOF 8
ENDMDL
MODEL 9
REMARK VINA RESULT:      -5.2      3.085      6.493
REMARK  Name = 
REMARK  14 active torsions:
REMARK  status: ('A' for Active; 'I' for Inactive)
REMARK    1  A    between atoms: C_1  and  C_2
REMARK    2  A    between atoms: C_2  and  N_3
REMARK    3  A    between atoms: N_3  and  C_4
REMARK    4  A    between atoms: C_7  and  C_8
REMARK    5  A    between atoms: C_9  and  C_10
REMARK    6  A    between atoms: C_10  and  C_11
REMARK    7  A    between atoms: C_10  and  C_12
REMARK    8  A    between atoms: C_12  and  C_13
REMARK    9  A    between atoms: C_13  and  C_14
REMARK   10  A    between atoms: C_14  and  C_15
REMARK   11  A    between atoms: C_15  and  C_16
REMARK   12  A    between atoms: C_15  and  C_17
REMARK   13  A    between atoms: C_20  and  C_21
REMARK   14  A    between atoms: C_22  and  O_23
REMARK                            x       y       z     vdW  Elec       q    Type
REMARK                         _______ _______ _______ _____ _____    ______ ____
ROOT
ATOM      1  C   UNL     1       3.341   4.950  19.698  0.00  0.00    +0.000 C 
ATOM      2  C   UNL     1       4.053   3.616  19.520  0.00  0.00    +0.000 C 
ATOM      3  C   UNL     1       5.393   3.783  18.759  0.00  0.00    +0.000 C 
ATOM      4  C   UNL     1       5.192   4.344  17.246  0.00  0.00    +0.000 C 
ATOM      5  C   UNL     1       4.304   3.252  16.601  0.00  0.00    +0.000 C 
ATOM      6  C   UNL     1       6.569   4.388  16.470  0.00  0.00    +0.000 C 
ATOM      7  C   UNL     1       7.178   5.740  16.893  0.00  0.00    +0.000 C 
ATOM      8  C   UNL     1       6.200   6.464  17.804  0.00  0.00    +0.000 C 
ATOM      9  C   UNL     1       4.773   5.891  17.491  0.00  0.00    +0.000 C 
ATOM     10  C   UNL     1       4.262   7.077  16.566  0.00  0.00    +0.000 C 
ATOM     11  C   UNL     1       3.584   5.907  18.503  0.00  0.00    +0.000 C 
ENDROOT
BRANCH   1  12
ATOM     12  N   UNL     1       1.840   4.907  19.809  0.00  0.00    +0.000 NA
ATOM     13  H   UNL     1       1.564   5.535  20.574  0.00  0.00    +0.000 HD
BRANCH  12  15
ATOM     14  C   UNL     1       1.271   3.158  21.419  0.00  0.00    +0.000 C 
ATOM     15  C   UNL     1       1.149   3.639  19.958  0.00  0.00    +0.000 C 
ENDBRANCH  12  15
ENDBRANCH   1  12
BRANCH   6  16
ATOM     16  C   UNL     1       6.582   4.116  14.901  0.00  0.00    +0.000 C 
ATOM     17  C   UNL     1       7.348   5.216  14.142  0.00  0.00    +0.000 C 
BRANCH  16  18
ATOM     18  C   UNL     1       5.237   3.777  14.173  0.00  0.00    +0.000 C 
BRANCH  18  19
ATOM     19  C   UNL     1       5.444   3.789  12.633  0.00  0.00    +0.000 C 
BRANCH  19  20
ATOM     20  C   UNL     1       5.105   2.544  11.796  0.00  0.00    +0.000 C 
BRANCH  20  21
ATOM     21  C   UNL     1       6.229   1.826  11.023  0.00  0.00    +0.000 C 
ATOM     22  C   UNL     1       7.630   2.356  11.333  0.00  0.00    +0.000 C 
ATOM     23  C   UNL     1       6.202   0.315  11.351  0.00  0.00    +0.000 C 
ENDBRANCH  20  21
ENDBRANCH  19  20
ENDBRANCH  18  19
ENDBRANCH  16  18
ENDBRANCH   6  16
BRANCH  11  24
ATOM     24  O   UNL     1       2.431   5.723  17.619  0.00  0.00    +0.000 OA
ATOM     25  H   UNL     1       2.169   4.790  17.762  0.00  0.00    +0.000 HD
ENDBRANCH  11  24
TORSDOF 8
ENDMDL
