MODEL 1
REMARK VINA RESULT:      -5.7      0.000      0.000
REMARK  Name = 
REMARK  16 active torsions:
REMARK  status: ('A' for Active; 'I' for Inactive)
REMARK    1  A    between atoms: C_1  and  C_2
REMARK    2  A    between atoms: C_2  and  O_3
REMARK    3  A    between atoms: O_3  and  C_4
REMARK    4  A    between atoms: C_4  and  C_6
REMARK    5  A    between atoms: C_6  and  C_7
REMARK    6  A    between atoms: C_9  and  C_10
REMARK    7  A    between atoms: C_15  and  C_16
REMARK    8  A    between atoms: C_17  and  C_18
REMARK    9  A    between atoms: C_18  and  O_20
REMARK   10  A    between atoms: O_20  and  C_21
REMARK   11  A    between atoms: C_23  and  O_24
REMARK   12  A    between atoms: O_24  and  C_25
REMARK   13  A    between atoms: C_26  and  O_27
REMARK   14  A    between atoms: O_27  and  C_28
REMARK   15  A    between atoms: C_29  and  O_30
REMARK   16  A    between atoms: O_30  and  C_31
REMARK                            x       y       z     vdW  Elec       q    Type
REMARK                         _______ _______ _______ _____ _____    ______ ____
ROOT
ATOM      1  C   UNL     1      -2.171  12.350  19.036  0.00  0.00    +0.000 A 
ATOM      2  C   UNL     1      -2.810  11.446  18.144  0.00  0.00    +0.000 A 
ATOM      3  C   UNL     1      -4.179  11.157  18.259  0.00  0.00    +0.000 A 
ATOM      4  C   UNL     1      -4.979  11.727  19.238  0.00  0.00    +0.000 A 
ATOM      5  C   UNL     1      -4.398  12.612  20.164  0.00  0.00    +0.000 A 
ATOM      6  C   UNL     1      -2.995  12.890  20.083  0.00  0.00    +0.000 A 
ENDROOT
BRANCH   1  12
ATOM      7  C   UNL     1       0.367  11.801  19.326  0.00  0.00    +0.000 A 
ATOM      8  C   UNL     1       1.711  12.234  19.245  0.00  0.00    +0.000 A 
ATOM      9  C   UNL     1       2.035  13.513  18.814  0.00  0.00    +0.000 A 
ATOM     10  C   UNL     1       1.024  14.355  18.391  0.00  0.00    +0.000 A 
ATOM     11  C   UNL     1      -0.304  13.913  18.398  0.00  0.00    +0.000 A 
ATOM     12  C   UNL     1      -0.694  12.657  18.921  0.00  0.00    +0.000 A 
BRANCH   7  14
ATOM     13  C   UNL     1      -0.005  10.105  21.135  0.00  0.00    +0.000 C 
ATOM     14  C   UNL     1       0.255  10.435  19.862  0.00  0.00    +0.000 C 
BRANCH  13  15
ATOM     15  C   UNL     1       0.087   8.661  21.485  0.00  0.00    +0.000 C 
ATOM     16  O   UNL     1      -0.837   7.993  21.930  0.00  0.00    +0.000 OA
BRANCH  15  17
ATOM     17  O   UNL     1       1.347   8.205  21.267  0.00  0.00    +0.000 OA
BRANCH  17  19
ATOM     18  C   UNL     1       2.417   6.901  19.579  0.00  0.00    +0.000 C 
ATOM     19  C   UNL     1       1.448   6.872  20.746  0.00  0.00    +0.000 C 
ENDBRANCH  17  19
ENDBRANCH  15  17
ENDBRANCH  13  15
BRANCH  13  20
ATOM     20  C   UNL     1      -0.332  11.053  22.138  0.00  0.00    +0.000 C 
ATOM     21  N   UNL     1      -0.566  11.841  22.958  0.00  0.00    +0.000 NA
ENDBRANCH  13  20
ENDBRANCH   7  14
ENDBRANCH   1  12
BRANCH   2  22
ATOM     22  C   UNL     1      -2.138  10.701  17.031  0.00  0.00    +0.000 C 
ATOM     23  O   UNL     1      -1.376   9.760  17.141  0.00  0.00    +0.000 OA
BRANCH  22  24
ATOM     24  O   UNL     1      -2.539  11.271  15.858  0.00  0.00    +0.000 OA
ATOM     25  C   UNL     1      -2.984  10.368  14.843  0.00  0.00    +0.000 C 
ENDBRANCH  22  24
ENDBRANCH   2  22
BRANCH   4  26
ATOM     26  O   UNL     1      -6.303  11.388  19.341  0.00  0.00    +0.000 OA
ATOM     27  C   UNL     1      -7.178  11.815  18.301  0.00  0.00    +0.000 C 
ENDBRANCH   4  26
BRANCH   5  28
ATOM     28  O   UNL     1      -5.103  13.295  21.128  0.00  0.00    +0.000 OA
ATOM     29  C   UNL     1      -5.916  14.405  20.774  0.00  0.00    +0.000 C 
ENDBRANCH   5  28
BRANCH   6  30
ATOM     30  O   UNL     1      -2.303  13.666  20.991  0.00  0.00    +0.000 OA
ATOM     31  C   UNL     1      -2.390  15.084  20.959  0.00  0.00    +0.000 C 
ENDBRANCH   6  30
TORSDOF 11
ENDMDL
MODEL 2
REMARK VINA RESULT:      -5.3      2.228      4.727
REMARK  Name = 
REMARK  16 active torsions:
REMARK  status: ('A' for Active; 'I' for Inactive)
REMARK    1  A    between atoms: C_1  and  C_2
REMARK    2  A    between atoms: C_2  and  O_3
REMARK    3  A    between atoms: O_3  and  C_4
REMARK    4  A    between atoms: C_4  and  C_6
REMARK    5  A    between atoms: C_6  and  C_7
REMARK    6  A    between atoms: C_9  and  C_10
REMARK    7  A    between atoms: C_15  and  C_16
REMARK    8  A    between atoms: C_17  and  C_18
REMARK    9  A    between atoms: C_18  and  O_20
REMARK   10  A    between atoms: O_20  and  C_21
REMARK   11  A    between atoms: C_23  and  O_24
REMARK   12  A    between atoms: O_24  and  C_25
REMARK   13  A    between atoms: C_26  and  O_27
REMARK   14  A    between atoms: O_27  and  C_28
REMARK   15  A    between atoms: C_29  and  O_30
REMARK   16  A    between atoms: O_30  and  C_31
REMARK                            x       y       z     vdW  Elec       q    Type
REMARK                         _______ _______ _______ _____ _____    ______ ____
ROOT
ATOM      1  C   UNL     1      -2.636  12.023  19.606  0.00  0.00    +0.000 A 
ATOM      2  C   UNL     1      -3.649  11.532  18.738  0.00  0.00    +0.000 A 
ATOM      3  C   UNL     1      -5.005  11.816  18.969  0.00  0.00    +0.000 A 
ATOM      4  C   UNL     1      -5.431  12.582  20.045  0.00  0.00    +0.000 A 
ATOM      5  C   UNL     1      -4.476  13.075  20.950  0.00  0.00    +0.000 A 
ATOM      6  C   UNL     1      -3.092  12.765  20.750  0.00  0.00    +0.000 A 
ENDROOT
BRANCH   1  12
ATOM      7  C   UNL     1      -0.200  12.622  18.876  0.00  0.00    +0.000 A 
ATOM      8  C   UNL     1       1.121  12.189  18.613  0.00  0.00    +0.000 A 
ATOM      9  C   UNL     1       1.494  10.863  18.778  0.00  0.00    +0.000 A 
ATOM     10  C   UNL     1       0.570   9.962  19.276  0.00  0.00    +0.000 A 
ATOM     11  C   UNL     1      -0.718  10.394  19.609  0.00  0.00    +0.000 A 
ATOM     12  C   UNL     1      -1.176  11.711  19.366  0.00  0.00    +0.000 A 
BRANCH   7  14
ATOM     13  C   UNL     1      -0.111  15.072  19.403  0.00  0.00    +0.000 C 
ATOM     14  C   UNL     1      -0.385  14.051  18.578  0.00  0.00    +0.000 C 
BRANCH  13  15
ATOM     15  C   UNL     1      -0.528  16.428  18.951  0.00  0.00    +0.000 C 
ATOM     16  O   UNL     1      -1.567  16.982  19.282  0.00  0.00    +0.000 OA
BRANCH  15  17
ATOM     17  O   UNL     1       0.395  16.944  18.099  0.00  0.00    +0.000 OA
BRANCH  17  19
ATOM     18  C   UNL     1       0.800  18.449  16.292  0.00  0.00    +0.000 C 
ATOM     19  C   UNL     1       0.154  18.286  17.655  0.00  0.00    +0.000 C 
ENDBRANCH  17  19
ENDBRANCH  15  17
ENDBRANCH  13  15
BRANCH  13  20
ATOM     20  C   UNL     1       0.521  14.912  20.662  0.00  0.00    +0.000 C 
ATOM     21  N   UNL     1       1.009  14.763  21.704  0.00  0.00    +0.000 NA
ENDBRANCH  13  20
ENDBRANCH   7  14
ENDBRANCH   1  12
BRANCH   2  22
ATOM     22  C   UNL     1      -3.421  10.671  17.533  0.00  0.00    +0.000 C 
ATOM     23  O   UNL     1      -3.274   9.464  17.518  0.00  0.00    +0.000 OA
BRANCH  22  24
ATOM     24  O   UNL     1      -3.409  11.490  16.442  0.00  0.00    +0.000 OA
ATOM     25  C   UNL     1      -3.181  10.853  15.183  0.00  0.00    +0.000 C 
ENDBRANCH  22  24
ENDBRANCH   2  22
BRANCH   4  26
ATOM     26  O   UNL     1      -6.767  12.802  20.257  0.00  0.00    +0.000 OA
ATOM     27  C   UNL     1      -7.549  11.711  20.735  0.00  0.00    +0.000 C 
ENDBRANCH   4  26
BRANCH   5  28
ATOM     28  O   UNL     1      -4.770  13.905  22.008  0.00  0.00    +0.000 OA
ATOM     29  C   UNL     1      -5.241  13.368  23.236  0.00  0.00    +0.000 C 
ENDBRANCH   5  28
BRANCH   6  30
ATOM     30  O   UNL     1      -2.082  13.116  21.623  0.00  0.00    +0.000 OA
ATOM     31  C   UNL     1      -1.760  12.299  22.739  0.00  0.00    +0.000 C 
ENDBRANCH   6  30
TORSDOF 11
ENDMDL
MODEL 3
REMARK VINA RESULT:      -5.3      5.013      8.964
REMARK  Name = 
REMARK  16 active torsions:
REMARK  status: ('A' for Active; 'I' for Inactive)
REMARK    1  A    between atoms: C_1  and  C_2
REMARK    2  A    between atoms: C_2  and  O_3
REMARK    3  A    between atoms: O_3  and  C_4
REMARK    4  A    between atoms: C_4  and  C_6
REMARK    5  A    between atoms: C_6  and  C_7
REMARK    6  A    between atoms: C_9  and  C_10
REMARK    7  A    between atoms: C_15  and  C_16
REMARK    8  A    between atoms: C_17  and  C_18
REMARK    9  A    between atoms: C_18  and  O_20
REMARK   10  A    between atoms: O_20  and  C_21
REMARK   11  A    between atoms: C_23  and  O_24
REMARK   12  A    between atoms: O_24  and  C_25
REMARK   13  A    between atoms: C_26  and  O_27
REMARK   14  A    between atoms: O_27  and  C_28
REMARK   15  A    between atoms: C_29  and  O_30
REMARK   16  A    between atoms: O_30  and  C_31
REMARK                            x       y       z     vdW  Elec       q    Type
REMARK                         _______ _______ _______ _____ _____    ______ ____
ROOT
ATOM      1  C   UNL     1       2.417   6.012  19.032  0.00  0.00    +0.000 A 
ATOM      2  C   UNL     1       1.943   5.917  20.369  0.00  0.00    +0.000 A 
ATOM      3  C   UNL     1       1.438   7.041  21.042  0.00  0.00    +0.000 A 
ATOM      4  C   UNL     1       1.373   8.295  20.452  0.00  0.00    +0.000 A 
ATOM      5  C   UNL     1       1.849   8.454  19.139  0.00  0.00    +0.000 A 
ATOM      6  C   UNL     1       2.402   7.327  18.450  0.00  0.00    +0.000 A 
ENDROOT
BRANCH   1  12
ATOM      7  C   UNL     1       4.341   4.429  18.244  0.00  0.00    +0.000 A 
ATOM      8  C   UNL     1       4.749   3.323  17.463  0.00  0.00    +0.000 A 
ATOM      9  C   UNL     1       3.840   2.601  16.701  0.00  0.00    +0.000 A 
ATOM     10  C   UNL     1       2.500   2.932  16.764  0.00  0.00    +0.000 A 
ATOM     11  C   UNL     1       2.074   3.978  17.590  0.00  0.00    +0.000 A 
ATOM     12  C   UNL     1       2.971   4.806  18.307  0.00  0.00    +0.000 A 
BRANCH   7  14
ATOM     13  C   UNL     1       6.685   5.310  18.390  0.00  0.00    +0.000 C 
ATOM     14  C   UNL     1       5.476   5.079  18.921  0.00  0.00    +0.000 C 
BRANCH  13  15
ATOM     15  C   UNL     1       7.731   5.835  19.310  0.00  0.00    +0.000 C 
ATOM     16  O   UNL     1       7.868   5.490  20.475  0.00  0.00    +0.000 OA
BRANCH  15  17
ATOM     17  O   UNL     1       8.486   6.770  18.677  0.00  0.00    +0.000 OA
BRANCH  17  19
ATOM     18  C   UNL     1       8.488   9.129  18.314  0.00  0.00    +0.000 C 
ATOM     19  C   UNL     1       7.761   7.827  18.034  0.00  0.00    +0.000 C 
ENDBRANCH  17  19
ENDBRANCH  15  17
ENDBRANCH  13  15
BRANCH  13  20
ATOM     20  C   UNL     1       7.003   5.060  17.030  0.00  0.00    +0.000 C 
ATOM     21  N   UNL     1       7.234   4.873  15.909  0.00  0.00    +0.000 NA
ENDBRANCH  13  20
ENDBRANCH   7  14
ENDBRANCH   1  12
BRANCH   2  22
ATOM     22  C   UNL     1       1.939   4.674  21.205  0.00  0.00    +0.000 C 
ATOM     23  O   UNL     1       2.724   4.387  22.088  0.00  0.00    +0.000 OA
BRANCH  22  24
ATOM     24  O   UNL     1       0.885   3.910  20.795  0.00  0.00    +0.000 OA
ATOM     25  C   UNL     1       1.135   2.507  20.682  0.00  0.00    +0.000 C 
ENDBRANCH  22  24
ENDBRANCH   2  22
BRANCH   4  26
ATOM     26  O   UNL     1       0.910   9.374  21.158  0.00  0.00    +0.000 OA
ATOM     27  C   UNL     1       0.704   9.209  22.558  0.00  0.00    +0.000 C 
ENDBRANCH   4  26
BRANCH   5  28
ATOM     28  O   UNL     1       1.768   9.628  18.425  0.00  0.00    +0.000 OA
ATOM     29  C   UNL     1       0.517  10.085  17.932  0.00  0.00    +0.000 C 
ENDBRANCH   5  28
BRANCH   6  30
ATOM     30  O   UNL     1       2.981   7.387  17.198  0.00  0.00    +0.000 OA
ATOM     31  C   UNL     1       4.347   7.740  17.039  0.00  0.00    +0.000 C 
ENDBRANCH   6  30
TORSDOF 11
ENDMDL
MODEL 4
REMARK VINA RESULT:      -5.3      1.956      2.622
REMARK  Name = 
REMARK  16 active torsions:
REMARK  status: ('A' for Active; 'I' for Inactive)
REMARK    1  A    between atoms: C_1  and  C_2
REMARK    2  A    between atoms: C_2  and  O_3
REMARK    3  A    between atoms: O_3  and  C_4
REMARK    4  A    between atoms: C_4  and  C_6
REMARK    5  A    between atoms: C_6  and  C_7
REMARK    6  A    between atoms: C_9  and  C_10
REMARK    7  A    between atoms: C_15  and  C_16
REMARK    8  A    between atoms: C_17  and  C_18
REMARK    9  A    between atoms: C_18  and  O_20
REMARK   10  A    between atoms: O_20  and  C_21
REMARK   11  A    between atoms: C_23  and  O_24
REMARK   12  A    between atoms: O_24  and  C_25
REMARK   13  A    between atoms: C_26  and  O_27
REMARK   14  A    between atoms: O_27  and  C_28
REMARK   15  A    between atoms: C_29  and  O_30
REMARK   16  A    between atoms: O_30  and  C_31
REMARK                            x       y       z     vdW  Elec       q    Type
REMARK                         _______ _______ _______ _____ _____    ______ ____
ROOT
ATOM      1  C   UNL     1      -1.740  13.430  20.261  0.00  0.00    +0.000 A 
ATOM      2  C   UNL     1      -2.536  12.488  19.554  0.00  0.00    +0.000 A 
ATOM      3  C   UNL     1      -3.825  12.150  19.995  0.00  0.00    +0.000 A 
ATOM      4  C   UNL     1      -4.393  12.707  21.131  0.00  0.00    +0.000 A 
ATOM      5  C   UNL     1      -3.644  13.628  21.885  0.00  0.00    +0.000 A 
ATOM      6  C   UNL     1      -2.313  13.956  21.471  0.00  0.00    +0.000 A 
ENDROOT
BRANCH   1  12
ATOM      7  C   UNL     1       0.845  13.079  20.113  0.00  0.00    +0.000 A 
ATOM      8  C   UNL     1       2.105  13.560  19.685  0.00  0.00    +0.000 A 
ATOM      9  C   UNL     1       2.225  14.754  18.988  0.00  0.00    +0.000 A 
ATOM     10  C   UNL     1       1.080  15.450  18.647  0.00  0.00    +0.000 A 
ATOM     11  C   UNL     1      -0.177  14.946  19.000  0.00  0.00    +0.000 A 
ATOM     12  C   UNL     1      -0.346  13.788  19.796  0.00  0.00    +0.000 A 
BRANCH   7  14
ATOM     13  C   UNL     1       1.016  10.590  20.373  0.00  0.00    +0.000 C 
ATOM     14  C   UNL     1       0.961  11.829  20.882  0.00  0.00    +0.000 C 
BRANCH  13  15
ATOM     15  C   UNL     1       0.969   9.464  21.345  0.00  0.00    +0.000 C 
ATOM     16  O   UNL     1       0.955   8.280  21.037  0.00  0.00    +0.000 OA
BRANCH  15  17
ATOM     17  O   UNL     1       0.913   9.942  22.615  0.00  0.00    +0.000 OA
BRANCH  17  19
ATOM     18  C   UNL     1      -1.286  10.658  23.204  0.00  0.00    +0.000 C 
ATOM     19  C   UNL     1      -0.246   9.567  23.373  0.00  0.00    +0.000 C 
ENDBRANCH  17  19
ENDBRANCH  15  17
ENDBRANCH  13  15
BRANCH  13  20
ATOM     20  C   UNL     1       1.091  10.319  18.983  0.00  0.00    +0.000 C 
ATOM     21  N   UNL     1       1.158  10.132  17.839  0.00  0.00    +0.000 NA
ENDBRANCH  13  20
ENDBRANCH   7  14
ENDBRANCH   1  12
BRANCH   2  22
ATOM     22  C   UNL     1      -2.118  11.748  18.320  0.00  0.00    +0.000 C 
ATOM     23  O   UNL     1      -1.563  12.214  17.344  0.00  0.00    +0.000 OA
BRANCH  22  24
ATOM     24  O   UNL     1      -2.475  10.442  18.487  0.00  0.00    +0.000 OA
ATOM     25  C   UNL     1      -2.728   9.703  17.289  0.00  0.00    +0.000 C 
ENDBRANCH  22  24
ENDBRANCH   2  22
BRANCH   4  26
ATOM     26  O   UNL     1      -5.640  12.321  21.549  0.00  0.00    +0.000 OA
ATOM     27  C   UNL     1      -6.756  12.739  20.770  0.00  0.00    +0.000 C 
ENDBRANCH   4  26
BRANCH   5  28
ATOM     28  O   UNL     1      -4.126  14.302  22.984  0.00  0.00    +0.000 OA
ATOM     29  C   UNL     1      -4.849  15.514  22.825  0.00  0.00    +0.000 C 
ENDBRANCH   5  28
BRANCH   6  30
ATOM     30  O   UNL     1      -1.456  14.773  22.181  0.00  0.00    +0.000 OA
ATOM     31  C   UNL     1      -0.892  14.349  23.414  0.00  0.00    +0.000 C 
ENDBRANCH   6  30
TORSDOF 11
ENDMDL
MODEL 5
REMARK VINA RESULT:      -5.3      2.514      5.763
REMARK  Name = 
REMARK  16 active torsions:
REMARK  status: ('A' for Active; 'I' for Inactive)
REMARK    1  A    between atoms: C_1  and  C_2
REMARK    2  A    between atoms: C_2  and  O_3
REMARK    3  A    between atoms: O_3  and  C_4
REMARK    4  A    between atoms: C_4  and  C_6
REMARK    5  A    between atoms: C_6  and  C_7
REMARK    6  A    between atoms: C_9  and  C_10
REMARK    7  A    between atoms: C_15  and  C_16
REMARK    8  A    between atoms: C_17  and  C_18
REMARK    9  A    between atoms: C_18  and  O_20
REMARK   10  A    between atoms: O_20  and  C_21
REMARK   11  A    between atoms: C_23  and  O_24
REMARK   12  A    between atoms: O_24  and  C_25
REMARK   13  A    between atoms: C_26  and  O_27
REMARK   14  A    between atoms: O_27  and  C_28
REMARK   15  A    between atoms: C_29  and  O_30
REMARK   16  A    between atoms: O_30  and  C_31
REMARK                            x       y       z     vdW  Elec       q    Type
REMARK                         _______ _______ _______ _____ _____    ______ ____
ROOT
ATOM      1  C   UNL     1      -2.900  12.449  19.666  0.00  0.00    +0.000 A 
ATOM      2  C   UNL     1      -2.028  11.806  18.746  0.00  0.00    +0.000 A 
ATOM      3  C   UNL     1      -2.505  11.297  17.528  0.00  0.00    +0.000 A 
ATOM      4  C   UNL     1      -3.838  11.388  17.154  0.00  0.00    +0.000 A 
ATOM      5  C   UNL     1      -4.752  11.993  18.034  0.00  0.00    +0.000 A 
ATOM      6  C   UNL     1      -4.290  12.485  19.297  0.00  0.00    +0.000 A 
ENDROOT
BRANCH   1  12
ATOM      7  C   UNL     1      -1.951  14.321  21.223  0.00  0.00    +0.000 A 
ATOM      8  C   UNL     1      -1.418  14.687  22.481  0.00  0.00    +0.000 A 
ATOM      9  C   UNL     1      -1.264  13.759  23.500  0.00  0.00    +0.000 A 
ATOM     10  C   UNL     1      -1.707  12.464  23.302  0.00  0.00    +0.000 A 
ATOM     11  C   UNL     1      -2.304  12.107  22.087  0.00  0.00    +0.000 A 
ATOM     12  C   UNL     1      -2.392  12.990  20.984  0.00  0.00    +0.000 A 
BRANCH   7  14
ATOM     13  C   UNL     1      -0.894  16.042  19.737  0.00  0.00    +0.000 C 
ATOM     14  C   UNL     1      -1.968  15.448  20.277  0.00  0.00    +0.000 C 
BRANCH  13  15
ATOM     15  C   UNL     1      -1.142  17.268  18.930  0.00  0.00    +0.000 C 
ATOM     16  O   UNL     1      -1.654  18.293  19.361  0.00  0.00    +0.000 OA
BRANCH  15  17
ATOM     17  O   UNL     1      -0.748  17.072  17.645  0.00  0.00    +0.000 OA
BRANCH  17  19
ATOM     18  C   UNL     1       1.222  18.277  17.044  0.00  0.00    +0.000 C 
ATOM     19  C   UNL     1      -0.291  18.240  16.948  0.00  0.00    +0.000 C 
ENDBRANCH  17  19
ENDBRANCH  15  17
ENDBRANCH  13  15
BRANCH  13  20
ATOM     20  C   UNL     1       0.432  15.574  19.918  0.00  0.00    +0.000 C 
ATOM     21  N   UNL     1       1.530  15.221  20.050  0.00  0.00    +0.000 NA
ENDBRANCH  13  20
ENDBRANCH   7  14
ENDBRANCH   1  12
BRANCH   2  22
ATOM     22  C   UNL     1      -0.562  11.577  18.951  0.00  0.00    +0.000 C 
ATOM     23  O   UNL     1       0.341  12.342  18.675  0.00  0.00    +0.000 OA
BRANCH  22  24
ATOM     24  O   UNL     1      -0.418  10.341  19.511  0.00  0.00    +0.000 OA
ATOM     25  C   UNL     1       0.926   9.886  19.687  0.00  0.00    +0.000 C 
ENDBRANCH  22  24
ENDBRANCH   2  22
BRANCH   4  26
ATOM     26  O   UNL     1      -4.270  10.842  15.973  0.00  0.00    +0.000 OA
ATOM     27  C   UNL     1      -3.284  10.500  15.004  0.00  0.00    +0.000 C 
ENDBRANCH   4  26
BRANCH   5  28
ATOM     28  O   UNL     1      -6.080  12.209  17.743  0.00  0.00    +0.000 OA
ATOM     29  C   UNL     1      -6.486  13.395  17.075  0.00  0.00    +0.000 C 
ENDBRANCH   5  28
BRANCH   6  30
ATOM     30  O   UNL     1      -5.110  13.012  20.275  0.00  0.00    +0.000 OA
ATOM     31  C   UNL     1      -5.996  12.183  21.013  0.00  0.00    +0.000 C 
ENDBRANCH   6  30
TORSDOF 11
ENDMDL
MODEL 6
REMARK VINA RESULT:      -5.2      2.104      4.327
REMARK  Name = 
REMARK  16 active torsions:
REMARK  status: ('A' for Active; 'I' for Inactive)
REMARK    1  A    between atoms: C_1  and  C_2
REMARK    2  A    between atoms: C_2  and  O_3
REMARK    3  A    between atoms: O_3  and  C_4
REMARK    4  A    between atoms: C_4  and  C_6
REMARK    5  A    between atoms: C_6  and  C_7
REMARK    6  A    between atoms: C_9  and  C_10
REMARK    7  A    between atoms: C_15  and  C_16
REMARK    8  A    between atoms: C_17  and  C_18
REMARK    9  A    between atoms: C_18  and  O_20
REMARK   10  A    between atoms: O_20  and  C_21
REMARK   11  A    between atoms: C_23  and  O_24
REMARK   12  A    between atoms: O_24  and  C_25
REMARK   13  A    between atoms: C_26  and  O_27
REMARK   14  A    between atoms: O_27  and  C_28
REMARK   15  A    between atoms: C_29  and  O_30
REMARK   16  A    between atoms: O_30  and  C_31
REMARK                            x       y       z     vdW  Elec       q    Type
REMARK                         _______ _______ _______ _____ _____    ______ ____
ROOT
ATOM      1  C   UNL     1      -2.758  12.579  19.815  0.00  0.00    +0.000 A 
ATOM      2  C   UNL     1      -1.733  13.510  20.136  0.00  0.00    +0.000 A 
ATOM      3  C   UNL     1      -1.892  14.435  21.181  0.00  0.00    +0.000 A 
ATOM      4  C   UNL     1      -3.044  14.494  21.952  0.00  0.00    +0.000 A 
ATOM      5  C   UNL     1      -4.101  13.613  21.666  0.00  0.00    +0.000 A 
ATOM      6  C   UNL     1      -3.971  12.688  20.580  0.00  0.00    +0.000 A 
ENDROOT
BRANCH   1  12
ATOM      7  C   UNL     1      -1.758  10.438  18.699  0.00  0.00    +0.000 A 
ATOM      8  C   UNL     1      -1.624   9.630  17.546  0.00  0.00    +0.000 A 
ATOM      9  C   UNL     1      -2.262   9.955  16.357  0.00  0.00    +0.000 A 
ATOM     10  C   UNL     1      -3.100  11.054  16.323  0.00  0.00    +0.000 A 
ATOM     11  C   UNL     1      -3.297  11.819  17.478  0.00  0.00    +0.000 A 
ATOM     12  C   UNL     1      -2.594  11.588  18.684  0.00  0.00    +0.000 A 
BRANCH   7  14
ATOM     13  C   UNL     1       0.388   9.911  19.884  0.00  0.00    +0.000 C 
ATOM     14  C   UNL     1      -0.951   9.938  19.824  0.00  0.00    +0.000 C 
BRANCH  13  15
ATOM     15  C   UNL     1       0.992   9.214  21.053  0.00  0.00    +0.000 C 
ATOM     16  O   UNL     1       1.448   8.079  21.025  0.00  0.00    +0.000 OA
BRANCH  15  17
ATOM     17  O   UNL     1       0.934  10.006  22.154  0.00  0.00    +0.000 OA
BRANCH  17  19
ATOM     18  C   UNL     1      -1.096  10.718  23.187  0.00  0.00    +0.000 C 
ATOM     19  C   UNL     1      -0.037   9.633  23.141  0.00  0.00    +0.000 C 
ENDBRANCH  17  19
ENDBRANCH  15  17
ENDBRANCH  13  15
BRANCH  13  20
ATOM     20  C   UNL     1       1.228  10.484  18.895  0.00  0.00    +0.000 C 
ATOM     21  N   UNL     1       1.932  10.970  18.111  0.00  0.00    +0.000 NA
ENDBRANCH  13  20
ENDBRANCH   7  14
ENDBRANCH   1  12
BRANCH   2  22
ATOM     22  C   UNL     1      -0.421  13.640  19.424  0.00  0.00    +0.000 C 
ATOM     23  O   UNL     1      -0.253  13.842  18.237  0.00  0.00    +0.000 OA
BRANCH  22  24
ATOM     24  O   UNL     1       0.565  13.492  20.356  0.00  0.00    +0.000 OA
ATOM     25  C   UNL     1       1.807  14.135  20.061  0.00  0.00    +0.000 C 
ENDBRANCH  22  24
ENDBRANCH   2  22
BRANCH   4  26
ATOM     26  O   UNL     1      -3.175  15.438  22.937  0.00  0.00    +0.000 OA
ATOM     27  C   UNL     1      -2.289  15.359  24.050  0.00  0.00    +0.000 C 
ENDBRANCH   4  26
BRANCH   5  28
ATOM     28  O   UNL     1      -5.258  13.527  22.407  0.00  0.00    +0.000 OA
ATOM     29  C   UNL     1      -5.247  12.918  23.690  0.00  0.00    +0.000 C 
ENDBRANCH   5  28
BRANCH   6  30
ATOM     30  O   UNL     1      -4.976  11.844  20.153  0.00  0.00    +0.000 OA
ATOM     31  C   UNL     1      -6.142  12.353  19.522  0.00  0.00    +0.000 C 
ENDBRANCH   6  30
TORSDOF 11
ENDMDL
MODEL 7
REMARK VINA RESULT:      -5.2      2.168      5.297
REMARK  Name = 
REMARK  16 active torsions:
REMARK  status: ('A' for Active; 'I' for Inactive)
REMARK    1  A    between atoms: C_1  and  C_2
REMARK    2  A    between atoms: C_2  and  O_3
REMARK    3  A    between atoms: O_3  and  C_4
REMARK    4  A    between atoms: C_4  and  C_6
REMARK    5  A    between atoms: C_6  and  C_7
REMARK    6  A    between atoms: C_9  and  C_10
REMARK    7  A    between atoms: C_15  and  C_16
REMARK    8  A    between atoms: C_17  and  C_18
REMARK    9  A    between atoms: C_18  and  O_20
REMARK   10  A    between atoms: O_20  and  C_21
REMARK   11  A    between atoms: C_23  and  O_24
REMARK   12  A    between atoms: O_24  and  C_25
REMARK   13  A    between atoms: C_26  and  O_27
REMARK   14  A    between atoms: O_27  and  C_28
REMARK   15  A    between atoms: C_29  and  O_30
REMARK   16  A    between atoms: O_30  and  C_31
REMARK                            x       y       z     vdW  Elec       q    Type
REMARK                         _______ _______ _______ _____ _____    ______ ____
ROOT
ATOM      1  C   UNL     1      -1.694  11.662  19.665  0.00  0.00    +0.000 A 
ATOM      2  C   UNL     1      -1.948  11.993  21.024  0.00  0.00    +0.000 A 
ATOM      3  C   UNL     1      -3.215  12.429  21.442  0.00  0.00    +0.000 A 
ATOM      4  C   UNL     1      -4.282  12.561  20.565  0.00  0.00    +0.000 A 
ATOM      5  C   UNL     1      -4.085  12.270  19.204  0.00  0.00    +0.000 A 
ATOM      6  C   UNL     1      -2.789  11.860  18.754  0.00  0.00    +0.000 A 
ENDROOT
BRANCH   1  12
ATOM      7  C   UNL     1       0.696  12.034  18.676  0.00  0.00    +0.000 A 
ATOM      8  C   UNL     1       1.907  11.475  18.206  0.00  0.00    +0.000 A 
ATOM      9  C   UNL     1       2.119  10.103  18.207  0.00  0.00    +0.000 A 
ATOM     10  C   UNL     1       1.150   9.275  18.743  0.00  0.00    +0.000 A 
ATOM     11  C   UNL     1      -0.021   9.822  19.278  0.00  0.00    +0.000 A 
ATOM     12  C   UNL     1      -0.327  11.202  19.210  0.00  0.00    +0.000 A 
BRANCH   7  14
ATOM     13  C   UNL     1       1.293  14.384  19.317  0.00  0.00    +0.000 C 
ATOM     14  C   UNL     1       0.667  13.499  18.529  0.00  0.00    +0.000 C 
BRANCH  13  15
ATOM     15  C   UNL     1       0.993  15.823  19.077  0.00  0.00    +0.000 C 
ATOM     16  O   UNL     1      -0.127  16.276  18.881  0.00  0.00    +0.000 OA
BRANCH  15  17
ATOM     17  O   UNL     1       2.141  16.548  19.077  0.00  0.00    +0.000 OA
BRANCH  17  19
ATOM     18  C   UNL     1       4.372  16.400  18.245  0.00  0.00    +0.000 C 
ATOM     19  C   UNL     1       2.907  16.504  17.866  0.00  0.00    +0.000 C 
ENDBRANCH  17  19
ENDBRANCH  15  17
ENDBRANCH  13  15
BRANCH  13  20
ATOM     20  C   UNL     1       2.186  14.014  20.355  0.00  0.00    +0.000 C 
ATOM     21  N   UNL     1       2.936  13.692  21.179  0.00  0.00    +0.000 NA
ENDBRANCH  13  20
ENDBRANCH   7  14
ENDBRANCH   1  12
BRANCH   2  22
ATOM     22  C   UNL     1      -0.942  11.947  22.134  0.00  0.00    +0.000 C 
ATOM     23  O   UNL     1      -0.062  12.756  22.354  0.00  0.00    +0.000 OA
BRANCH  22  24
ATOM     24  O   UNL     1      -1.191  10.821  22.864  0.00  0.00    +0.000 OA
ATOM     25  C   UNL     1      -0.110   9.893  22.973  0.00  0.00    +0.000 C 
ENDBRANCH  22  24
ENDBRANCH   2  22
BRANCH   4  26
ATOM     26  O   UNL     1      -5.493  13.027  21.006  0.00  0.00    +0.000 OA
ATOM     27  C   UNL     1      -5.682  14.439  21.047  0.00  0.00    +0.000 C 
ENDBRANCH   4  26
BRANCH   5  28
ATOM     28  O   UNL     1      -5.083  12.291  18.256  0.00  0.00    +0.000 OA
ATOM     29  C   UNL     1      -6.037  11.240  18.192  0.00  0.00    +0.000 C 
ENDBRANCH   5  28
BRANCH   6  30
ATOM     30  O   UNL     1      -2.458  11.638  17.432  0.00  0.00    +0.000 OA
ATOM     31  C   UNL     1      -2.732  10.393  16.807  0.00  0.00    +0.000 C 
ENDBRANCH   6  30
TORSDOF 11
ENDMDL
MODEL 8
REMARK VINA RESULT:      -5.2      2.230      5.637
REMARK  Name = 
REMARK  16 active torsions:
REMARK  status: ('A' for Active; 'I' for Inactive)
REMARK    1  A    between atoms: C_1  and  C_2
REMARK    2  A    between atoms: C_2  and  O_3
REMARK    3  A    between atoms: O_3  and  C_4
REMARK    4  A    between atoms: C_4  and  C_6
REMARK    5  A    between atoms: C_6  and  C_7
REMARK    6  A    between atoms: C_9  and  C_10
REMARK    7  A    between atoms: C_15  and  C_16
REMARK    8  A    between atoms: C_17  and  C_18
REMARK    9  A    between atoms: C_18  and  O_20
REMARK   10  A    between atoms: O_20  and  C_21
REMARK   11  A    between atoms: C_23  and  O_24
REMARK   12  A    between atoms: O_24  and  C_25
REMARK   13  A    between atoms: C_26  and  O_27
REMARK   14  A    between atoms: O_27  and  C_28
REMARK   15  A    between atoms: C_29  and  O_30
REMARK   16  A    between atoms: O_30  and  C_31
REMARK                            x       y       z     vdW  Elec       q    Type
REMARK                         _______ _______ _______ _____ _____    ______ ____
ROOT
ATOM      1  C   UNL     1      -2.305  12.022  19.971  0.00  0.00    +0.000 A 
ATOM      2  C   UNL     1      -2.606  12.461  21.289  0.00  0.00    +0.000 A 
ATOM      3  C   UNL     1      -3.917  12.800  21.660  0.00  0.00    +0.000 A 
ATOM      4  C   UNL     1      -4.983  12.729  20.775  0.00  0.00    +0.000 A 
ATOM      5  C   UNL     1      -4.742  12.323  19.450  0.00  0.00    +0.000 A 
ATOM      6  C   UNL     1      -3.405  12.009  19.044  0.00  0.00    +0.000 A 
ENDROOT
BRANCH   1  12
ATOM      7  C   UNL     1       0.087  12.574  19.074  0.00  0.00    +0.000 A 
ATOM      8  C   UNL     1       1.351  12.107  18.646  0.00  0.00    +0.000 A 
ATOM      9  C   UNL     1       1.661  10.754  18.646  0.00  0.00    +0.000 A 
ATOM     10  C   UNL     1       0.736   9.854  19.140  0.00  0.00    +0.000 A 
ATOM     11  C   UNL     1      -0.491  10.311  19.634  0.00  0.00    +0.000 A 
ATOM     12  C   UNL     1      -0.893  11.666  19.564  0.00  0.00    +0.000 A 
BRANCH   7  14
ATOM     13  C   UNL     1       0.406  14.953  19.801  0.00  0.00    +0.000 C 
ATOM     14  C   UNL     1      -0.043  14.034  18.934  0.00  0.00    +0.000 C 
BRANCH  13  15
ATOM     15  C   UNL     1       0.023  16.367  19.536  0.00  0.00    +0.000 C 
ATOM     16  O   UNL     1       0.131  17.279  20.344  0.00  0.00    +0.000 OA
BRANCH  15  17
ATOM     17  O   UNL     1      -0.491  16.487  18.285  0.00  0.00    +0.000 OA
BRANCH  17  19
ATOM     18  C   UNL     1       0.137  18.264  16.821  0.00  0.00    +0.000 C 
ATOM     19  C   UNL     1      -0.850  17.816  17.883  0.00  0.00    +0.000 C 
ENDBRANCH  17  19
ENDBRANCH  15  17
ENDBRANCH  13  15
BRANCH  13  20
ATOM     20  C   UNL     1       1.190  14.637  20.941  0.00  0.00    +0.000 C 
ATOM     21  N   UNL     1       1.832  14.414  21.881  0.00  0.00    +0.000 NA
ENDBRANCH  13  20
ENDBRANCH   7  14
ENDBRANCH   1  12
BRANCH   2  22
ATOM     22  C   UNL     1      -1.612  12.634  22.397  0.00  0.00    +0.000 C 
ATOM     23  O   UNL     1      -0.549  12.058  22.518  0.00  0.00    +0.000 OA
BRANCH  22  24
ATOM     24  O   UNL     1      -2.118  13.567  23.255  0.00  0.00    +0.000 OA
ATOM     25  C   UNL     1      -1.166  14.452  23.850  0.00  0.00    +0.000 C 
ENDBRANCH  22  24
ENDBRANCH   2  22
BRANCH   4  26
ATOM     26  O   UNL     1      -6.241  13.107  21.166  0.00  0.00    +0.000 OA
ATOM     27  C   UNL     1      -6.547  14.498  21.152  0.00  0.00    +0.000 C 
ENDBRANCH   4  26
BRANCH   5  28
ATOM     28  O   UNL     1      -5.726  12.142  18.506  0.00  0.00    +0.000 OA
ATOM     29  C   UNL     1      -6.551  10.986  18.539  0.00  0.00    +0.000 C 
ENDBRANCH   5  28
BRANCH   6  30
ATOM     30  O   UNL     1      -3.039  11.691  17.752  0.00  0.00    +0.000 OA
ATOM     31  C   UNL     1      -3.213  10.376  17.243  0.00  0.00    +0.000 C 
ENDBRANCH   6  30
TORSDOF 11
ENDMDL
MODEL 9
REMARK VINA RESULT:      -5.2      2.072      5.388
REMARK  Name = 
REMARK  16 active torsions:
REMARK  status: ('A' for Active; 'I' for Inactive)
REMARK    1  A    between atoms: C_1  and  C_2
REMARK    2  A    between atoms: C_2  and  O_3
REMARK    3  A    between atoms: O_3  and  C_4
REMARK    4  A    between atoms: C_4  and  C_6
REMARK    5  A    between atoms: C_6  and  C_7
REMARK    6  A    between atoms: C_9  and  C_10
REMARK    7  A    between atoms: C_15  and  C_16
REMARK    8  A    between atoms: C_17  and  C_18
REMARK    9  A    between atoms: C_18  and  O_20
REMARK   10  A    between atoms: O_20  and  C_21
REMARK   11  A    between atoms: C_23  and  O_24
REMARK   12  A    between atoms: O_24  and  C_25
REMARK   13  A    between atoms: C_26  and  O_27
REMARK   14  A    between atoms: O_27  and  C_28
REMARK   15  A    between atoms: C_29  and  O_30
REMARK   16  A    between atoms: O_30  and  C_31
REMARK                            x       y       z     vdW  Elec       q    Type
REMARK                         _______ _______ _______ _____ _____    ______ ____
ROOT
ATOM      1  C   UNL     1      -2.284  11.917  19.637  0.00  0.00    +0.000 A 
ATOM      2  C   UNL     1      -2.644  12.430  20.913  0.00  0.00    +0.000 A 
ATOM      3  C   UNL     1      -3.976  12.752  21.218  0.00  0.00    +0.000 A 
ATOM      4  C   UNL     1      -5.008  12.593  20.304  0.00  0.00    +0.000 A 
ATOM      5  C   UNL     1      -4.709  12.111  19.017  0.00  0.00    +0.000 A 
ATOM      6  C   UNL     1      -3.350  11.813  18.677  0.00  0.00    +0.000 A 
ENDROOT
BRANCH   1  12
ATOM      7  C   UNL     1       0.153  12.506  18.900  0.00  0.00    +0.000 A 
ATOM      8  C   UNL     1       1.442  12.057  18.531  0.00  0.00    +0.000 A 
ATOM      9  C   UNL     1       1.758  10.706  18.505  0.00  0.00    +0.000 A 
ATOM     10  C   UNL     1       0.810   9.787  18.914  0.00  0.00    +0.000 A 
ATOM     11  C   UNL     1      -0.445  10.223  19.351  0.00  0.00    +0.000 A 
ATOM     12  C   UNL     1      -0.849  11.579  19.302  0.00  0.00    +0.000 A 
BRANCH   7  14
ATOM     13  C   UNL     1       0.437  14.861  19.713  0.00  0.00    +0.000 C 
ATOM     14  C   UNL     1       0.025  13.969  18.801  0.00  0.00    +0.000 C 
BRANCH  13  15
ATOM     15  C   UNL     1       0.060  16.282  19.477  0.00  0.00    +0.000 C 
ATOM     16  O   UNL     1      -0.696  16.928  20.190  0.00  0.00    +0.000 OA
BRANCH  15  17
ATOM     17  O   UNL     1       0.650  16.743  18.345  0.00  0.00    +0.000 OA
BRANCH  17  19
ATOM     18  C   UNL     1       2.890  16.679  17.525  0.00  0.00    +0.000 C 
ATOM     19  C   UNL     1       1.946  17.336  18.513  0.00  0.00    +0.000 C 
ENDBRANCH  17  19
ENDBRANCH  15  17
ENDBRANCH  13  15
BRANCH  13  20
ATOM     20  C   UNL     1       1.177  14.511  20.871  0.00  0.00    +0.000 C 
ATOM     21  N   UNL     1       1.750  14.217  21.836  0.00  0.00    +0.000 NA
ENDBRANCH  13  20
ENDBRANCH   7  14
ENDBRANCH   1  12
BRANCH   2  22
ATOM     22  C   UNL     1      -1.695  12.703  22.040  0.00  0.00    +0.000 C 
ATOM     23  O   UNL     1      -0.925  11.914  22.551  0.00  0.00    +0.000 OA
BRANCH  22  24
ATOM     24  O   UNL     1      -1.850  14.012  22.395  0.00  0.00    +0.000 OA
ATOM     25  C   UNL     1      -1.404  14.361  23.707  0.00  0.00    +0.000 C 
ENDBRANCH  22  24
ENDBRANCH   2  22
BRANCH   4  26
ATOM     26  O   UNL     1      -6.289  12.956  20.628  0.00  0.00    +0.000 OA
ATOM     27  C   UNL     1      -6.458  14.044  21.532  0.00  0.00    +0.000 C 
ENDBRANCH   4  26
BRANCH   5  28
ATOM     28  O   UNL     1      -5.654  11.841  18.054  0.00  0.00    +0.000 OA
ATOM     29  C   UNL     1      -6.138  12.877  17.210  0.00  0.00    +0.000 C 
ENDBRANCH   5  28
BRANCH   6  30
ATOM     30  O   UNL     1      -2.930  11.424  17.421  0.00  0.00    +0.000 OA
ATOM     31  C   UNL     1      -3.133  10.097  16.957  0.00  0.00    +0.000 C 
ENDBRANCH   6  30
TORSDOF 11
ENDMDL
