MODEL 1
REMARK VINA RESULT:      -8.0      0.000      0.000
REMARK  Name = 
REMARK  5 active torsions:
REMARK  status: ('A' for Active; 'I' for Inactive)
REMARK    1  A    between atoms: C_2  and  C_3
REMARK    2  A    between atoms: N_8  and  C_15
REMARK    3  A    between atoms: N_18  and  C_19
REMARK    4  A    between atoms: C_19  and  C_20
REMARK    5  A    between atoms: C_20  and  C_21
REMARK                            x       y       z     vdW  Elec       q    Type
REMARK                         _______ _______ _______ _____ _____    ______ ____
ROOT
ATOM      1  O   UNL     1       3.936   2.630  16.768  0.00  0.00    +0.000 OA
ATOM      2  C   UNL     1       4.435   3.699  17.124  0.00  0.00    +0.000 C 
ATOM      3  N   UNL     1       3.923   4.450  18.201  0.00  0.00    +0.000 N 
ATOM      4  C   UNL     1       2.815   3.867  18.888  0.00  0.00    +0.000 A 
ATOM      5  C   UNL     1       1.672   3.483  18.179  0.00  0.00    +0.000 A 
ATOM      6  C   UNL     1       0.636   2.822  18.843  0.00  0.00    +0.000 A 
ATOM      7  C   UNL     1       0.763   2.554  20.196  0.00  0.00    +0.000 A 
ATOM      8  C   UNL     1       1.915   2.975  20.832  0.00  0.00    +0.000 A 
ATOM      9  N   UNL     1       2.927   3.631  20.212  0.00  0.00    +0.000 NA
ENDROOT
BRANCH   3  10
ATOM     10  C   UNL     1       4.355   5.823  18.581  0.00  0.00    +0.000 C 
ATOM     11  C   UNL     1       3.656   6.465  19.775  0.00  0.00    +0.000 C 
ATOM     12  C   UNL     1       2.432   7.297  19.415  0.00  0.00    +0.000 C 
ATOM     13  N   UNL     1       2.595   8.194  18.261  0.00  0.00    +0.000 NA
ATOM     14  C   UNL     1       3.205   7.537  17.094  0.00  0.00    +0.000 C 
ATOM     15  C   UNL     1       4.496   6.809  17.419  0.00  0.00    +0.000 C 
BRANCH  13  16
ATOM     16  C   UNL     1       1.268   8.711  17.842  0.00  0.00    +0.000 C 
BRANCH  16  17
ATOM     17  C   UNL     1       0.918  10.093  18.410  0.00  0.00    +0.000 C 
BRANCH  17  18
ATOM     18  C   UNL     1      -0.557  10.361  18.263  0.00  0.00    +0.000 A 
ATOM     19  C   UNL     1      -1.312   9.652  17.317  0.00  0.00    +0.000 A 
ATOM     20  C   UNL     1      -2.665   9.935  17.142  0.00  0.00    +0.000 A 
ATOM     21  C   UNL     1      -3.270  10.931  17.907  0.00  0.00    +0.000 A 
ATOM     22  C   UNL     1      -2.526  11.641  18.846  0.00  0.00    +0.000 A 
ATOM     23  C   UNL     1      -1.172  11.359  19.024  0.00  0.00    +0.000 A 
ENDBRANCH  17  18
ENDBRANCH  16  17
ENDBRANCH  13  16
ENDBRANCH   3  10
BRANCH   2  24
ATOM     24  C   UNL     1       5.578   4.180  16.355  0.00  0.00    +0.000 A 
ATOM     25  C   UNL     1       5.580   4.408  14.944  0.00  0.00    +0.000 A 
ATOM     26  C   UNL     1       6.839   4.840  14.612  0.00  0.00    +0.000 A 
ATOM     27  O   UNL     1       7.639   4.838  15.707  0.00  0.00    +0.000 OA
ATOM     28  C   UNL     1       6.886   4.392  16.745  0.00  0.00    +0.000 A 
ENDBRANCH   2  24
TORSDOF 5
ENDMDL
MODEL 2
REMARK VINA RESULT:      -7.7      1.495      1.961
REMARK  Name = 
REMARK  5 active torsions:
REMARK  status: ('A' for Active; 'I' for Inactive)
REMARK    1  A    between atoms: C_2  and  C_3
REMARK    2  A    between atoms: N_8  and  C_15
REMARK    3  A    between atoms: N_18  and  C_19
REMARK    4  A    between atoms: C_19  and  C_20
REMARK    5  A    between atoms: C_20  and  C_21
REMARK                            x       y       z     vdW  Elec       q    Type
REMARK                         _______ _______ _______ _____ _____    ______ ____
ROOT
ATOM      1  O   UNL     1       3.985   2.637  16.575  0.00  0.00    +0.000 OA
ATOM      2  C   UNL     1       4.483   3.706  16.930  0.00  0.00    +0.000 C 
ATOM      3  N   UNL     1       3.988   4.445  18.022  0.00  0.00    +0.000 N 
ATOM      4  C   UNL     1       2.896   3.850  18.725  0.00  0.00    +0.000 A 
ATOM      5  C   UNL     1       1.742   3.464  18.035  0.00  0.00    +0.000 A 
ATOM      6  C   UNL     1       0.723   2.792  18.713  0.00  0.00    +0.000 A 
ATOM      7  C   UNL     1       0.877   2.514  20.060  0.00  0.00    +0.000 A 
ATOM      8  C   UNL     1       2.037   2.937  20.678  0.00  0.00    +0.000 A 
ATOM      9  N   UNL     1       3.034   3.605  20.045  0.00  0.00    +0.000 NA
ENDROOT
BRANCH   3  10
ATOM     10  C   UNL     1       4.418   5.818  18.405  0.00  0.00    +0.000 C 
ATOM     11  C   UNL     1       3.950   6.340  19.760  0.00  0.00    +0.000 C 
ATOM     12  C   UNL     1       2.637   7.110  19.719  0.00  0.00    +0.000 C 
ATOM     13  N   UNL     1       2.511   8.085  18.624  0.00  0.00    +0.000 NA
ATOM     14  C   UNL     1       2.898   7.540  17.312  0.00  0.00    +0.000 C 
ATOM     15  C   UNL     1       4.264   6.879  17.314  0.00  0.00    +0.000 C 
BRANCH  13  16
ATOM     16  C   UNL     1       1.101   8.538  18.522  0.00  0.00    +0.000 C 
BRANCH  16  17
ATOM     17  C   UNL     1       0.882  10.013  18.889  0.00  0.00    +0.000 C 
BRANCH  17  18
ATOM     18  C   UNL     1       0.361  10.129  20.298  0.00  0.00    +0.000 A 
ATOM     19  C   UNL     1       0.107   8.975  21.054  0.00  0.00    +0.000 A 
ATOM     20  C   UNL     1      -0.425   9.078  22.338  0.00  0.00    +0.000 A 
ATOM     21  C   UNL     1      -0.711  10.333  22.872  0.00  0.00    +0.000 A 
ATOM     22  C   UNL     1      -0.463  11.484  22.126  0.00  0.00    +0.000 A 
ATOM     23  C   UNL     1       0.070  11.383  20.841  0.00  0.00    +0.000 A 
ENDBRANCH  17  18
ENDBRANCH  16  17
ENDBRANCH  13  16
ENDBRANCH   3  10
BRANCH   2  24
ATOM     24  C   UNL     1       5.609   4.200  16.144  0.00  0.00    +0.000 A 
ATOM     25  C   UNL     1       5.583   4.442  14.736  0.00  0.00    +0.000 A 
ATOM     26  C   UNL     1       6.834   4.883  14.383  0.00  0.00    +0.000 A 
ATOM     27  O   UNL     1       7.654   4.875  15.462  0.00  0.00    +0.000 OA
ATOM     28  C   UNL     1       6.924   4.415  16.511  0.00  0.00    +0.000 A 
ENDBRANCH   2  24
TORSDOF 5
ENDMDL
MODEL 3
REMARK VINA RESULT:      -7.5      3.034      7.500
REMARK  Name = 
REMARK  5 active torsions:
REMARK  status: ('A' for Active; 'I' for Inactive)
REMARK    1  A    between atoms: C_2  and  C_3
REMARK    2  A    between atoms: N_8  and  C_15
REMARK    3  A    between atoms: N_18  and  C_19
REMARK    4  A    between atoms: C_19  and  C_20
REMARK    5  A    between atoms: C_20  and  C_21
REMARK                            x       y       z     vdW  Elec       q    Type
REMARK                         _______ _______ _______ _____ _____    ______ ____
ROOT
ATOM      1  O   UNL     1       1.476   5.033  19.888  0.00  0.00    +0.000 OA
ATOM      2  C   UNL     1       2.297   5.820  19.413  0.00  0.00    +0.000 C 
ATOM      3  N   UNL     1       3.494   5.389  18.807  0.00  0.00    +0.000 N 
ATOM      4  C   UNL     1       3.673   3.974  18.735  0.00  0.00    +0.000 A 
ATOM      5  C   UNL     1       3.589   3.194  19.893  0.00  0.00    +0.000 A 
ATOM      6  C   UNL     1       3.664   1.803  19.796  0.00  0.00    +0.000 A 
ATOM      7  C   UNL     1       3.818   1.219  18.550  0.00  0.00    +0.000 A 
ATOM      8  C   UNL     1       3.908   2.054  17.454  0.00  0.00    +0.000 A 
ATOM      9  N   UNL     1       3.851   3.407  17.523  0.00  0.00    +0.000 NA
ENDROOT
BRANCH   3  10
ATOM     10  C   UNL     1       4.609   6.273  18.370  0.00  0.00    +0.000 C 
ATOM     11  C   UNL     1       4.521   6.858  16.963  0.00  0.00    +0.000 C 
ATOM     12  C   UNL     1       5.193   6.015  15.888  0.00  0.00    +0.000 C 
ATOM     13  N   UNL     1       6.522   5.489  16.236  0.00  0.00    +0.000 NA
ATOM     14  C   UNL     1       6.569   4.863  17.568  0.00  0.00    +0.000 C 
ATOM     15  C   UNL     1       6.015   5.748  18.669  0.00  0.00    +0.000 C 
BRANCH  13  16
ATOM     16  C   UNL     1       6.925   4.461  15.244  0.00  0.00    +0.000 C 
BRANCH  16  17
ATOM     17  C   UNL     1       7.056   4.986  13.807  0.00  0.00    +0.000 C 
BRANCH  17  18
ATOM     18  C   UNL     1       6.491   3.987  12.832  0.00  0.00    +0.000 A 
ATOM     19  C   UNL     1       5.102   3.872  12.665  0.00  0.00    +0.000 A 
ATOM     20  C   UNL     1       4.574   2.912  11.804  0.00  0.00    +0.000 A 
ATOM     21  C   UNL     1       5.429   2.059  11.108  0.00  0.00    +0.000 A 
ATOM     22  C   UNL     1       6.809   2.166  11.270  0.00  0.00    +0.000 A 
ATOM     23  C   UNL     1       7.340   3.126  12.131  0.00  0.00    +0.000 A 
ENDBRANCH  17  18
ENDBRANCH  16  17
ENDBRANCH  13  16
ENDBRANCH   3  10
BRANCH   2  24
ATOM     24  C   UNL     1       1.990   7.242  19.531  0.00  0.00    +0.000 A 
ATOM     25  C   UNL     1       1.608   7.902  20.740  0.00  0.00    +0.000 A 
ATOM     26  C   UNL     1       1.396   9.220  20.425  0.00  0.00    +0.000 A 
ATOM     27  O   UNL     1       1.560   9.416  19.094  0.00  0.00    +0.000 OA
ATOM     28  C   UNL     1       1.868   8.210  18.552  0.00  0.00    +0.000 A 
ENDBRANCH   2  24
TORSDOF 5
ENDMDL
MODEL 4
REMARK VINA RESULT:      -7.5      2.895      7.633
REMARK  Name = 
REMARK  5 active torsions:
REMARK  status: ('A' for Active; 'I' for Inactive)
REMARK    1  A    between atoms: C_2  and  C_3
REMARK    2  A    between atoms: N_8  and  C_15
REMARK    3  A    between atoms: N_18  and  C_19
REMARK    4  A    between atoms: C_19  and  C_20
REMARK    5  A    between atoms: C_20  and  C_21
REMARK                            x       y       z     vdW  Elec       q    Type
REMARK                         _______ _______ _______ _____ _____    ______ ____
ROOT
ATOM      1  O   UNL     1       1.463   5.467  19.455  0.00  0.00    +0.000 OA
ATOM      2  C   UNL     1       2.313   6.191  18.934  0.00  0.00    +0.000 C 
ATOM      3  N   UNL     1       3.522   5.685  18.415  0.00  0.00    +0.000 N 
ATOM      4  C   UNL     1       3.678   4.267  18.488  0.00  0.00    +0.000 A 
ATOM      5  C   UNL     1       3.542   3.607  19.714  0.00  0.00    +0.000 A 
ATOM      6  C   UNL     1       3.596   2.212  19.757  0.00  0.00    +0.000 A 
ATOM      7  C   UNL     1       3.780   1.506  18.581  0.00  0.00    +0.000 A 
ATOM      8  C   UNL     1       3.921   2.226  17.411  0.00  0.00    +0.000 A 
ATOM      9  N   UNL     1       3.886   3.581  17.345  0.00  0.00    +0.000 NA
ENDROOT
BRANCH   3  10
ATOM     10  C   UNL     1       4.666   6.505  17.932  0.00  0.00    +0.000 C 
ATOM     11  C   UNL     1       4.600   7.009  16.493  0.00  0.00    +0.000 C 
ATOM     12  C   UNL     1       5.247   6.084  15.471  0.00  0.00    +0.000 C 
ATOM     13  N   UNL     1       6.557   5.536  15.856  0.00  0.00    +0.000 NA
ATOM     14  C   UNL     1       6.581   4.989  17.222  0.00  0.00    +0.000 C 
ATOM     15  C   UNL     1       6.053   5.954  18.267  0.00  0.00    +0.000 C 
BRANCH  13  16
ATOM     16  C   UNL     1       6.930   4.440  14.927  0.00  0.00    +0.000 C 
BRANCH  16  17
ATOM     17  C   UNL     1       6.967   4.849  13.448  0.00  0.00    +0.000 C 
BRANCH  17  18
ATOM     18  C   UNL     1       6.517   3.705  12.577  0.00  0.00    +0.000 A 
ATOM     19  C   UNL     1       7.464   2.857  11.982  0.00  0.00    +0.000 A 
ATOM     20  C   UNL     1       7.053   1.830  11.134  0.00  0.00    +0.000 A 
ATOM     21  C   UNL     1       5.697   1.648  10.871  0.00  0.00    +0.000 A 
ATOM     22  C   UNL     1       4.752   2.488  11.457  0.00  0.00    +0.000 A 
ATOM     23  C   UNL     1       5.160   3.516  12.306  0.00  0.00    +0.000 A 
ENDBRANCH  17  18
ENDBRANCH  16  17
ENDBRANCH  13  16
ENDBRANCH   3  10
BRANCH   2  24
ATOM     24  C   UNL     1       2.027   7.621  18.900  0.00  0.00    +0.000 A 
ATOM     25  C   UNL     1       1.685   8.417  20.037  0.00  0.00    +0.000 A 
ATOM     26  C   UNL     1       1.482   9.696  19.583  0.00  0.00    +0.000 A 
ATOM     27  O   UNL     1       1.613   9.740  18.234  0.00  0.00    +0.000 OA
ATOM     28  C   UNL     1       1.893   8.477  17.823  0.00  0.00    +0.000 A 
ENDBRANCH   2  24
TORSDOF 5
ENDMDL
MODEL 5
REMARK VINA RESULT:      -7.4      0.882      1.488
REMARK  Name = 
REMARK  5 active torsions:
REMARK  status: ('A' for Active; 'I' for Inactive)
REMARK    1  A    between atoms: C_2  and  C_3
REMARK    2  A    between atoms: N_8  and  C_15
REMARK    3  A    between atoms: N_18  and  C_19
REMARK    4  A    between atoms: C_19  and  C_20
REMARK    5  A    between atoms: C_20  and  C_21
REMARK                            x       y       z     vdW  Elec       q    Type
REMARK                         _______ _______ _______ _____ _____    ______ ____
ROOT
ATOM      1  O   UNL     1       3.978   2.625  16.590  0.00  0.00    +0.000 OA
ATOM      2  C   UNL     1       4.501   3.669  16.983  0.00  0.00    +0.000 C 
ATOM      3  N   UNL     1       4.024   4.378  18.103  0.00  0.00    +0.000 N 
ATOM      4  C   UNL     1       2.922   3.781  18.787  0.00  0.00    +0.000 A 
ATOM      5  C   UNL     1       1.758   3.446  18.087  0.00  0.00    +0.000 A 
ATOM      6  C   UNL     1       0.727   2.771  18.744  0.00  0.00    +0.000 A 
ATOM      7  C   UNL     1       0.878   2.440  20.080  0.00  0.00    +0.000 A 
ATOM      8  C   UNL     1       2.049   2.815  20.708  0.00  0.00    +0.000 A 
ATOM      9  N   UNL     1       3.058   3.484  20.097  0.00  0.00    +0.000 NA
ENDROOT
BRANCH   3  10
ATOM     10  C   UNL     1       4.485   5.726  18.535  0.00  0.00    +0.000 C 
ATOM     11  C   UNL     1       3.773   6.355  19.729  0.00  0.00    +0.000 C 
ATOM     12  C   UNL     1       2.583   7.232  19.363  0.00  0.00    +0.000 C 
ATOM     13  N   UNL     1       2.804   8.157  18.240  0.00  0.00    +0.000 NA
ATOM     14  C   UNL     1       3.425   7.516  17.070  0.00  0.00    +0.000 C 
ATOM     15  C   UNL     1       4.686   6.741  17.407  0.00  0.00    +0.000 C 
BRANCH  13  16
ATOM     16  C   UNL     1       1.504   8.725  17.802  0.00  0.00    +0.000 C 
BRANCH  16  17
ATOM     17  C   UNL     1       0.641   9.285  18.942  0.00  0.00    +0.000 C 
BRANCH  17  18
ATOM     18  C   UNL     1       0.357  10.746  18.713  0.00  0.00    +0.000 A 
ATOM     19  C   UNL     1       1.404  11.681  18.742  0.00  0.00    +0.000 A 
ATOM     20  C   UNL     1       1.137  13.040  18.585  0.00  0.00    +0.000 A 
ATOM     21  C   UNL     1      -0.174  13.473  18.403  0.00  0.00    +0.000 A 
ATOM     22  C   UNL     1      -1.219  12.551  18.375  0.00  0.00    +0.000 A 
ATOM     23  C   UNL     1      -0.955  11.191  18.532  0.00  0.00    +0.000 A 
ENDBRANCH  17  18
ENDBRANCH  16  17
ENDBRANCH  13  16
ENDBRANCH   3  10
BRANCH   2  24
ATOM     24  C   UNL     1       5.635   4.168  16.212  0.00  0.00    +0.000 A 
ATOM     25  C   UNL     1       5.616   4.442  14.809  0.00  0.00    +0.000 A 
ATOM     26  C   UNL     1       6.873   4.876  14.471  0.00  0.00    +0.000 A 
ATOM     27  O   UNL     1       7.690   4.834  15.552  0.00  0.00    +0.000 OA
ATOM     28  C   UNL     1       6.951   4.359  16.587  0.00  0.00    +0.000 A 
ENDBRANCH   2  24
TORSDOF 5
ENDMDL
MODEL 6
REMARK VINA RESULT:      -7.4      1.202      1.889
REMARK  Name = 
REMARK  5 active torsions:
REMARK  status: ('A' for Active; 'I' for Inactive)
REMARK    1  A    between atoms: C_2  and  C_3
REMARK    2  A    between atoms: N_8  and  C_15
REMARK    3  A    between atoms: N_18  and  C_19
REMARK    4  A    between atoms: C_19  and  C_20
REMARK    5  A    between atoms: C_20  and  C_21
REMARK                            x       y       z     vdW  Elec       q    Type
REMARK                         _______ _______ _______ _____ _____    ______ ____
ROOT
ATOM      1  O   UNL     1       3.936   2.625  16.834  0.00  0.00    +0.000 OA
ATOM      2  C   UNL     1       4.444   3.690  17.191  0.00  0.00    +0.000 C 
ATOM      3  N   UNL     1       3.951   4.436  18.279  0.00  0.00    +0.000 N 
ATOM      4  C   UNL     1       2.849   3.854  18.976  0.00  0.00    +0.000 A 
ATOM      5  C   UNL     1       1.694   3.480  18.280  0.00  0.00    +0.000 A 
ATOM      6  C   UNL     1       0.665   2.820  18.954  0.00  0.00    +0.000 A 
ATOM      7  C   UNL     1       0.808   2.542  20.303  0.00  0.00    +0.000 A 
ATOM      8  C   UNL     1       1.969   2.954  20.926  0.00  0.00    +0.000 A 
ATOM      9  N   UNL     1       2.977   3.609  20.297  0.00  0.00    +0.000 NA
ENDROOT
BRANCH   3  10
ATOM     10  C   UNL     1       4.394   5.805  18.662  0.00  0.00    +0.000 C 
ATOM     11  C   UNL     1       3.643   6.484  19.803  0.00  0.00    +0.000 C 
ATOM     12  C   UNL     1       2.463   7.338  19.360  0.00  0.00    +0.000 C 
ATOM     13  N   UNL     1       2.715   8.212  18.204  0.00  0.00    +0.000 NA
ATOM     14  C   UNL     1       3.375   7.520  17.084  0.00  0.00    +0.000 C 
ATOM     15  C   UNL     1       4.626   6.767  17.495  0.00  0.00    +0.000 C 
BRANCH  13  16
ATOM     16  C   UNL     1       1.428   8.753  17.700  0.00  0.00    +0.000 C 
BRANCH  16  17
ATOM     17  C   UNL     1       0.601   9.504  18.753  0.00  0.00    +0.000 C 
BRANCH  17  18
ATOM     18  C   UNL     1       0.869  10.984  18.671  0.00  0.00    +0.000 A 
ATOM     19  C   UNL     1      -0.170  11.902  18.888  0.00  0.00    +0.000 A 
ATOM     20  C   UNL     1       0.063  13.270  18.760  0.00  0.00    +0.000 A 
ATOM     21  C   UNL     1       1.330  13.729  18.409  0.00  0.00    +0.000 A 
ATOM     22  C   UNL     1       2.366  12.823  18.189  0.00  0.00    +0.000 A 
ATOM     23  C   UNL     1       2.137  11.453  18.317  0.00  0.00    +0.000 A 
ENDBRANCH  17  18
ENDBRANCH  16  17
ENDBRANCH  13  16
ENDBRANCH   3  10
BRANCH   2  24
ATOM     24  C   UNL     1       5.580   4.170  16.410  0.00  0.00    +0.000 A 
ATOM     25  C   UNL     1       5.552   4.451  15.009  0.00  0.00    +0.000 A 
ATOM     26  C   UNL     1       6.814   4.863  14.660  0.00  0.00    +0.000 A 
ATOM     27  O   UNL     1       7.641   4.800  15.732  0.00  0.00    +0.000 OA
ATOM     28  C   UNL     1       6.903   4.334  16.772  0.00  0.00    +0.000 A 
ENDBRANCH   2  24
TORSDOF 5
ENDMDL
MODEL 7
REMARK VINA RESULT:      -7.2      2.960      7.373
REMARK  Name = 
REMARK  5 active torsions:
REMARK  status: ('A' for Active; 'I' for Inactive)
REMARK    1  A    between atoms: C_2  and  C_3
REMARK    2  A    between atoms: N_8  and  C_15
REMARK    3  A    between atoms: N_18  and  C_19
REMARK    4  A    between atoms: C_19  and  C_20
REMARK    5  A    between atoms: C_20  and  C_21
REMARK                            x       y       z     vdW  Elec       q    Type
REMARK                         _______ _______ _______ _____ _____    ______ ____
ROOT
ATOM      1  O   UNL     1       1.336   5.076  20.372  0.00  0.00    +0.000 OA
ATOM      2  C   UNL     1       2.101   5.893  19.857  0.00  0.00    +0.000 C 
ATOM      3  N   UNL     1       3.242   5.504  19.126  0.00  0.00    +0.000 N 
ATOM      4  C   UNL     1       3.428   4.096  18.978  0.00  0.00    +0.000 A 
ATOM      5  C   UNL     1       3.460   3.268  20.105  0.00  0.00    +0.000 A 
ATOM      6  C   UNL     1       3.541   1.884  19.944  0.00  0.00    +0.000 A 
ATOM      7  C   UNL     1       3.585   1.353  18.666  0.00  0.00    +0.000 A 
ATOM      8  C   UNL     1       3.564   2.233  17.601  0.00  0.00    +0.000 A 
ATOM      9  N   UNL     1       3.500   3.582  17.732  0.00  0.00    +0.000 NA
ENDROOT
BRANCH   3  10
ATOM     10  C   UNL     1       4.302   6.421  18.625  0.00  0.00    +0.000 C 
ATOM     11  C   UNL     1       4.197   6.877  17.173  0.00  0.00    +0.000 C 
ATOM     12  C   UNL     1       4.939   5.994  16.179  0.00  0.00    +0.000 C 
ATOM     13  N   UNL     1       6.294   5.590  16.584  0.00  0.00    +0.000 NA
ATOM     14  C   UNL     1       6.363   5.084  17.965  0.00  0.00    +0.000 C 
ATOM     15  C   UNL     1       5.735   6.019  18.981  0.00  0.00    +0.000 C 
BRANCH  13  16
ATOM     16  C   UNL     1       6.780   4.512  15.687  0.00  0.00    +0.000 C 
BRANCH  16  17
ATOM     17  C   UNL     1       7.135   4.981  14.269  0.00  0.00    +0.000 C 
BRANCH  17  18
ATOM     18  C   UNL     1       6.501   4.076  13.245  0.00  0.00    +0.000 A 
ATOM     19  C   UNL     1       7.301   3.396  12.313  0.00  0.00    +0.000 A 
ATOM     20  C   UNL     1       6.713   2.600  11.331  0.00  0.00    +0.000 A 
ATOM     21  C   UNL     1       5.326   2.483  11.271  0.00  0.00    +0.000 A 
ATOM     22  C   UNL     1       4.526   3.157  12.192  0.00  0.00    +0.000 A 
ATOM     23  C   UNL     1       5.111   3.953  13.176  0.00  0.00    +0.000 A 
ENDBRANCH  17  18
ENDBRANCH  16  17
ENDBRANCH  13  16
ENDBRANCH   3  10
BRANCH   2  24
ATOM     24  C   UNL     1       1.791   7.304  20.062  0.00  0.00    +0.000 A 
ATOM     25  C   UNL     1       1.756   8.294  19.031  0.00  0.00    +0.000 A 
ATOM     26  C   UNL     1       1.441   9.486  19.634  0.00  0.00    +0.000 A 
ATOM     27  O   UNL     1       1.339   9.319  20.976  0.00  0.00    +0.000 OA
ATOM     28  C   UNL     1       1.600   8.012  21.233  0.00  0.00    +0.000 A 
ENDBRANCH   2  24
TORSDOF 5
ENDMDL
MODEL 8
REMARK VINA RESULT:      -7.0      1.990      2.697
REMARK  Name = 
REMARK  5 active torsions:
REMARK  status: ('A' for Active; 'I' for Inactive)
REMARK    1  A    between atoms: C_2  and  C_3
REMARK    2  A    between atoms: N_8  and  C_15
REMARK    3  A    between atoms: N_18  and  C_19
REMARK    4  A    between atoms: C_19  and  C_20
REMARK    5  A    between atoms: C_20  and  C_21
REMARK                            x       y       z     vdW  Elec       q    Type
REMARK                         _______ _______ _______ _____ _____    ______ ____
ROOT
ATOM      1  O   UNL     1       5.961   3.630  19.182  0.00  0.00    +0.000 OA
ATOM      2  C   UNL     1       5.422   4.380  18.366  0.00  0.00    +0.000 C 
ATOM      3  N   UNL     1       4.062   4.738  18.450  0.00  0.00    +0.000 N 
ATOM      4  C   UNL     1       3.356   4.213  19.576  0.00  0.00    +0.000 A 
ATOM      5  C   UNL     1       3.352   2.837  19.825  0.00  0.00    +0.000 A 
ATOM      6  C   UNL     1       2.745   2.345  20.982  0.00  0.00    +0.000 A 
ATOM      7  C   UNL     1       2.159   3.233  21.868  0.00  0.00    +0.000 A 
ATOM      8  C   UNL     1       2.189   4.577  21.549  0.00  0.00    +0.000 A 
ATOM      9  N   UNL     1       2.760   5.077  20.424  0.00  0.00    +0.000 NA
ENDROOT
BRANCH   3  10
ATOM     10  C   UNL     1       3.298   5.490  17.417  0.00  0.00    +0.000 C 
ATOM     11  C   UNL     1       3.910   6.795  16.915  0.00  0.00    +0.000 C 
ATOM     12  C   UNL     1       3.469   8.034  17.683  0.00  0.00    +0.000 C 
ATOM     13  N   UNL     1       2.029   8.118  17.971  0.00  0.00    +0.000 NA
ATOM     14  C   UNL     1       1.472   6.872  18.523  0.00  0.00    +0.000 C 
ATOM     15  C   UNL     1       1.802   5.645  17.694  0.00  0.00    +0.000 C 
BRANCH  13  16
ATOM     16  C   UNL     1       1.782   9.196  18.960  0.00  0.00    +0.000 C 
BRANCH  16  17
ATOM     17  C   UNL     1       0.335   9.706  18.995  0.00  0.00    +0.000 C 
BRANCH  17  18
ATOM     18  C   UNL     1      -0.109   9.928  20.417  0.00  0.00    +0.000 A 
ATOM     19  C   UNL     1      -0.610  11.177  20.813  0.00  0.00    +0.000 A 
ATOM     20  C   UNL     1      -0.971  11.401  22.140  0.00  0.00    +0.000 A 
ATOM     21  C   UNL     1      -0.829  10.382  23.079  0.00  0.00    +0.000 A 
ATOM     22  C   UNL     1      -0.330   9.139  22.693  0.00  0.00    +0.000 A 
ATOM     23  C   UNL     1       0.031   8.912  21.366  0.00  0.00    +0.000 A 
ENDBRANCH  17  18
ENDBRANCH  16  17
ENDBRANCH  13  16
ENDBRANCH   3  10
BRANCH   2  24
ATOM     24  C   UNL     1       6.255   4.868  17.271  0.00  0.00    +0.000 A 
ATOM     25  C   UNL     1       6.397   4.229  16.001  0.00  0.00    +0.000 A 
ATOM     26  C   UNL     1       7.271   4.991  15.267  0.00  0.00    +0.000 A 
ATOM     27  O   UNL     1       7.731   6.026  16.013  0.00  0.00    +0.000 OA
ATOM     28  C   UNL     1       7.153   5.918  17.237  0.00  0.00    +0.000 A 
ENDBRANCH   2  24
TORSDOF 5
ENDMDL
MODEL 9
REMARK VINA RESULT:      -7.0      2.254      2.797
REMARK  Name = 
REMARK  5 active torsions:
REMARK  status: ('A' for Active; 'I' for Inactive)
REMARK    1  A    between atoms: C_2  and  C_3
REMARK    2  A    between atoms: N_8  and  C_15
REMARK    3  A    between atoms: N_18  and  C_19
REMARK    4  A    between atoms: C_19  and  C_20
REMARK    5  A    between atoms: C_20  and  C_21
REMARK                            x       y       z     vdW  Elec       q    Type
REMARK                         _______ _______ _______ _____ _____    ______ ____
ROOT
ATOM      1  O   UNL     1       6.027   3.704  19.276  0.00  0.00    +0.000 OA
ATOM      2  C   UNL     1       5.475   4.426  18.444  0.00  0.00    +0.000 C 
ATOM      3  N   UNL     1       4.100   4.731  18.501  0.00  0.00    +0.000 N 
ATOM      4  C   UNL     1       3.394   4.188  19.618  0.00  0.00    +0.000 A 
ATOM      5  C   UNL     1       3.440   2.815  19.879  0.00  0.00    +0.000 A 
ATOM      6  C   UNL     1       2.831   2.309  21.029  0.00  0.00    +0.000 A 
ATOM      7  C   UNL     1       2.195   3.181  21.896  0.00  0.00    +0.000 A 
ATOM      8  C   UNL     1       2.179   4.522  21.566  0.00  0.00    +0.000 A 
ATOM      9  N   UNL     1       2.750   5.035  20.448  0.00  0.00    +0.000 NA
ENDROOT
BRANCH   3  10
ATOM     10  C   UNL     1       3.328   5.445  17.448  0.00  0.00    +0.000 C 
ATOM     11  C   UNL     1       3.878   6.787  16.973  0.00  0.00    +0.000 C 
ATOM     12  C   UNL     1       3.341   7.993  17.732  0.00  0.00    +0.000 C 
ATOM     13  N   UNL     1       1.891   7.991  17.974  0.00  0.00    +0.000 NA
ATOM     14  C   UNL     1       1.390   6.712  18.502  0.00  0.00    +0.000 C 
ATOM     15  C   UNL     1       1.816   5.512  17.678  0.00  0.00    +0.000 C 
BRANCH  13  16
ATOM     16  C   UNL     1       1.551   9.047  18.961  0.00  0.00    +0.000 C 
BRANCH  16  17
ATOM     17  C   UNL     1       1.445   8.549  20.410  0.00  0.00    +0.000 C 
BRANCH  17  18
ATOM     18  C   UNL     1       0.673   9.535  21.247  0.00  0.00    +0.000 A 
ATOM     19  C   UNL     1       0.003   9.105  22.402  0.00  0.00    +0.000 A 
ATOM     20  C   UNL     1      -0.757  10.004  23.149  0.00  0.00    +0.000 A 
ATOM     21  C   UNL     1      -0.855  11.334  22.744  0.00  0.00    +0.000 A 
ATOM     22  C   UNL     1      -0.194  11.766  21.596  0.00  0.00    +0.000 A 
ATOM     23  C   UNL     1       0.567  10.869  20.847  0.00  0.00    +0.000 A 
ENDBRANCH  17  18
ENDBRANCH  16  17
ENDBRANCH  13  16
ENDBRANCH   3  10
BRANCH   2  24
ATOM     24  C   UNL     1       6.308   4.938  17.361  0.00  0.00    +0.000 A 
ATOM     25  C   UNL     1       6.474   4.311  16.087  0.00  0.00    +0.000 A 
ATOM     26  C   UNL     1       7.341   5.094  15.367  0.00  0.00    +0.000 A 
ATOM     27  O   UNL     1       7.773   6.132  16.124  0.00  0.00    +0.000 OA
ATOM     28  C   UNL     1       7.186   6.005  17.342  0.00  0.00    +0.000 A 
ENDBRANCH   2  24
TORSDOF 5
ENDMDL
