MODEL 1
REMARK VINA RESULT:      -6.8      0.000      0.000
REMARK  Name = 
REMARK  2 active torsions:
REMARK  status: ('A' for Active; 'I' for Inactive)
REMARK    1  A    between atoms: C_2  and  C_3
REMARK    2  A    between atoms: N_15  and  C_16
REMARK                            x       y       z     vdW  Elec       q    Type
REMARK                         _______ _______ _______ _____ _____    ______ ____
ROOT
ATOM      1  O   UNL     1       3.290   4.578  20.723  0.00  0.00    +0.000 OA
ATOM      2  C   UNL     1       3.175   5.107  19.613  0.00  0.00    +0.000 C 
ATOM      3  N   UNL     1       2.156   6.035  19.368  0.00  0.00    +0.000 N 
ATOM      4  C   UNL     1       1.221   6.382  20.448  0.00  0.00    +0.000 C 
ATOM      5  C   UNL     1       1.465   7.814  20.964  0.00  0.00    +0.000 C 
ATOM      6  N   UNL     1       1.491   8.788  19.853  0.00  0.00    +0.000 N 
ATOM      7  C   UNL     1       2.411   8.447  18.759  0.00  0.00    +0.000 C 
ATOM      8  C   UNL     1       2.144   7.014  18.263  0.00  0.00    +0.000 C 
ENDROOT
BRANCH   2   9
ATOM      9  C   UNL     1       4.079   4.807  18.512  0.00  0.00    +0.000 A 
ATOM     10  C   UNL     1       3.787   4.323  17.246  0.00  0.00    +0.000 A 
ATOM     11  C   UNL     1       4.900   4.421  16.366  0.00  0.00    +0.000 A 
ATOM     12  C   UNL     1       6.051   4.757  17.048  0.00  0.00    +0.000 A 
ATOM     13  S   UNL     1       5.764   5.059  18.699  0.00  0.00    +0.000 S 
ATOM     14  C   UNL     1       7.419   4.830  16.444  0.00  0.00    +0.000 C 
ATOM     15  C   UNL     1       7.339   4.859  14.906  0.00  0.00    +0.000 C 
ATOM     16  C   UNL     1       6.281   3.891  14.352  0.00  0.00    +0.000 C 
ATOM     17  C   UNL     1       4.882   4.227  14.882  0.00  0.00    +0.000 C 
ENDBRANCH   2   9
BRANCH   6  18
ATOM     18  C   UNL     1       0.493   9.721  19.638  0.00  0.00    +0.000 A 
ATOM     19  C   UNL     1      -0.015  10.482  20.706  0.00  0.00    +0.000 A 
ATOM     20  C   UNL     1      -1.059  11.397  20.538  0.00  0.00    +0.000 A 
ATOM     21  C   UNL     1      -1.624  11.578  19.282  0.00  0.00    +0.000 A 
ATOM     22  C   UNL     1      -1.134  10.852  18.202  0.00  0.00    +0.000 A 
ATOM     23  C   UNL     1      -0.089   9.935  18.382  0.00  0.00    +0.000 A 
ENDBRANCH   6  18
TORSDOF 2
ENDMDL
MODEL 2
REMARK VINA RESULT:      -6.7      0.101      1.003
REMARK  Name = 
REMARK  2 active torsions:
REMARK  status: ('A' for Active; 'I' for Inactive)
REMARK    1  A    between atoms: C_2  and  C_3
REMARK    2  A    between atoms: N_15  and  C_16
REMARK                            x       y       z     vdW  Elec       q    Type
REMARK                         _______ _______ _______ _____ _____    ______ ____
ROOT
ATOM      1  O   UNL     1       3.243   4.551  20.803  0.00  0.00    +0.000 OA
ATOM      2  C   UNL     1       3.131   5.083  19.694  0.00  0.00    +0.000 C 
ATOM      3  N   UNL     1       2.110   6.008  19.447  0.00  0.00    +0.000 N 
ATOM      4  C   UNL     1       1.170   6.350  20.524  0.00  0.00    +0.000 C 
ATOM      5  C   UNL     1       1.408   7.782  21.045  0.00  0.00    +0.000 C 
ATOM      6  N   UNL     1       1.436   8.758  19.937  0.00  0.00    +0.000 N 
ATOM      7  C   UNL     1       2.362   8.423  18.846  0.00  0.00    +0.000 C 
ATOM      8  C   UNL     1       2.100   6.991  18.344  0.00  0.00    +0.000 C 
ENDROOT
BRANCH   2   9
ATOM      9  C   UNL     1       4.040   4.788  18.596  0.00  0.00    +0.000 A 
ATOM     10  C   UNL     1       3.753   4.323  17.322  0.00  0.00    +0.000 A 
ATOM     11  C   UNL     1       4.873   4.422  16.450  0.00  0.00    +0.000 A 
ATOM     12  C   UNL     1       6.022   4.737  17.145  0.00  0.00    +0.000 A 
ATOM     13  S   UNL     1       5.726   5.021  18.798  0.00  0.00    +0.000 S 
ATOM     14  C   UNL     1       7.395   4.804  16.553  0.00  0.00    +0.000 C 
ATOM     15  C   UNL     1       7.327   4.853  15.015  0.00  0.00    +0.000 C 
ATOM     16  C   UNL     1       6.264   3.904  14.440  0.00  0.00    +0.000 C 
ATOM     17  C   UNL     1       4.864   4.247  14.964  0.00  0.00    +0.000 C 
ENDBRANCH   2   9
BRANCH   6  18
ATOM     18  C   UNL     1       0.436   9.689  19.721  0.00  0.00    +0.000 A 
ATOM     19  C   UNL     1      -0.054   9.923  18.423  0.00  0.00    +0.000 A 
ATOM     20  C   UNL     1      -1.026  10.893  18.158  0.00  0.00    +0.000 A 
ATOM     21  C   UNL     1      -1.540  11.658  19.196  0.00  0.00    +0.000 A 
ATOM     22  C   UNL     1      -1.089  11.441  20.494  0.00  0.00    +0.000 A 
ATOM     23  C   UNL     1      -0.111  10.468  20.748  0.00  0.00    +0.000 A 
ENDBRANCH   6  18
TORSDOF 2
ENDMDL
MODEL 3
REMARK VINA RESULT:      -6.7      1.544      2.294
REMARK  Name = 
REMARK  2 active torsions:
REMARK  status: ('A' for Active; 'I' for Inactive)
REMARK    1  A    between atoms: C_2  and  C_3
REMARK    2  A    between atoms: N_15  and  C_16
REMARK                            x       y       z     vdW  Elec       q    Type
REMARK                         _______ _______ _______ _____ _____    ______ ____
ROOT
ATOM      1  O   UNL     1       4.762   3.220  18.647  0.00  0.00    +0.000 OA
ATOM      2  C   UNL     1       4.518   4.021  17.740  0.00  0.00    +0.000 C 
ATOM      3  N   UNL     1       3.470   4.941  17.863  0.00  0.00    +0.000 N 
ATOM      4  C   UNL     1       2.660   4.952  19.089  0.00  0.00    +0.000 C 
ATOM      5  C   UNL     1       2.949   6.203  19.943  0.00  0.00    +0.000 C 
ATOM      6  N   UNL     1       2.841   7.438  19.139  0.00  0.00    +0.000 N 
ATOM      7  C   UNL     1       3.636   7.436  17.902  0.00  0.00    +0.000 C 
ATOM      8  C   UNL     1       3.327   6.179  17.070  0.00  0.00    +0.000 C 
ENDROOT
BRANCH   2   9
ATOM      9  C   UNL     1       5.295   4.061  16.509  0.00  0.00    +0.000 A 
ATOM     10  C   UNL     1       5.076   3.395  15.313  0.00  0.00    +0.000 A 
ATOM     11  C   UNL     1       5.890   3.901  14.261  0.00  0.00    +0.000 A 
ATOM     12  C   UNL     1       6.852   4.764  14.743  0.00  0.00    +0.000 A 
ATOM     13  S   UNL     1       6.697   5.044  16.416  0.00  0.00    +0.000 S 
ATOM     14  C   UNL     1       7.942   5.382  13.924  0.00  0.00    +0.000 C 
ATOM     15  C   UNL     1       7.641   5.246  12.420  0.00  0.00    +0.000 C 
ATOM     16  C   UNL     1       7.063   3.870  12.055  0.00  0.00    +0.000 C 
ATOM     17  C   UNL     1       5.751   3.597  12.802  0.00  0.00    +0.000 C 
ENDBRANCH   2   9
BRANCH   6  18
ATOM     18  C   UNL     1       1.818   8.356  19.291  0.00  0.00    +0.000 A 
ATOM     19  C   UNL     1       1.191   8.527  20.538  0.00  0.00    +0.000 A 
ATOM     20  C   UNL     1       0.119   9.407  20.718  0.00  0.00    +0.000 A 
ATOM     21  C   UNL     1      -0.354  10.148  19.643  0.00  0.00    +0.000 A 
ATOM     22  C   UNL     1       0.254  10.014  18.400  0.00  0.00    +0.000 A 
ATOM     23  C   UNL     1       1.326   9.126  18.229  0.00  0.00    +0.000 A 
ENDBRANCH   6  18
TORSDOF 2
ENDMDL
MODEL 4
REMARK VINA RESULT:      -6.7      1.497      2.438
REMARK  Name = 
REMARK  2 active torsions:
REMARK  status: ('A' for Active; 'I' for Inactive)
REMARK    1  A    between atoms: C_2  and  C_3
REMARK    2  A    between atoms: N_15  and  C_16
REMARK                            x       y       z     vdW  Elec       q    Type
REMARK                         _______ _______ _______ _____ _____    ______ ____
ROOT
ATOM      1  O   UNL     1       4.591   3.089  18.634  0.00  0.00    +0.000 OA
ATOM      2  C   UNL     1       4.392   3.927  17.749  0.00  0.00    +0.000 C 
ATOM      3  N   UNL     1       3.365   4.869  17.877  0.00  0.00    +0.000 N 
ATOM      4  C   UNL     1       2.522   4.858  19.081  0.00  0.00    +0.000 C 
ATOM      5  C   UNL     1       2.818   6.071  19.985  0.00  0.00    +0.000 C 
ATOM      6  N   UNL     1       2.763   7.335  19.223  0.00  0.00    +0.000 N 
ATOM      7  C   UNL     1       3.591   7.356  18.008  0.00  0.00    +0.000 C 
ATOM      8  C   UNL     1       3.273   6.136  17.124  0.00  0.00    +0.000 C 
ENDROOT
BRANCH   2   9
ATOM      9  C   UNL     1       5.203   3.988  16.541  0.00  0.00    +0.000 A 
ATOM     10  C   UNL     1       4.984   3.395  15.308  0.00  0.00    +0.000 A 
ATOM     11  C   UNL     1       5.850   3.911  14.304  0.00  0.00    +0.000 A 
ATOM     12  C   UNL     1       6.840   4.700  14.853  0.00  0.00    +0.000 A 
ATOM     13  S   UNL     1       6.653   4.903  16.533  0.00  0.00    +0.000 S 
ATOM     14  C   UNL     1       7.980   5.303  14.093  0.00  0.00    +0.000 C 
ATOM     15  C   UNL     1       7.714   5.257  12.577  0.00  0.00    +0.000 C 
ATOM     16  C   UNL     1       7.079   3.931  12.129  0.00  0.00    +0.000 C 
ATOM     17  C   UNL     1       5.736   3.688  12.828  0.00  0.00    +0.000 C 
ENDBRANCH   2   9
BRANCH   6  18
ATOM     18  C   UNL     1       1.759   8.273  19.379  0.00  0.00    +0.000 A 
ATOM     19  C   UNL     1       1.357   9.076  18.297  0.00  0.00    +0.000 A 
ATOM     20  C   UNL     1       0.383  10.071  18.430  0.00  0.00    +0.000 A 
ATOM     21  C   UNL     1      -0.223  10.285  19.661  0.00  0.00    +0.000 A 
ATOM     22  C   UNL     1       0.141   9.497  20.748  0.00  0.00    +0.000 A 
ATOM     23  C   UNL     1       1.121   8.505  20.605  0.00  0.00    +0.000 A 
ENDBRANCH   6  18
TORSDOF 2
ENDMDL
MODEL 5
REMARK VINA RESULT:      -6.6      2.890      4.388
REMARK  Name = 
REMARK  2 active torsions:
REMARK  status: ('A' for Active; 'I' for Inactive)
REMARK    1  A    between atoms: C_2  and  C_3
REMARK    2  A    between atoms: N_15  and  C_16
REMARK                            x       y       z     vdW  Elec       q    Type
REMARK                         _______ _______ _______ _____ _____    ______ ____
ROOT
ATOM      1  O   UNL     1       2.285   8.528  17.253  0.00  0.00    +0.000 OA
ATOM      2  C   UNL     1       2.158   8.325  18.465  0.00  0.00    +0.000 C 
ATOM      3  N   UNL     1       1.692   9.338  19.312  0.00  0.00    +0.000 N 
ATOM      4  C   UNL     1       1.347  10.649  18.747  0.00  0.00    +0.000 C 
ATOM      5  C   UNL     1      -0.177  10.883  18.756  0.00  0.00    +0.000 C 
ATOM      6  N   UNL     1      -0.750  10.634  20.095  0.00  0.00    +0.000 N 
ATOM      7  C   UNL     1      -0.402   9.330  20.678  0.00  0.00    +0.000 C 
ATOM      8  C   UNL     1       1.123   9.126  20.659  0.00  0.00    +0.000 C 
ENDROOT
BRANCH   2   9
ATOM      9  C   UNL     1       2.476   7.042  19.075  0.00  0.00    +0.000 A 
ATOM     10  C   UNL     1       1.831   6.380  20.109  0.00  0.00    +0.000 A 
ATOM     11  C   UNL     1       2.269   5.033  20.237  0.00  0.00    +0.000 A 
ATOM     12  C   UNL     1       3.381   4.791  19.458  0.00  0.00    +0.000 A 
ATOM     13  S   UNL     1       3.814   6.134  18.506  0.00  0.00    +0.000 S 
ATOM     14  C   UNL     1       4.162   3.514  19.446  0.00  0.00    +0.000 C 
ATOM     15  C   UNL     1       3.366   2.377  20.114  0.00  0.00    +0.000 C 
ATOM     16  C   UNL     1       2.626   2.839  21.379  0.00  0.00    +0.000 C 
ATOM     17  C   UNL     1       1.631   3.964  21.068  0.00  0.00    +0.000 C 
ENDBRANCH   2   9
BRANCH   6  18
ATOM     18  C   UNL     1      -1.236  11.639  20.911  0.00  0.00    +0.000 A 
ATOM     19  C   UNL     1      -0.842  11.718  22.258  0.00  0.00    +0.000 A 
ATOM     20  C   UNL     1      -1.352  12.687  23.128  0.00  0.00    +0.000 A 
ATOM     21  C   UNL     1      -2.276  13.614  22.664  0.00  0.00    +0.000 A 
ATOM     22  C   UNL     1      -2.675  13.574  21.332  0.00  0.00    +0.000 A 
ATOM     23  C   UNL     1      -2.159  12.595  20.470  0.00  0.00    +0.000 A 
ENDBRANCH   6  18
TORSDOF 2
ENDMDL
MODEL 6
REMARK VINA RESULT:      -6.6      2.843      4.452
REMARK  Name = 
REMARK  2 active torsions:
REMARK  status: ('A' for Active; 'I' for Inactive)
REMARK    1  A    between atoms: C_2  and  C_3
REMARK    2  A    between atoms: N_15  and  C_16
REMARK                            x       y       z     vdW  Elec       q    Type
REMARK                         _______ _______ _______ _____ _____    ______ ____
ROOT
ATOM      1  O   UNL     1       2.241   8.633  17.200  0.00  0.00    +0.000 OA
ATOM      2  C   UNL     1       2.126   8.408  18.409  0.00  0.00    +0.000 C 
ATOM      3  N   UNL     1       1.665   9.404  19.279  0.00  0.00    +0.000 N 
ATOM      4  C   UNL     1       1.311  10.724  18.741  0.00  0.00    +0.000 C 
ATOM      5  C   UNL     1      -0.214  10.952  18.769  0.00  0.00    +0.000 C 
ATOM      6  N   UNL     1      -0.773  10.678  20.108  0.00  0.00    +0.000 N 
ATOM      7  C   UNL     1      -0.416   9.365  20.665  0.00  0.00    +0.000 C 
ATOM      8  C   UNL     1       1.110   9.165  20.627  0.00  0.00    +0.000 C 
ENDROOT
BRANCH   2   9
ATOM      9  C   UNL     1       2.454   7.115  18.993  0.00  0.00    +0.000 A 
ATOM     10  C   UNL     1       1.829   6.439  20.029  0.00  0.00    +0.000 A 
ATOM     11  C   UNL     1       2.266   5.088  20.127  0.00  0.00    +0.000 A 
ATOM     12  C   UNL     1       3.362   4.857  19.323  0.00  0.00    +0.000 A 
ATOM     13  S   UNL     1       3.778   6.214  18.383  0.00  0.00    +0.000 S 
ATOM     14  C   UNL     1       4.140   3.579  19.275  0.00  0.00    +0.000 C 
ATOM     15  C   UNL     1       3.355   2.433  19.941  0.00  0.00    +0.000 C 
ATOM     16  C   UNL     1       2.642   2.877  21.228  0.00  0.00    +0.000 C 
ATOM     17  C   UNL     1       1.643   4.008  20.955  0.00  0.00    +0.000 C 
ENDBRANCH   2   9
BRANCH   6  18
ATOM     18  C   UNL     1      -1.255  11.666  20.947  0.00  0.00    +0.000 A 
ATOM     19  C   UNL     1      -2.214  12.587  20.489  0.00  0.00    +0.000 A 
ATOM     20  C   UNL     1      -2.685  13.631  21.291  0.00  0.00    +0.000 A 
ATOM     21  C   UNL     1      -2.206  13.779  22.586  0.00  0.00    +0.000 A 
ATOM     22  C   UNL     1      -1.269  12.875  23.075  0.00  0.00    +0.000 A 
ATOM     23  C   UNL     1      -0.801  11.833  22.261  0.00  0.00    +0.000 A 
ENDBRANCH   6  18
TORSDOF 2
ENDMDL
MODEL 7
REMARK VINA RESULT:      -6.6      1.173      1.693
REMARK  Name = 
REMARK  2 active torsions:
REMARK  status: ('A' for Active; 'I' for Inactive)
REMARK    1  A    between atoms: C_2  and  C_3
REMARK    2  A    between atoms: N_15  and  C_16
REMARK                            x       y       z     vdW  Elec       q    Type
REMARK                         _______ _______ _______ _____ _____    ______ ____
ROOT
ATOM      1  O   UNL     1       3.453   3.044  19.546  0.00  0.00    +0.000 OA
ATOM      2  C   UNL     1       3.435   3.944  18.700  0.00  0.00    +0.000 C 
ATOM      3  N   UNL     1       2.509   4.990  18.791  0.00  0.00    +0.000 N 
ATOM      4  C   UNL     1       1.555   5.013  19.909  0.00  0.00    +0.000 C 
ATOM      5  C   UNL     1       1.890   6.135  20.911  0.00  0.00    +0.000 C 
ATOM      6  N   UNL     1       2.049   7.435  20.228  0.00  0.00    +0.000 N 
ATOM      7  C   UNL     1       2.991   7.424  19.099  0.00  0.00    +0.000 C 
ATOM      8  C   UNL     1       2.631   6.297  18.114  0.00  0.00    +0.000 C 
ENDROOT
BRANCH   2   9
ATOM      9  C   UNL     1       4.364   3.976  17.579  0.00  0.00    +0.000 A 
ATOM     10  C   UNL     1       4.174   3.554  16.272  0.00  0.00    +0.000 A 
ATOM     11  C   UNL     1       5.213   4.001  15.409  0.00  0.00    +0.000 A 
ATOM     12  C   UNL     1       6.261   4.541  16.124  0.00  0.00    +0.000 A 
ATOM     13  S   UNL     1       5.941   4.610  17.795  0.00  0.00    +0.000 S 
ATOM     14  C   UNL     1       7.559   4.999  15.535  0.00  0.00    +0.000 C 
ATOM     15  C   UNL     1       7.445   5.149  14.007  0.00  0.00    +0.000 C 
ATOM     16  C   UNL     1       6.642   4.010  13.360  0.00  0.00    +0.000 C 
ATOM     17  C   UNL     1       5.214   3.946  13.913  0.00  0.00    +0.000 C 
ENDBRANCH   2   9
BRANCH   6  18
ATOM     18  C   UNL     1       1.143   8.472  20.350  0.00  0.00    +0.000 A 
ATOM     19  C   UNL     1       1.037   9.450  19.345  0.00  0.00    +0.000 A 
ATOM     20  C   UNL     1       0.171  10.542  19.456  0.00  0.00    +0.000 A 
ATOM     21  C   UNL     1      -0.624  10.681  20.587  0.00  0.00    +0.000 A 
ATOM     22  C   UNL     1      -0.555   9.723  21.592  0.00  0.00    +0.000 A 
ATOM     23  C   UNL     1       0.319   8.634  21.472  0.00  0.00    +0.000 A 
ENDBRANCH   6  18
TORSDOF 2
ENDMDL
MODEL 8
REMARK VINA RESULT:      -6.5      1.122      1.371
REMARK  Name = 
REMARK  2 active torsions:
REMARK  status: ('A' for Active; 'I' for Inactive)
REMARK    1  A    between atoms: C_2  and  C_3
REMARK    2  A    between atoms: N_15  and  C_16
REMARK                            x       y       z     vdW  Elec       q    Type
REMARK                         _______ _______ _______ _____ _____    ______ ____
ROOT
ATOM      1  O   UNL     1       3.131   3.041  19.679  0.00  0.00    +0.000 OA
ATOM      2  C   UNL     1       3.184   3.960  18.856  0.00  0.00    +0.000 C 
ATOM      3  N   UNL     1       2.313   5.053  18.950  0.00  0.00    +0.000 N 
ATOM      4  C   UNL     1       1.335   5.102  20.045  0.00  0.00    +0.000 C 
ATOM      5  C   UNL     1       1.706   6.181  21.082  0.00  0.00    +0.000 C 
ATOM      6  N   UNL     1       1.952   7.486  20.435  0.00  0.00    +0.000 N 
ATOM      7  C   UNL     1       2.920   7.449  19.329  0.00  0.00    +0.000 C 
ATOM      8  C   UNL     1       2.524   6.366  18.308  0.00  0.00    +0.000 C 
ENDROOT
BRANCH   2   9
ATOM      9  C   UNL     1       4.140   3.966  17.758  0.00  0.00    +0.000 A 
ATOM     10  C   UNL     1       3.953   3.610  16.431  0.00  0.00    +0.000 A 
ATOM     11  C   UNL     1       5.043   4.012  15.610  0.00  0.00    +0.000 A 
ATOM     12  C   UNL     1       6.109   4.445  16.370  0.00  0.00    +0.000 A 
ATOM     13  S   UNL     1       5.753   4.475  18.034  0.00  0.00    +0.000 S 
ATOM     14  C   UNL     1       7.451   4.829  15.829  0.00  0.00    +0.000 C 
ATOM     15  C   UNL     1       7.388   5.046  14.305  0.00  0.00    +0.000 C 
ATOM     16  C   UNL     1       6.521   3.994  13.595  0.00  0.00    +0.000 C 
ATOM     17  C   UNL     1       5.078   4.014  14.114  0.00  0.00    +0.000 C 
ENDBRANCH   2   9
BRANCH   6  18
ATOM     18  C   UNL     1       1.101   8.568  20.561  0.00  0.00    +0.000 A 
ATOM     19  C   UNL     1       0.402   8.792  21.760  0.00  0.00    +0.000 A 
ATOM     20  C   UNL     1      -0.507   9.845  21.907  0.00  0.00    +0.000 A 
ATOM     21  C   UNL     1      -0.737  10.712  20.847  0.00  0.00    +0.000 A 
ATOM     22  C   UNL     1      -0.050  10.529  19.653  0.00  0.00    +0.000 A 
ATOM     23  C   UNL     1       0.857   9.468  19.515  0.00  0.00    +0.000 A 
ENDBRANCH   6  18
TORSDOF 2
ENDMDL
MODEL 9
REMARK VINA RESULT:      -6.5      3.262      5.319
REMARK  Name = 
REMARK  2 active torsions:
REMARK  status: ('A' for Active; 'I' for Inactive)
REMARK    1  A    between atoms: C_2  and  C_3
REMARK    2  A    between atoms: N_15  and  C_16
REMARK                            x       y       z     vdW  Elec       q    Type
REMARK                         _______ _______ _______ _____ _____    ______ ____
ROOT
ATOM      1  O   UNL     1       1.804  11.722  19.102  0.00  0.00    +0.000 OA
ATOM      2  C   UNL     1       1.083  10.723  19.179  0.00  0.00    +0.000 C 
ATOM      3  N   UNL     1      -0.280  10.849  19.476  0.00  0.00    +0.000 N 
ATOM      4  C   UNL     1      -0.851  12.185  19.690  0.00  0.00    +0.000 C 
ATOM      5  C   UNL     1      -1.767  12.600  18.521  0.00  0.00    +0.000 C 
ATOM      6  N   UNL     1      -2.770  11.556  18.230  0.00  0.00    +0.000 N 
ATOM      7  C   UNL     1      -2.215  10.210  18.026  0.00  0.00    +0.000 C 
ATOM      8  C   UNL     1      -1.307   9.822  19.208  0.00  0.00    +0.000 C 
ENDROOT
BRANCH   2   9
ATOM      9  C   UNL     1       1.595   9.376  18.966  0.00  0.00    +0.000 A 
ATOM     10  C   UNL     1       2.186   8.832  17.836  0.00  0.00    +0.000 A 
ATOM     11  C   UNL     1       2.801   7.578  18.105  0.00  0.00    +0.000 A 
ATOM     12  C   UNL     1       2.459   7.110  19.357  0.00  0.00    +0.000 A 
ATOM     13  S   UNL     1       1.509   8.222  20.230  0.00  0.00    +0.000 S 
ATOM     14  C   UNL     1       2.839   5.772  19.908  0.00  0.00    +0.000 C 
ATOM     15  C   UNL     1       3.965   5.134  19.074  0.00  0.00    +0.000 C 
ATOM     16  C   UNL     1       3.770   5.340  17.563  0.00  0.00    +0.000 C 
ATOM     17  C   UNL     1       3.729   6.829  17.201  0.00  0.00    +0.000 C 
ENDBRANCH   2   9
BRANCH   6  18
ATOM     18  C   UNL     1      -4.119  11.703  18.498  0.00  0.00    +0.000 A 
ATOM     19  C   UNL     1      -4.547  12.395  19.645  0.00  0.00    +0.000 A 
ATOM     20  C   UNL     1      -5.900  12.519  19.978  0.00  0.00    +0.000 A 
ATOM     21  C   UNL     1      -6.868  11.951  19.159  0.00  0.00    +0.000 A 
ATOM     22  C   UNL     1      -6.478  11.274  18.009  0.00  0.00    +0.000 A 
ATOM     23  C   UNL     1      -5.119  11.153  17.686  0.00  0.00    +0.000 A 
ENDBRANCH   6  18
TORSDOF 2
ENDMDL
