MODEL 1
REMARK VINA RESULT:      -7.1      0.000      0.000
REMARK  Name = 
REMARK  4 active torsions:
REMARK  status: ('A' for Active; 'I' for Inactive)
REMARK    1  A    between atoms: C_1  and  C_2
REMARK    2  A    between atoms: C_2  and  C_3
REMARK    3  A    between atoms: C_2  and  N_4
REMARK    4  A    between atoms: C_8  and  C_10
REMARK                            x       y       z     vdW  Elec       q    Type
REMARK                         _______ _______ _______ _____ _____    ______ ____
ROOT
ATOM      1  N   UNL     1       3.553   5.610  18.667  0.00  0.00    +0.000 NA
ATOM      2  C   UNL     1       4.857   5.412  19.324  0.00  0.00    +0.000 C 
ATOM      3  C   UNL     1       5.905   4.622  18.511  0.00  0.00    +0.000 C 
ATOM      4  N   UNL     1       5.936   4.938  17.077  0.00  0.00    +0.000 N 
ATOM      5  C   UNL     1       7.070   4.529  16.369  0.00  0.00    +0.000 C 
ATOM      6  O   UNL     1       8.098   4.147  16.926  0.00  0.00    +0.000 OA
ATOM      7  C   UNL     1       4.668   5.345  16.457  0.00  0.00    +0.000 C 
ATOM      8  C   UNL     1       3.791   6.212  17.354  0.00  0.00    +0.000 C 
ENDROOT
BRANCH   5   9
ATOM      9  C   UNL     1       7.080   4.582  14.882  0.00  0.00    +0.000 A 
ATOM     10  C   UNL     1       7.872   5.487  14.170  0.00  0.00    +0.000 A 
ATOM     11  C   UNL     1       7.920   5.444  12.779  0.00  0.00    +0.000 A 
ATOM     12  C   UNL     1       7.100   4.554  12.088  0.00  0.00    +0.000 A 
ATOM     13  C   UNL     1       6.239   3.712  12.795  0.00  0.00    +0.000 A 
ATOM     14 CL   UNL     1       5.182   2.666  11.933  0.00  0.00    +0.000 Cl
ATOM     15  C   UNL     1       6.230   3.713  14.189  0.00  0.00    +0.000 A 
ENDBRANCH   5   9
BRANCH   1  17
ATOM     16  C   UNL     1       1.975   4.356  20.161  0.00  0.00    +0.000 C 
ATOM     17  C   UNL     1       2.598   4.486  18.762  0.00  0.00    +0.000 C 
ATOM     18  C   UNL     1       1.493   4.311  17.715  0.00  0.00    +0.000 C 
ENDBRANCH   1  17
TORSDOF 2
ENDMDL
MODEL 2
REMARK VINA RESULT:      -7.0      3.036      6.501
REMARK  Name = 
REMARK  4 active torsions:
REMARK  status: ('A' for Active; 'I' for Inactive)
REMARK    1  A    between atoms: C_1  and  C_2
REMARK    2  A    between atoms: C_2  and  C_3
REMARK    3  A    between atoms: C_2  and  N_4
REMARK    4  A    between atoms: C_8  and  C_10
REMARK                            x       y       z     vdW  Elec       q    Type
REMARK                         _______ _______ _______ _____ _____    ______ ____
ROOT
ATOM      1  N   UNL     1       7.138   5.079  15.665  0.00  0.00    +0.000 NA
ATOM      2  C   UNL     1       6.952   6.409  16.271  0.00  0.00    +0.000 C 
ATOM      3  C   UNL     1       5.515   6.744  16.726  0.00  0.00    +0.000 C 
ATOM      4  N   UNL     1       4.795   5.631  17.358  0.00  0.00    +0.000 N 
ATOM      5  C   UNL     1       3.651   5.960  18.091  0.00  0.00    +0.000 C 
ATOM      6  O   UNL     1       3.378   7.116  18.410  0.00  0.00    +0.000 OA
ATOM      7  C   UNL     1       5.133   4.275  16.904  0.00  0.00    +0.000 C 
ATOM      8  C   UNL     1       6.614   4.077  16.595  0.00  0.00    +0.000 C 
ENDROOT
BRANCH   5   9
ATOM      9  C   UNL     1       2.728   4.888  18.553  0.00  0.00    +0.000 A 
ATOM     10  C   UNL     1       1.739   4.344  17.728  0.00  0.00    +0.000 A 
ATOM     11  C   UNL     1       0.956   3.281  18.170  0.00  0.00    +0.000 A 
ATOM     12  C   UNL     1       1.095   2.819  19.477  0.00  0.00    +0.000 A 
ATOM     13  C   UNL     1       2.017   3.423  20.332  0.00  0.00    +0.000 A 
ATOM     14 CL   UNL     1       2.134   2.892  21.964  0.00  0.00    +0.000 Cl
ATOM     15  C   UNL     1       2.843   4.450  19.877  0.00  0.00    +0.000 A 
ENDBRANCH   5   9
BRANCH   1  17
ATOM     16  C   UNL     1       7.940   5.382  13.308  0.00  0.00    +0.000 C 
ATOM     17  C   UNL     1       6.790   4.958  14.234  0.00  0.00    +0.000 C 
ATOM     18  C   UNL     1       6.170   3.669  13.688  0.00  0.00    +0.000 C 
ENDBRANCH   1  17
TORSDOF 2
ENDMDL
MODEL 3
REMARK VINA RESULT:      -6.6      3.597      4.669
REMARK  Name = 
REMARK  4 active torsions:
REMARK  status: ('A' for Active; 'I' for Inactive)
REMARK    1  A    between atoms: C_1  and  C_2
REMARK    2  A    between atoms: C_2  and  C_3
REMARK    3  A    between atoms: C_2  and  N_4
REMARK    4  A    between atoms: C_8  and  C_10
REMARK                            x       y       z     vdW  Elec       q    Type
REMARK                         _______ _______ _______ _____ _____    ______ ____
ROOT
ATOM      1  N   UNL     1       2.885   2.109  19.277  0.00  0.00    +0.000 NA
ATOM      2  C   UNL     1       2.829   2.159  17.805  0.00  0.00    +0.000 C 
ATOM      3  C   UNL     1       3.356   3.457  17.157  0.00  0.00    +0.000 C 
ATOM      4  N   UNL     1       4.563   4.011  17.784  0.00  0.00    +0.000 N 
ATOM      5  C   UNL     1       5.275   4.961  17.045  0.00  0.00    +0.000 C 
ATOM      6  O   UNL     1       5.069   5.160  15.849  0.00  0.00    +0.000 OA
ATOM      7  C   UNL     1       4.731   3.779  19.225  0.00  0.00    +0.000 C 
ATOM      8  C   UNL     1       4.258   2.406  19.690  0.00  0.00    +0.000 C 
ENDROOT
BRANCH   5   9
ATOM      9  C   UNL     1       6.356   5.751  17.692  0.00  0.00    +0.000 A 
ATOM     10  C   UNL     1       7.173   5.223  18.696  0.00  0.00    +0.000 A 
ATOM     11  C   UNL     1       8.232   5.966  19.211  0.00  0.00    +0.000 A 
ATOM     12  C   UNL     1       8.420   7.281  18.791  0.00  0.00    +0.000 A 
ATOM     13  C   UNL     1       7.548   7.842  17.856  0.00  0.00    +0.000 A 
ATOM     14 CL   UNL     1       7.746   9.486  17.394  0.00  0.00    +0.000 Cl
ATOM     15  C   UNL     1       6.522   7.083  17.296  0.00  0.00    +0.000 A 
ENDBRANCH   5   9
BRANCH   1  17
ATOM     16  C   UNL     1       0.425   2.598  19.287  0.00  0.00    +0.000 C 
ATOM     17  C   UNL     1       1.777   2.771  19.996  0.00  0.00    +0.000 C 
ATOM     18  C   UNL     1       1.576   2.545  21.497  0.00  0.00    +0.000 C 
ENDBRANCH   1  17
TORSDOF 2
ENDMDL
MODEL 4
REMARK VINA RESULT:      -6.5      3.294      6.264
REMARK  Name = 
REMARK  4 active torsions:
REMARK  status: ('A' for Active; 'I' for Inactive)
REMARK    1  A    between atoms: C_1  and  C_2
REMARK    2  A    between atoms: C_2  and  C_3
REMARK    3  A    between atoms: C_2  and  N_4
REMARK    4  A    between atoms: C_8  and  C_10
REMARK                            x       y       z     vdW  Elec       q    Type
REMARK                         _______ _______ _______ _____ _____    ______ ____
ROOT
ATOM      1  N   UNL     1       6.666   6.609  16.353  0.00  0.00    +0.000 NA
ATOM      2  C   UNL     1       6.843   5.323  15.656  0.00  0.00    +0.000 C 
ATOM      3  C   UNL     1       6.257   4.086  16.370  0.00  0.00    +0.000 C 
ATOM      4  N   UNL     1       4.955   4.308  17.014  0.00  0.00    +0.000 N 
ATOM      5  C   UNL     1       4.226   3.167  17.363  0.00  0.00    +0.000 C 
ATOM      6  O   UNL     1       4.514   2.044  16.951  0.00  0.00    +0.000 OA
ATOM      7  C   UNL     1       4.687   5.658  17.527  0.00  0.00    +0.000 C 
ATOM      8  C   UNL     1       5.242   6.775  16.649  0.00  0.00    +0.000 C 
ENDROOT
BRANCH   5   9
ATOM      9  C   UNL     1       3.026   3.287  18.234  0.00  0.00    +0.000 A 
ATOM     10  C   UNL     1       1.759   3.593  17.727  0.00  0.00    +0.000 A 
ATOM     11  C   UNL     1       0.646   3.608  18.564  0.00  0.00    +0.000 A 
ATOM     12  C   UNL     1       0.811   3.409  19.933  0.00  0.00    +0.000 A 
ATOM     13  C   UNL     1       2.088   3.195  20.454  0.00  0.00    +0.000 A 
ATOM     14 CL   UNL     1       2.290   3.019  22.152  0.00  0.00    +0.000 Cl
ATOM     15  C   UNL     1       3.197   3.124  19.613  0.00  0.00    +0.000 A 
ENDBRANCH   5   9
BRANCH   1  17
ATOM     16  C   UNL     1       7.749   8.419  17.710  0.00  0.00    +0.000 C 
ATOM     17  C   UNL     1       7.645   6.915  17.418  0.00  0.00    +0.000 C 
ATOM     18  C   UNL     1       7.612   6.157  18.748  0.00  0.00    +0.000 C 
ENDBRANCH   1  17
TORSDOF 2
ENDMDL
MODEL 5
REMARK VINA RESULT:      -6.5      1.230      1.676
REMARK  Name = 
REMARK  4 active torsions:
REMARK  status: ('A' for Active; 'I' for Inactive)
REMARK    1  A    between atoms: C_1  and  C_2
REMARK    2  A    between atoms: C_2  and  C_3
REMARK    3  A    between atoms: C_2  and  N_4
REMARK    4  A    between atoms: C_8  and  C_10
REMARK                            x       y       z     vdW  Elec       q    Type
REMARK                         _______ _______ _______ _____ _____    ______ ____
ROOT
ATOM      1  N   UNL     1       3.421   5.419  18.926  0.00  0.00    +0.000 NA
ATOM      2  C   UNL     1       4.770   5.405  19.518  0.00  0.00    +0.000 C 
ATOM      3  C   UNL     1       5.848   4.646  18.715  0.00  0.00    +0.000 C 
ATOM      4  N   UNL     1       5.774   4.831  17.259  0.00  0.00    +0.000 N 
ATOM      5  C   UNL     1       6.905   4.467  16.522  0.00  0.00    +0.000 C 
ATOM      6  O   UNL     1       7.993   4.236  17.048  0.00  0.00    +0.000 OA
ATOM      7  C   UNL     1       4.441   5.059  16.683  0.00  0.00    +0.000 C 
ATOM      8  C   UNL     1       3.530   5.918  17.554  0.00  0.00    +0.000 C 
ENDROOT
BRANCH   5   9
ATOM      9  C   UNL     1       6.833   4.385  15.039  0.00  0.00    +0.000 A 
ATOM     10  C   UNL     1       6.047   3.438  14.377  0.00  0.00    +0.000 A 
ATOM     11  C   UNL     1       5.938   3.453  12.989  0.00  0.00    +0.000 A 
ATOM     12  C   UNL     1       6.693   4.360  12.248  0.00  0.00    +0.000 A 
ATOM     13  C   UNL     1       7.550   5.246  12.903  0.00  0.00    +0.000 A 
ATOM     14 CL   UNL     1       8.529   6.315  11.978  0.00  0.00    +0.000 Cl
ATOM     15  C   UNL     1       7.619   5.272  14.295  0.00  0.00    +0.000 A 
ENDBRANCH   5   9
BRANCH   1  17
ATOM     16  C   UNL     1       2.059   4.160  20.615  0.00  0.00    +0.000 C 
ATOM     17  C   UNL     1       2.587   4.224  19.174  0.00  0.00    +0.000 C 
ATOM     18  C   UNL     1       1.448   3.855  18.218  0.00  0.00    +0.000 C 
ENDBRANCH   1  17
TORSDOF 2
ENDMDL
MODEL 6
REMARK VINA RESULT:      -6.4      3.303      6.433
REMARK  Name = 
REMARK  4 active torsions:
REMARK  status: ('A' for Active; 'I' for Inactive)
REMARK    1  A    between atoms: C_1  and  C_2
REMARK    2  A    between atoms: C_2  and  C_3
REMARK    3  A    between atoms: C_2  and  N_4
REMARK    4  A    between atoms: C_8  and  C_10
REMARK                            x       y       z     vdW  Elec       q    Type
REMARK                         _______ _______ _______ _____ _____    ______ ____
ROOT
ATOM      1  N   UNL     1       6.568   6.604  16.371  0.00  0.00    +0.000 NA
ATOM      2  C   UNL     1       6.628   5.271  15.747  0.00  0.00    +0.000 C 
ATOM      3  C   UNL     1       6.004   4.119  16.564  0.00  0.00    +0.000 C 
ATOM      4  N   UNL     1       4.754   4.462  17.255  0.00  0.00    +0.000 N 
ATOM      5  C   UNL     1       3.974   3.394  17.709  0.00  0.00    +0.000 C 
ATOM      6  O   UNL     1       4.169   2.232  17.353  0.00  0.00    +0.000 OA
ATOM      7  C   UNL     1       4.597   5.855  17.695  0.00  0.00    +0.000 C 
ATOM      8  C   UNL     1       5.174   6.880  16.724  0.00  0.00    +0.000 C 
ENDROOT
BRANCH   5   9
ATOM      9  C   UNL     1       2.830   3.643  18.627  0.00  0.00    +0.000 A 
ATOM     10  C   UNL     1       1.828   2.695  18.851  0.00  0.00    +0.000 A 
ATOM     11  C   UNL     1       0.825   2.933  19.786  0.00  0.00    +0.000 A 
ATOM     12  C   UNL     1       0.765   4.164  20.435  0.00  0.00    +0.000 A 
ATOM     13  C   UNL     1       1.711   5.148  20.144  0.00  0.00    +0.000 A 
ATOM     14 CL   UNL     1       1.590   6.689  20.898  0.00  0.00    +0.000 Cl
ATOM     15  C   UNL     1       2.750   4.893  19.250  0.00  0.00    +0.000 A 
ENDBRANCH   5   9
BRANCH   1  17
ATOM     16  C   UNL     1       7.731   8.409  17.667  0.00  0.00    +0.000 C 
ATOM     17  C   UNL     1       7.618   6.907  17.366  0.00  0.00    +0.000 C 
ATOM     18  C   UNL     1       7.686   6.135  18.688  0.00  0.00    +0.000 C 
ENDBRANCH   1  17
TORSDOF 2
ENDMDL
MODEL 7
REMARK VINA RESULT:      -6.4      3.152      6.509
REMARK  Name = 
REMARK  4 active torsions:
REMARK  status: ('A' for Active; 'I' for Inactive)
REMARK    1  A    between atoms: C_1  and  C_2
REMARK    2  A    between atoms: C_2  and  C_3
REMARK    3  A    between atoms: C_2  and  N_4
REMARK    4  A    between atoms: C_8  and  C_10
REMARK                            x       y       z     vdW  Elec       q    Type
REMARK                         _______ _______ _______ _____ _____    ______ ____
ROOT
ATOM      1  N   UNL     1       7.306   5.242  16.468  0.00  0.00    +0.000 NA
ATOM      2  C   UNL     1       6.785   6.611  16.627  0.00  0.00    +0.000 C 
ATOM      3  C   UNL     1       5.250   6.737  16.737  0.00  0.00    +0.000 C 
ATOM      4  N   UNL     1       4.605   5.692  17.544  0.00  0.00    +0.000 N 
ATOM      5  C   UNL     1       3.295   5.944  17.964  0.00  0.00    +0.000 C 
ATOM      6  O   UNL     1       2.777   7.058  17.889  0.00  0.00    +0.000 OA
ATOM      7  C   UNL     1       5.245   4.370  17.558  0.00  0.00    +0.000 C 
ATOM      8  C   UNL     1       6.769   4.421  17.553  0.00  0.00    +0.000 C 
ENDROOT
BRANCH   5   9
ATOM      9  C   UNL     1       2.482   4.853  18.566  0.00  0.00    +0.000 A 
ATOM     10  C   UNL     1       1.527   4.140  17.836  0.00  0.00    +0.000 A 
ATOM     11  C   UNL     1       0.852   3.067  18.412  0.00  0.00    +0.000 A 
ATOM     12  C   UNL     1       1.062   2.762  19.755  0.00  0.00    +0.000 A 
ATOM     13  C   UNL     1       1.947   3.532  20.511  0.00  0.00    +0.000 A 
ATOM     14 CL   UNL     1       2.149   3.191  22.185  0.00  0.00    +0.000 Cl
ATOM     15  C   UNL     1       2.667   4.571  19.924  0.00  0.00    +0.000 A 
ENDBRANCH   5   9
BRANCH   1  17
ATOM     16  C   UNL     1       6.005   3.905  14.791  0.00  0.00    +0.000 C 
ATOM     17  C   UNL     1       7.288   4.693  15.096  0.00  0.00    +0.000 C 
ATOM     18  C   UNL     1       7.613   5.585  13.894  0.00  0.00    +0.000 C 
ENDBRANCH   1  17
TORSDOF 2
ENDMDL
MODEL 8
REMARK VINA RESULT:      -6.4      3.598      4.538
REMARK  Name = 
REMARK  4 active torsions:
REMARK  status: ('A' for Active; 'I' for Inactive)
REMARK    1  A    between atoms: C_1  and  C_2
REMARK    2  A    between atoms: C_2  and  C_3
REMARK    3  A    between atoms: C_2  and  N_4
REMARK    4  A    between atoms: C_8  and  C_10
REMARK                            x       y       z     vdW  Elec       q    Type
REMARK                         _______ _______ _______ _____ _____    ______ ____
ROOT
ATOM      1  N   UNL     1       2.632   2.087  19.509  0.00  0.00    +0.000 NA
ATOM      2  C   UNL     1       2.515   2.016  18.042  0.00  0.00    +0.000 C 
ATOM      3  C   UNL     1       3.023   3.250  17.267  0.00  0.00    +0.000 C 
ATOM      4  N   UNL     1       4.260   3.841  17.797  0.00  0.00    +0.000 N 
ATOM      5  C   UNL     1       4.947   4.719  16.953  0.00  0.00    +0.000 C 
ATOM      6  O   UNL     1       4.693   4.821  15.754  0.00  0.00    +0.000 OA
ATOM      7  C   UNL     1       4.486   3.727  19.244  0.00  0.00    +0.000 C 
ATOM      8  C   UNL     1       4.022   2.402  19.840  0.00  0.00    +0.000 C 
ENDROOT
BRANCH   5   9
ATOM      9  C   UNL     1       6.060   5.549  17.488  0.00  0.00    +0.000 A 
ATOM     10  C   UNL     1       6.428   6.769  16.914  0.00  0.00    +0.000 A 
ATOM     11  C   UNL     1       7.416   7.557  17.498  0.00  0.00    +0.000 A 
ATOM     12  C   UNL     1       8.108   7.082  18.610  0.00  0.00    +0.000 A 
ATOM     13  C   UNL     1       7.806   5.822  19.130  0.00  0.00    +0.000 A 
ATOM     14 CL   UNL     1       8.711   5.215  20.460  0.00  0.00    +0.000 Cl
ATOM     15  C   UNL     1       6.779   5.055  18.582  0.00  0.00    +0.000 A 
ENDBRANCH   5   9
BRANCH   1  17
ATOM     16  C   UNL     1       1.746   2.815  21.739  0.00  0.00    +0.000 C 
ATOM     17  C   UNL     1       1.558   2.818  20.215  0.00  0.00    +0.000 C 
ATOM     18  C   UNL     1       1.152   4.227  19.772  0.00  0.00    +0.000 C 
ENDBRANCH   1  17
TORSDOF 2
ENDMDL
MODEL 9
REMARK VINA RESULT:      -6.3      2.784      6.537
REMARK  Name = 
REMARK  4 active torsions:
REMARK  status: ('A' for Active; 'I' for Inactive)
REMARK    1  A    between atoms: C_1  and  C_2
REMARK    2  A    between atoms: C_2  and  C_3
REMARK    3  A    between atoms: C_2  and  N_4
REMARK    4  A    between atoms: C_8  and  C_10
REMARK                            x       y       z     vdW  Elec       q    Type
REMARK                         _______ _______ _______ _____ _____    ______ ____
ROOT
ATOM      1  N   UNL     1       6.747   5.525  16.414  0.00  0.00    +0.000 NA
ATOM      2  C   UNL     1       6.269   6.876  16.760  0.00  0.00    +0.000 C 
ATOM      3  C   UNL     1       4.805   6.968  17.239  0.00  0.00    +0.000 C 
ATOM      4  N   UNL     1       4.378   5.876  18.124  0.00  0.00    +0.000 N 
ATOM      5  C   UNL     1       3.205   6.084  18.856  0.00  0.00    +0.000 C 
ATOM      6  O   UNL     1       2.677   7.190  18.962  0.00  0.00    +0.000 OA
ATOM      7  C   UNL     1       5.012   4.566  17.920  0.00  0.00    +0.000 C 
ATOM      8  C   UNL     1       6.491   4.645  17.555  0.00  0.00    +0.000 C 
ENDROOT
BRANCH   5   9
ATOM      9  C   UNL     1       2.567   4.952  19.581  0.00  0.00    +0.000 A 
ATOM     10  C   UNL     1       2.715   4.765  20.958  0.00  0.00    +0.000 A 
ATOM     11  C   UNL     1       2.029   3.744  21.611  0.00  0.00    +0.000 A 
ATOM     12  C   UNL     1       1.263   2.845  20.872  0.00  0.00    +0.000 A 
ATOM     13  C   UNL     1       1.189   2.975  19.484  0.00  0.00    +0.000 A 
ATOM     14 CL   UNL     1       0.298   1.821  18.573  0.00  0.00    +0.000 Cl
ATOM     15  C   UNL     1       1.829   4.028  18.833  0.00  0.00    +0.000 A 
ENDBRANCH   5   9
BRANCH   1  17
ATOM     16  C   UNL     1       7.522   5.298  14.040  0.00  0.00    +0.000 C 
ATOM     17  C   UNL     1       6.405   5.039  15.061  0.00  0.00    +0.000 C 
ATOM     18  C   UNL     1       5.871   3.618  14.855  0.00  0.00    +0.000 C 
ENDBRANCH   1  17
TORSDOF 2
ENDMDL
