MODEL 1
REMARK VINA RESULT:      -8.9      0.000      0.000
REMARK  Name = 
REMARK  7 active torsions:
REMARK  status: ('A' for Active; 'I' for Inactive)
REMARK    1  A    between atoms: N_2  and  C_4
REMARK    2  A    between atoms: C_7  and  C_8
REMARK    3  A    between atoms: C_9  and  C_10
REMARK    4  A    between atoms: N_21  and  C_22
REMARK    5  A    between atoms: C_22  and  C_23
REMARK    6  A    between atoms: C_23  and  C_24
REMARK    7  A    between atoms: C_24  and  C_25
REMARK                            x       y       z     vdW  Elec       q    Type
REMARK                         _______ _______ _______ _____ _____    ______ ____
ROOT
ATOM      1  C   UNL     1       6.147   6.329  16.537  0.00  0.00    +0.000 A 
ATOM      2  N   UNL     1       7.013   5.689  15.710  0.00  0.00    +0.000 NA
ATOM      3  C   UNL     1       6.848   4.376  15.481  0.00  0.00    +0.000 A 
ATOM      4  C   UNL     1       5.961   3.586  16.169  0.00  0.00    +0.000 A 
ATOM      5  C   UNL     1       5.002   4.264  16.939  0.00  0.00    +0.000 A 
ATOM      6  C   UNL     1       3.963   3.845  17.793  0.00  0.00    +0.000 A 
ATOM      7  C   UNL     1       3.688   2.594  18.376  0.00  0.00    +0.000 A 
ATOM      8  C   UNL     1       2.375   2.201  18.556  0.00  0.00    +0.000 A 
ATOM      9  C   UNL     1       1.371   3.061  18.087  0.00  0.00    +0.000 A 
ATOM     10  C   UNL     1       1.646   4.405  17.695  0.00  0.00    +0.000 A 
ATOM     11  C   UNL     1       2.999   4.856  17.712  0.00  0.00    +0.000 A 
ATOM     12  N   UNL     1       3.760   6.020  17.560  0.00  0.00    +0.000 N 
ATOM     13  C   UNL     1       4.989   5.644  16.956  0.00  0.00    +0.000 A 
ENDROOT
BRANCH   1  15
ATOM     14  C   UNL     1       7.806   7.915  17.426  0.00  0.00    +0.000 C 
ATOM     15  C   UNL     1       6.577   7.638  17.055  0.00  0.00    +0.000 C 
BRANCH  14  19
ATOM     16  C   UNL     1       9.160  11.601  19.160  0.00  0.00    +0.000 A 
ATOM     17  C   UNL     1       9.471  10.376  19.768  0.00  0.00    +0.000 A 
ATOM     18  C   UNL     1       9.028   9.186  19.173  0.00  0.00    +0.000 A 
ATOM     19  C   UNL     1       8.246   9.202  18.011  0.00  0.00    +0.000 A 
ATOM     20  C   UNL     1       7.953  10.441  17.412  0.00  0.00    +0.000 A 
ATOM     21  C   UNL     1       8.410  11.639  17.982  0.00  0.00    +0.000 A 
BRANCH  16  23
ATOM     22  O   UNL     1       9.577  13.880  19.099  0.00  0.00    +0.000 OA
ATOM     23  N   UNL     1       9.651  12.850  19.766  0.00  0.00    +0.000 N 
ATOM     24  O   UNL     1      10.105  12.787  20.916  0.00  0.00    +0.000 OA
ENDBRANCH  16  23
ENDBRANCH  14  19
ENDBRANCH   1  15
BRANCH  12  25
ATOM     25  C   UNL     1       3.685   7.415  17.980  0.00  0.00    +0.000 C 
BRANCH  25  26
ATOM     26  C   UNL     1       2.551   8.304  18.462  0.00  0.00    +0.000 C 
BRANCH  26  27
ATOM     27  C   UNL     1       1.981   7.775  19.826  0.00  0.00    +0.000 C 
BRANCH  27  28
ATOM     28  C   UNL     1       1.113   8.802  20.512  0.00  0.00    +0.000 A 
ATOM     29  C   UNL     1       0.861  10.029  19.886  0.00  0.00    +0.000 A 
ATOM     30  C   UNL     1       0.059  10.989  20.504  0.00  0.00    +0.000 A 
ATOM     31  C   UNL     1      -0.515  10.723  21.745  0.00  0.00    +0.000 A 
ATOM     32  C   UNL     1      -0.271   9.505  22.377  0.00  0.00    +0.000 A 
ATOM     33  C   UNL     1       0.551   8.552  21.770  0.00  0.00    +0.000 A 
ENDBRANCH  27  28
ENDBRANCH  26  27
ENDBRANCH  25  26
ENDBRANCH  12  25
TORSDOF 7
ENDMDL
MODEL 2
REMARK VINA RESULT:      -8.9      0.181      1.008
REMARK  Name = 
REMARK  7 active torsions:
REMARK  status: ('A' for Active; 'I' for Inactive)
REMARK    1  A    between atoms: N_2  and  C_4
REMARK    2  A    between atoms: C_7  and  C_8
REMARK    3  A    between atoms: C_9  and  C_10
REMARK    4  A    between atoms: N_21  and  C_22
REMARK    5  A    between atoms: C_22  and  C_23
REMARK    6  A    between atoms: C_23  and  C_24
REMARK    7  A    between atoms: C_24  and  C_25
REMARK                            x       y       z     vdW  Elec       q    Type
REMARK                         _______ _______ _______ _____ _____    ______ ____
ROOT
ATOM      1  C   UNL     1       6.173   6.361  16.624  0.00  0.00    +0.000 A 
ATOM      2  N   UNL     1       7.038   5.743  15.779  0.00  0.00    +0.000 NA
ATOM      3  C   UNL     1       6.866   4.441  15.504  0.00  0.00    +0.000 A 
ATOM      4  C   UNL     1       5.970   3.634  16.160  0.00  0.00    +0.000 A 
ATOM      5  C   UNL     1       5.013   4.291  16.949  0.00  0.00    +0.000 A 
ATOM      6  C   UNL     1       3.967   3.850  17.784  0.00  0.00    +0.000 A 
ATOM      7  C   UNL     1       3.681   2.581  18.322  0.00  0.00    +0.000 A 
ATOM      8  C   UNL     1       2.364   2.192  18.483  0.00  0.00    +0.000 A 
ATOM      9  C   UNL     1       1.368   3.074  18.040  0.00  0.00    +0.000 A 
ATOM     10  C   UNL     1       1.655   4.429  17.696  0.00  0.00    +0.000 A 
ATOM     11  C   UNL     1       3.010   4.870  17.734  0.00  0.00    +0.000 A 
ATOM     12  N   UNL     1       3.780   6.033  17.626  0.00  0.00    +0.000 N 
ATOM     13  C   UNL     1       5.008   5.669  17.014  0.00  0.00    +0.000 A 
ENDROOT
BRANCH   1  15
ATOM     14  C   UNL     1       7.865   7.969  17.404  0.00  0.00    +0.000 C 
ATOM     15  C   UNL     1       6.610   7.648  17.189  0.00  0.00    +0.000 C 
BRANCH  14  19
ATOM     16  C   UNL     1       9.118  11.669  19.184  0.00  0.00    +0.000 A 
ATOM     17  C   UNL     1       8.424  11.669  17.965  0.00  0.00    +0.000 A 
ATOM     18  C   UNL     1       8.015  10.447  17.412  0.00  0.00    +0.000 A 
ATOM     19  C   UNL     1       8.323   9.230  18.032  0.00  0.00    +0.000 A 
ATOM     20  C   UNL     1       9.011   9.253  19.259  0.00  0.00    +0.000 A 
ATOM     21  C   UNL     1       9.407  10.468  19.837  0.00  0.00    +0.000 A 
BRANCH  16  23
ATOM     22  O   UNL     1      10.273  12.922  20.754  0.00  0.00    +0.000 OA
ATOM     23  N   UNL     1       9.521  12.952  19.783  0.00  0.00    +0.000 N 
ATOM     24  O   UNL     1       9.081  13.987  19.264  0.00  0.00    +0.000 OA
ENDBRANCH  16  23
ENDBRANCH  14  19
ENDBRANCH   1  15
BRANCH  12  25
ATOM     25  C   UNL     1       3.713   7.413  18.094  0.00  0.00    +0.000 C 
BRANCH  25  26
ATOM     26  C   UNL     1       2.573   8.313  18.543  0.00  0.00    +0.000 C 
BRANCH  26  27
ATOM     27  C   UNL     1       1.923   7.758  19.861  0.00  0.00    +0.000 C 
BRANCH  27  28
ATOM     28  C   UNL     1       1.146   8.822  20.597  0.00  0.00    +0.000 A 
ATOM     29  C   UNL     1       0.691   9.953  19.909  0.00  0.00    +0.000 A 
ATOM     30  C   UNL     1      -0.031  10.945  20.573  0.00  0.00    +0.000 A 
ATOM     31  C   UNL     1      -0.323  10.805  21.928  0.00  0.00    +0.000 A 
ATOM     32  C   UNL     1       0.125   9.684  22.624  0.00  0.00    +0.000 A 
ATOM     33  C   UNL     1       0.869   8.701  21.965  0.00  0.00    +0.000 A 
ENDBRANCH  27  28
ENDBRANCH  26  27
ENDBRANCH  25  26
ENDBRANCH  12  25
TORSDOF 7
ENDMDL
MODEL 3
REMARK VINA RESULT:      -8.8      0.538      1.081
REMARK  Name = 
REMARK  7 active torsions:
REMARK  status: ('A' for Active; 'I' for Inactive)
REMARK    1  A    between atoms: N_2  and  C_4
REMARK    2  A    between atoms: C_7  and  C_8
REMARK    3  A    between atoms: C_9  and  C_10
REMARK    4  A    between atoms: N_21  and  C_22
REMARK    5  A    between atoms: C_22  and  C_23
REMARK    6  A    between atoms: C_23  and  C_24
REMARK    7  A    between atoms: C_24  and  C_25
REMARK                            x       y       z     vdW  Elec       q    Type
REMARK                         _______ _______ _______ _____ _____    ______ ____
ROOT
ATOM      1  C   UNL     1       6.182   6.418  16.639  0.00  0.00    +0.000 A 
ATOM      2  N   UNL     1       7.043   5.816  15.778  0.00  0.00    +0.000 NA
ATOM      3  C   UNL     1       6.876   4.515  15.490  0.00  0.00    +0.000 A 
ATOM      4  C   UNL     1       5.992   3.695  16.146  0.00  0.00    +0.000 A 
ATOM      5  C   UNL     1       5.039   4.337  16.952  0.00  0.00    +0.000 A 
ATOM      6  C   UNL     1       4.004   3.879  17.792  0.00  0.00    +0.000 A 
ATOM      7  C   UNL     1       3.732   2.603  18.318  0.00  0.00    +0.000 A 
ATOM      8  C   UNL     1       2.419   2.203  18.487  0.00  0.00    +0.000 A 
ATOM      9  C   UNL     1       1.413   3.083  18.064  0.00  0.00    +0.000 A 
ATOM     10  C   UNL     1       1.687   4.444  17.733  0.00  0.00    +0.000 A 
ATOM     11  C   UNL     1       3.040   4.893  17.763  0.00  0.00    +0.000 A 
ATOM     12  N   UNL     1       3.802   6.063  17.660  0.00  0.00    +0.000 N 
ATOM     13  C   UNL     1       5.026   5.714  17.032  0.00  0.00    +0.000 A 
ENDROOT
BRANCH   1  15
ATOM     14  C   UNL     1       7.872   8.038  17.399  0.00  0.00    +0.000 C 
ATOM     15  C   UNL     1       6.616   7.701  17.214  0.00  0.00    +0.000 C 
BRANCH  14  19
ATOM     16  C   UNL     1       9.270  11.630  19.288  0.00  0.00    +0.000 A 
ATOM     17  C   UNL     1       9.482  10.383  19.894  0.00  0.00    +0.000 A 
ATOM     18  C   UNL     1       9.026   9.224  19.249  0.00  0.00    +0.000 A 
ATOM     19  C   UNL     1       8.330   9.294  18.036  0.00  0.00    +0.000 A 
ATOM     20  C   UNL     1       8.137  10.554  17.440  0.00  0.00    +0.000 A 
ATOM     21  C   UNL     1       8.608  11.720  18.061  0.00  0.00    +0.000 A 
BRANCH  16  23
ATOM     22  O   UNL     1      10.985  12.931  20.146  0.00  0.00    +0.000 OA
ATOM     23  N   UNL     1       9.775  12.846  19.948  0.00  0.00    +0.000 N 
ATOM     24  O   UNL     1       8.947  13.712  20.258  0.00  0.00    +0.000 OA
ENDBRANCH  16  23
ENDBRANCH  14  19
ENDBRANCH   1  15
BRANCH  12  25
ATOM     25  C   UNL     1       3.730   7.437  18.144  0.00  0.00    +0.000 C 
BRANCH  25  26
ATOM     26  C   UNL     1       2.964   8.669  17.691  0.00  0.00    +0.000 C 
BRANCH  26  27
ATOM     27  C   UNL     1       1.437   8.521  18.027  0.00  0.00    +0.000 C 
BRANCH  27  28
ATOM     28  C   UNL     1       1.105   9.068  19.394  0.00  0.00    +0.000 A 
ATOM     29  C   UNL     1       1.423   8.324  20.538  0.00  0.00    +0.000 A 
ATOM     30  C   UNL     1       1.125   8.816  21.809  0.00  0.00    +0.000 A 
ATOM     31  C   UNL     1       0.526  10.065  21.950  0.00  0.00    +0.000 A 
ATOM     32  C   UNL     1       0.205  10.815  20.819  0.00  0.00    +0.000 A 
ATOM     33  C   UNL     1       0.481  10.313  19.544  0.00  0.00    +0.000 A 
ENDBRANCH  27  28
ENDBRANCH  26  27
ENDBRANCH  25  26
ENDBRANCH  12  25
TORSDOF 7
ENDMDL
MODEL 4
REMARK VINA RESULT:      -8.8      1.047      1.366
REMARK  Name = 
REMARK  7 active torsions:
REMARK  status: ('A' for Active; 'I' for Inactive)
REMARK    1  A    between atoms: N_2  and  C_4
REMARK    2  A    between atoms: C_7  and  C_8
REMARK    3  A    between atoms: C_9  and  C_10
REMARK    4  A    between atoms: N_21  and  C_22
REMARK    5  A    between atoms: C_22  and  C_23
REMARK    6  A    between atoms: C_23  and  C_24
REMARK    7  A    between atoms: C_24  and  C_25
REMARK                            x       y       z     vdW  Elec       q    Type
REMARK                         _______ _______ _______ _____ _____    ______ ____
ROOT
ATOM      1  C   UNL     1       6.145   6.355  16.649  0.00  0.00    +0.000 A 
ATOM      2  N   UNL     1       7.021   5.747  15.808  0.00  0.00    +0.000 NA
ATOM      3  C   UNL     1       6.868   4.441  15.536  0.00  0.00    +0.000 A 
ATOM      4  C   UNL     1       5.981   3.624  16.192  0.00  0.00    +0.000 A 
ATOM      5  C   UNL     1       5.012   4.270  16.976  0.00  0.00    +0.000 A 
ATOM      6  C   UNL     1       3.970   3.817  17.809  0.00  0.00    +0.000 A 
ATOM      7  C   UNL     1       3.700   2.546  18.350  0.00  0.00    +0.000 A 
ATOM      8  C   UNL     1       2.387   2.139  18.507  0.00  0.00    +0.000 A 
ATOM      9  C   UNL     1       1.381   3.005  18.058  0.00  0.00    +0.000 A 
ATOM     10  C   UNL     1       1.650   4.364  17.710  0.00  0.00    +0.000 A 
ATOM     11  C   UNL     1       2.999   4.823  17.752  0.00  0.00    +0.000 A 
ATOM     12  N   UNL     1       3.753   5.997  17.643  0.00  0.00    +0.000 N 
ATOM     13  C   UNL     1       4.988   5.648  17.036  0.00  0.00    +0.000 A 
ENDROOT
BRANCH   1  15
ATOM     14  C   UNL     1       7.813   8.016  17.366  0.00  0.00    +0.000 C 
ATOM     15  C   UNL     1       6.561   7.649  17.211  0.00  0.00    +0.000 C 
BRANCH  14  19
ATOM     16  C   UNL     1       9.169  11.644  19.215  0.00  0.00    +0.000 A 
ATOM     17  C   UNL     1       9.419  10.405  19.822  0.00  0.00    +0.000 A 
ATOM     18  C   UNL     1       8.976   9.234  19.190  0.00  0.00    +0.000 A 
ATOM     19  C   UNL     1       8.255   9.284  17.990  0.00  0.00    +0.000 A 
ATOM     20  C   UNL     1       8.025  10.537  17.393  0.00  0.00    +0.000 A 
ATOM     21  C   UNL     1       8.482  11.716  18.001  0.00  0.00    +0.000 A 
BRANCH  16  23
ATOM     22  O   UNL     1       8.828  13.664  20.299  0.00  0.00    +0.000 OA
ATOM     23  N   UNL     1       9.661  12.873  19.861  0.00  0.00    +0.000 N 
ATOM     24  O   UNL     1      10.887  13.031  19.929  0.00  0.00    +0.000 OA
ENDBRANCH  16  23
ENDBRANCH  14  19
ENDBRANCH   1  15
BRANCH  12  25
ATOM     25  C   UNL     1       3.665   7.377  18.106  0.00  0.00    +0.000 C 
BRANCH  25  26
ATOM     26  C   UNL     1       2.568   8.189  18.775  0.00  0.00    +0.000 C 
BRANCH  26  27
ATOM     27  C   UNL     1       1.955   9.221  17.762  0.00  0.00    +0.000 C 
BRANCH  27  28
ATOM     28  C   UNL     1       0.768   9.948  18.346  0.00  0.00    +0.000 A 
ATOM     29  C   UNL     1       0.947  10.803  19.442  0.00  0.00    +0.000 A 
ATOM     30  C   UNL     1      -0.139  11.485  19.993  0.00  0.00    +0.000 A 
ATOM     31  C   UNL     1      -1.409  11.335  19.442  0.00  0.00    +0.000 A 
ATOM     32  C   UNL     1      -1.598  10.487  18.351  0.00  0.00    +0.000 A 
ATOM     33  C   UNL     1      -0.516   9.785  17.813  0.00  0.00    +0.000 A 
ENDBRANCH  27  28
ENDBRANCH  26  27
ENDBRANCH  25  26
ENDBRANCH  12  25
TORSDOF 7
ENDMDL
MODEL 5
REMARK VINA RESULT:      -8.7      0.888      1.490
REMARK  Name = 
REMARK  7 active torsions:
REMARK  status: ('A' for Active; 'I' for Inactive)
REMARK    1  A    between atoms: N_2  and  C_4
REMARK    2  A    between atoms: C_7  and  C_8
REMARK    3  A    between atoms: C_9  and  C_10
REMARK    4  A    between atoms: N_21  and  C_22
REMARK    5  A    between atoms: C_22  and  C_23
REMARK    6  A    between atoms: C_23  and  C_24
REMARK    7  A    between atoms: C_24  and  C_25
REMARK                            x       y       z     vdW  Elec       q    Type
REMARK                         _______ _______ _______ _____ _____    ______ ____
ROOT
ATOM      1  C   UNL     1       6.054   6.362  16.549  0.00  0.00    +0.000 A 
ATOM      2  N   UNL     1       6.888   5.760  15.663  0.00  0.00    +0.000 NA
ATOM      3  C   UNL     1       6.702   4.463  15.369  0.00  0.00    +0.000 A 
ATOM      4  C   UNL     1       5.828   3.645  16.041  0.00  0.00    +0.000 A 
ATOM      5  C   UNL     1       4.901   4.288  16.875  0.00  0.00    +0.000 A 
ATOM      6  C   UNL     1       3.884   3.833  17.738  0.00  0.00    +0.000 A 
ATOM      7  C   UNL     1       3.614   2.555  18.261  0.00  0.00    +0.000 A 
ATOM      8  C   UNL     1       2.303   2.165  18.461  0.00  0.00    +0.000 A 
ATOM      9  C   UNL     1       1.294   3.057  18.070  0.00  0.00    +0.000 A 
ATOM     10  C   UNL     1       1.571   4.418  17.742  0.00  0.00    +0.000 A 
ATOM     11  C   UNL     1       2.928   4.856  17.741  0.00  0.00    +0.000 A 
ATOM     12  N   UNL     1       3.697   6.020  17.628  0.00  0.00    +0.000 N 
ATOM     13  C   UNL     1       4.902   5.666  16.966  0.00  0.00    +0.000 A 
ENDROOT
BRANCH   1  15
ATOM     14  C   UNL     1       7.772   7.927  17.362  0.00  0.00    +0.000 C 
ATOM     15  C   UNL     1       6.513   7.637  17.123  0.00  0.00    +0.000 C 
BRANCH  14  19
ATOM     16  C   UNL     1       9.082  11.591  19.173  0.00  0.00    +0.000 A 
ATOM     17  C   UNL     1       8.324  11.616  17.994  0.00  0.00    +0.000 A 
ATOM     18  C   UNL     1       7.897  10.405  17.430  0.00  0.00    +0.000 A 
ATOM     19  C   UNL     1       8.251   9.175  17.999  0.00  0.00    +0.000 A 
ATOM     20  C   UNL     1       9.003   9.172  19.188  0.00  0.00    +0.000 A 
ATOM     21  C   UNL     1       9.417  10.376  19.777  0.00  0.00    +0.000 A 
BRANCH  16  23
ATOM     22  O   UNL     1      10.373  13.515  19.211  0.00  0.00    +0.000 OA
ATOM     23  N   UNL     1       9.504  12.862  19.784  0.00  0.00    +0.000 N 
ATOM     24  O   UNL     1       8.951  13.200  20.840  0.00  0.00    +0.000 OA
ENDBRANCH  16  23
ENDBRANCH  14  19
ENDBRANCH   1  15
BRANCH  12  25
ATOM     25  C   UNL     1       3.649   7.391  18.124  0.00  0.00    +0.000 C 
BRANCH  25  26
ATOM     26  C   UNL     1       2.577   8.219  18.812  0.00  0.00    +0.000 C 
BRANCH  26  27
ATOM     27  C   UNL     1       1.594   8.833  17.751  0.00  0.00    +0.000 C 
BRANCH  27  28
ATOM     28  C   UNL     1       0.568   9.737  18.390  0.00  0.00    +0.000 A 
ATOM     29  C   UNL     1      -0.655   9.966  17.746  0.00  0.00    +0.000 A 
ATOM     30  C   UNL     1      -1.616  10.797  18.323  0.00  0.00    +0.000 A 
ATOM     31  C   UNL     1      -1.372  11.390  19.560  0.00  0.00    +0.000 A 
ATOM     32  C   UNL     1      -0.159  11.169  20.210  0.00  0.00    +0.000 A 
ATOM     33  C   UNL     1       0.815  10.357  19.622  0.00  0.00    +0.000 A 
ENDBRANCH  27  28
ENDBRANCH  26  27
ENDBRANCH  25  26
ENDBRANCH  12  25
TORSDOF 7
ENDMDL
MODEL 6
REMARK VINA RESULT:      -8.2      4.366      9.122
REMARK  Name = 
REMARK  7 active torsions:
REMARK  status: ('A' for Active; 'I' for Inactive)
REMARK    1  A    between atoms: N_2  and  C_4
REMARK    2  A    between atoms: C_7  and  C_8
REMARK    3  A    between atoms: C_9  and  C_10
REMARK    4  A    between atoms: N_21  and  C_22
REMARK    5  A    between atoms: C_22  and  C_23
REMARK    6  A    between atoms: C_23  and  C_24
REMARK    7  A    between atoms: C_24  and  C_25
REMARK                            x       y       z     vdW  Elec       q    Type
REMARK                         _______ _______ _______ _____ _____    ______ ____
ROOT
ATOM      1  C   UNL     1       0.517   8.772  21.301  0.00  0.00    +0.000 A 
ATOM      2  N   UNL     1      -0.079   8.726  22.520  0.00  0.00    +0.000 NA
ATOM      3  C   UNL     1      -0.582   9.855  23.044  0.00  0.00    +0.000 A 
ATOM      4  C   UNL     1      -0.379  11.103  22.508  0.00  0.00    +0.000 A 
ATOM      5  C   UNL     1       0.141  11.135  21.205  0.00  0.00    +0.000 A 
ATOM      6  C   UNL     1       0.515  12.173  20.329  0.00  0.00    +0.000 A 
ATOM      7  C   UNL     1       0.740  13.544  20.556  0.00  0.00    +0.000 A 
ATOM      8  C   UNL     1       0.403  14.460  19.577  0.00  0.00    +0.000 A 
ATOM      9  C   UNL     1      -0.208  13.970  18.413  0.00  0.00    +0.000 A 
ATOM     10  C   UNL     1      -0.239  12.578  18.102  0.00  0.00    +0.000 A 
ATOM     11  C   UNL     1       0.304  11.657  19.045  0.00  0.00    +0.000 A 
ATOM     12  N   UNL     1       0.624  10.301  19.183  0.00  0.00    +0.000 N 
ATOM     13  C   UNL     1       0.400   9.953  20.541  0.00  0.00    +0.000 A 
ENDROOT
BRANCH   1  15
ATOM     14  C   UNL     1       0.931   6.407  20.755  0.00  0.00    +0.000 C 
ATOM     15  C   UNL     1       1.374   7.630  20.945  0.00  0.00    +0.000 C 
BRANCH  14  19
ATOM     16  C   UNL     1       3.321   2.954  19.868  0.00  0.00    +0.000 A 
ATOM     17  C   UNL     1       1.955   2.815  20.154  0.00  0.00    +0.000 A 
ATOM     18  C   UNL     1       1.194   3.961  20.428  0.00  0.00    +0.000 A 
ATOM     19  C   UNL     1       1.782   5.232  20.462  0.00  0.00    +0.000 A 
ATOM     20  C   UNL     1       3.152   5.350  20.162  0.00  0.00    +0.000 A 
ATOM     21  C   UNL     1       3.921   4.215  19.864  0.00  0.00    +0.000 A 
BRANCH  16  23
ATOM     22  O   UNL     1       5.073   1.492  20.273  0.00  0.00    +0.000 OA
ATOM     23  N   UNL     1       4.115   1.755  19.550  0.00  0.00    +0.000 N 
ATOM     24  O   UNL     1       3.763   1.080  18.573  0.00  0.00    +0.000 OA
ENDBRANCH  16  23
ENDBRANCH  14  19
ENDBRANCH   1  15
BRANCH  12  25
ATOM     25  C   UNL     1       1.239   9.255  18.375  0.00  0.00    +0.000 C 
BRANCH  25  26
ATOM     26  C   UNL     1       2.679   8.856  18.098  0.00  0.00    +0.000 C 
BRANCH  26  27
ATOM     27  C   UNL     1       2.731   7.488  17.327  0.00  0.00    +0.000 C 
BRANCH  27  28
ATOM     28  C   UNL     1       4.140   6.965  17.199  0.00  0.00    +0.000 A 
ATOM     29  C   UNL     1       4.359   5.656  16.752  0.00  0.00    +0.000 A 
ATOM     30  C   UNL     1       5.656   5.157  16.625  0.00  0.00    +0.000 A 
ATOM     31  C   UNL     1       6.747   5.969  16.926  0.00  0.00    +0.000 A 
ATOM     32  C   UNL     1       6.542   7.274  17.372  0.00  0.00    +0.000 A 
ATOM     33  C   UNL     1       5.243   7.767  17.522  0.00  0.00    +0.000 A 
ENDBRANCH  27  28
ENDBRANCH  26  27
ENDBRANCH  25  26
ENDBRANCH  12  25
TORSDOF 7
ENDMDL
MODEL 7
REMARK VINA RESULT:      -8.2      4.360      9.105
REMARK  Name = 
REMARK  7 active torsions:
REMARK  status: ('A' for Active; 'I' for Inactive)
REMARK    1  A    between atoms: N_2  and  C_4
REMARK    2  A    between atoms: C_7  and  C_8
REMARK    3  A    between atoms: C_9  and  C_10
REMARK    4  A    between atoms: N_21  and  C_22
REMARK    5  A    between atoms: C_22  and  C_23
REMARK    6  A    between atoms: C_23  and  C_24
REMARK    7  A    between atoms: C_24  and  C_25
REMARK                            x       y       z     vdW  Elec       q    Type
REMARK                         _______ _______ _______ _____ _____    ______ ____
ROOT
ATOM      1  C   UNL     1       0.618   8.661  21.072  0.00  0.00    +0.000 A 
ATOM      2  N   UNL     1      -0.066   8.567  22.241  0.00  0.00    +0.000 NA
ATOM      3  C   UNL     1      -0.502   9.690  22.836  0.00  0.00    +0.000 A 
ATOM      4  C   UNL     1      -0.150  10.954  22.432  0.00  0.00    +0.000 A 
ATOM      5  C   UNL     1       0.462  11.049  21.172  0.00  0.00    +0.000 A 
ATOM      6  C   UNL     1       0.989  12.119  20.422  0.00  0.00    +0.000 A 
ATOM      7  C   UNL     1       1.319  13.437  20.790  0.00  0.00    +0.000 A 
ATOM      8  C   UNL     1       1.136  14.463  19.880  0.00  0.00    +0.000 A 
ATOM      9  C   UNL     1       0.568  14.137  18.640  0.00  0.00    +0.000 A 
ATOM     10  C   UNL     1       0.435  12.786  18.199  0.00  0.00    +0.000 A 
ATOM     11  C   UNL     1       0.825  11.739  19.085  0.00  0.00    +0.000 A 
ATOM     12  N   UNL     1       1.011  10.352  19.117  0.00  0.00    +0.000 N 
ATOM     13  C   UNL     1       0.661   9.910  20.419  0.00  0.00    +0.000 A 
ENDROOT
BRANCH   1  15
ATOM     14  C   UNL     1       1.025   6.240  20.905  0.00  0.00    +0.000 C 
ATOM     15  C   UNL     1       1.392   7.478  20.665  0.00  0.00    +0.000 C 
BRANCH  14  19
ATOM     16  C   UNL     1       3.410   2.806  19.932  0.00  0.00    +0.000 A 
ATOM     17  C   UNL     1       3.888   4.098  19.669  0.00  0.00    +0.000 A 
ATOM     18  C   UNL     1       3.095   5.203  20.009  0.00  0.00    +0.000 A 
ATOM     19  C   UNL     1       1.820   5.037  20.565  0.00  0.00    +0.000 A 
ATOM     20  C   UNL     1       1.363   3.733  20.830  0.00  0.00    +0.000 A 
ATOM     21  C   UNL     1       2.155   2.619  20.517  0.00  0.00    +0.000 A 
BRANCH  16  23
ATOM     22  O   UNL     1       5.217   1.412  20.332  0.00  0.00    +0.000 OA
ATOM     23  N   UNL     1       4.255   1.645  19.605  0.00  0.00    +0.000 N 
ATOM     24  O   UNL     1       3.939   0.970  18.616  0.00  0.00    +0.000 OA
ENDBRANCH  16  23
ENDBRANCH  14  19
ENDBRANCH   1  15
BRANCH  12  25
ATOM     25  C   UNL     1       1.586   9.326  18.254  0.00  0.00    +0.000 C 
BRANCH  25  26
ATOM     26  C   UNL     1       3.003   8.826  18.022  0.00  0.00    +0.000 C 
BRANCH  26  27
ATOM     27  C   UNL     1       2.981   7.452  17.261  0.00  0.00    +0.000 C 
BRANCH  27  28
ATOM     28  C   UNL     1       4.364   6.866  17.117  0.00  0.00    +0.000 A 
ATOM     29  C   UNL     1       5.480   7.605  17.531  0.00  0.00    +0.000 A 
ATOM     30  C   UNL     1       6.766   7.077  17.407  0.00  0.00    +0.000 A 
ATOM     31  C   UNL     1       6.947   5.798  16.886  0.00  0.00    +0.000 A 
ATOM     32  C   UNL     1       5.844   5.053  16.470  0.00  0.00    +0.000 A 
ATOM     33  C   UNL     1       4.557   5.590  16.571  0.00  0.00    +0.000 A 
ENDBRANCH  27  28
ENDBRANCH  26  27
ENDBRANCH  25  26
ENDBRANCH  12  25
TORSDOF 7
ENDMDL
MODEL 8
REMARK VINA RESULT:      -8.2      4.557      9.121
REMARK  Name = 
REMARK  7 active torsions:
REMARK  status: ('A' for Active; 'I' for Inactive)
REMARK    1  A    between atoms: N_2  and  C_4
REMARK    2  A    between atoms: C_7  and  C_8
REMARK    3  A    between atoms: C_9  and  C_10
REMARK    4  A    between atoms: N_21  and  C_22
REMARK    5  A    between atoms: C_22  and  C_23
REMARK    6  A    between atoms: C_23  and  C_24
REMARK    7  A    between atoms: C_24  and  C_25
REMARK                            x       y       z     vdW  Elec       q    Type
REMARK                         _______ _______ _______ _____ _____    ______ ____
ROOT
ATOM      1  C   UNL     1       0.511   8.533  21.141  0.00  0.00    +0.000 A 
ATOM      2  N   UNL     1      -0.163   8.438  22.316  0.00  0.00    +0.000 NA
ATOM      3  C   UNL     1      -0.622   9.558  22.898  0.00  0.00    +0.000 A 
ATOM      4  C   UNL     1      -0.304  10.824  22.474  0.00  0.00    +0.000 A 
ATOM      5  C   UNL     1       0.298  10.917  21.210  0.00  0.00    +0.000 A 
ATOM      6  C   UNL     1       0.794  11.989  20.441  0.00  0.00    +0.000 A 
ATOM      7  C   UNL     1       1.094  13.320  20.789  0.00  0.00    +0.000 A 
ATOM      8  C   UNL     1       0.880  14.328  19.867  0.00  0.00    +0.000 A 
ATOM      9  C   UNL     1       0.313  13.971  18.635  0.00  0.00    +0.000 A 
ATOM     10  C   UNL     1       0.211  12.611  18.213  0.00  0.00    +0.000 A 
ATOM     11  C   UNL     1       0.631  11.586  19.111  0.00  0.00    +0.000 A 
ATOM     12  N   UNL     1       0.851  10.205  19.160  0.00  0.00    +0.000 N 
ATOM     13  C   UNL     1       0.520   9.773  20.471  0.00  0.00    +0.000 A 
ENDROOT
BRANCH   1  15
ATOM     14  C   UNL     1       0.860   6.129  20.738  0.00  0.00    +0.000 C 
ATOM     15  C   UNL     1       1.312   7.363  20.746  0.00  0.00    +0.000 C 
BRANCH  14  19
ATOM     16  C   UNL     1       3.206   2.690  19.694  0.00  0.00    +0.000 A 
ATOM     17  C   UNL     1       2.431   3.341  18.722  0.00  0.00    +0.000 A 
ATOM     18  C   UNL     1       1.684   4.470  19.087  0.00  0.00    +0.000 A 
ATOM     19  C   UNL     1       1.666   4.931  20.409  0.00  0.00    +0.000 A 
ATOM     20  C   UNL     1       2.459   4.271  21.366  0.00  0.00    +0.000 A 
ATOM     21  C   UNL     1       3.229   3.154  21.011  0.00  0.00    +0.000 A 
BRANCH  16  23
ATOM     22  O   UNL     1       3.708   0.927  18.276  0.00  0.00    +0.000 OA
ATOM     23  N   UNL     1       4.016   1.523  19.305  0.00  0.00    +0.000 N 
ATOM     24  O   UNL     1       4.965   1.217  20.040  0.00  0.00    +0.000 OA
ENDBRANCH  16  23
ENDBRANCH  14  19
ENDBRANCH   1  15
BRANCH  12  25
ATOM     25  C   UNL     1       1.447   9.181  18.309  0.00  0.00    +0.000 C 
BRANCH  25  26
ATOM     26  C   UNL     1       2.879   8.811  17.961  0.00  0.00    +0.000 C 
BRANCH  26  27
ATOM     27  C   UNL     1       2.976   7.288  17.587  0.00  0.00    +0.000 C 
BRANCH  27  28
ATOM     28  C   UNL     1       4.380   6.757  17.741  0.00  0.00    +0.000 A 
ATOM     29  C   UNL     1       4.713   5.986  18.862  0.00  0.00    +0.000 A 
ATOM     30  C   UNL     1       6.006   5.485  19.019  0.00  0.00    +0.000 A 
ATOM     31  C   UNL     1       6.973   5.734  18.048  0.00  0.00    +0.000 A 
ATOM     32  C   UNL     1       6.653   6.501  16.928  0.00  0.00    +0.000 A 
ATOM     33  C   UNL     1       5.365   7.023  16.781  0.00  0.00    +0.000 A 
ENDBRANCH  27  28
ENDBRANCH  26  27
ENDBRANCH  25  26
ENDBRANCH  12  25
TORSDOF 7
ENDMDL
MODEL 9
REMARK VINA RESULT:      -8.1      4.507      9.024
REMARK  Name = 
REMARK  7 active torsions:
REMARK  status: ('A' for Active; 'I' for Inactive)
REMARK    1  A    between atoms: N_2  and  C_4
REMARK    2  A    between atoms: C_7  and  C_8
REMARK    3  A    between atoms: C_9  and  C_10
REMARK    4  A    between atoms: N_21  and  C_22
REMARK    5  A    between atoms: C_22  and  C_23
REMARK    6  A    between atoms: C_23  and  C_24
REMARK    7  A    between atoms: C_24  and  C_25
REMARK                            x       y       z     vdW  Elec       q    Type
REMARK                         _______ _______ _______ _____ _____    ______ ____
ROOT
ATOM      1  C   UNL     1       0.572   8.479  21.220  0.00  0.00    +0.000 A 
ATOM      2  N   UNL     1      -0.069   8.390  22.414  0.00  0.00    +0.000 NA
ATOM      3  C   UNL     1      -0.549   9.507  22.983  0.00  0.00    +0.000 A 
ATOM      4  C   UNL     1      -0.281  10.773  22.525  0.00  0.00    +0.000 A 
ATOM      5  C   UNL     1       0.286  10.857  21.244  0.00  0.00    +0.000 A 
ATOM      6  C   UNL     1       0.729  11.927  20.441  0.00  0.00    +0.000 A 
ATOM      7  C   UNL     1       0.995  13.273  20.753  0.00  0.00    +0.000 A 
ATOM      8  C   UNL     1       0.727  14.254  19.816  0.00  0.00    +0.000 A 
ATOM      9  C   UNL     1       0.141  13.853  18.606  0.00  0.00    +0.000 A 
ATOM     10  C   UNL     1       0.071  12.482  18.216  0.00  0.00    +0.000 A 
ATOM     11  C   UNL     1       0.545  11.490  19.124  0.00  0.00    +0.000 A 
ATOM     12  N   UNL     1       0.810  10.118  19.197  0.00  0.00    +0.000 N 
ATOM     13  C   UNL     1       0.526   9.704  20.524  0.00  0.00    +0.000 A 
ENDROOT
BRANCH   1  15
ATOM     14  C   UNL     1       0.918   6.140  20.535  0.00  0.00    +0.000 C 
ATOM     15  C   UNL     1       1.399   7.327  20.829  0.00  0.00    +0.000 C 
BRANCH  14  19
ATOM     16  C   UNL     1       3.280   2.663  19.670  0.00  0.00    +0.000 A 
ATOM     17  C   UNL     1       3.329   3.254  20.941  0.00  0.00    +0.000 A 
ATOM     18  C   UNL     1       2.537   4.381  21.201  0.00  0.00    +0.000 A 
ATOM     19  C   UNL     1       1.734   4.950  20.204  0.00  0.00    +0.000 A 
ATOM     20  C   UNL     1       1.692   4.336  18.939  0.00  0.00    +0.000 A 
ATOM     21  C   UNL     1       2.460   3.194  18.671  0.00  0.00    +0.000 A 
BRANCH  16  23
ATOM     22  O   UNL     1       3.790   0.773  18.430  0.00  0.00    +0.000 OA
ATOM     23  N   UNL     1       4.087   1.460  19.404  0.00  0.00    +0.000 N 
ATOM     24  O   UNL     1       5.022   1.218  20.178  0.00  0.00    +0.000 OA
ENDBRANCH  16  23
ENDBRANCH  14  19
ENDBRANCH   1  15
BRANCH  12  25
ATOM     25  C   UNL     1       1.416   9.095  18.352  0.00  0.00    +0.000 C 
BRANCH  25  26
ATOM     26  C   UNL     1       2.846   8.796  17.930  0.00  0.00    +0.000 C 
BRANCH  26  27
ATOM     27  C   UNL     1       3.011   7.269  17.599  0.00  0.00    +0.000 C 
BRANCH  27  28
ATOM     28  C   UNL     1       4.440   6.810  17.756  0.00  0.00    +0.000 A 
ATOM     29  C   UNL     1       5.415   7.244  16.849  0.00  0.00    +0.000 A 
ATOM     30  C   UNL     1       6.741   6.831  16.982  0.00  0.00    +0.000 A 
ATOM     31  C   UNL     1       7.109   5.995  18.033  0.00  0.00    +0.000 A 
ATOM     32  C   UNL     1       6.147   5.556  18.942  0.00  0.00    +0.000 A 
ATOM     33  C   UNL     1       4.814   5.950  18.797  0.00  0.00    +0.000 A 
ENDBRANCH  27  28
ENDBRANCH  26  27
ENDBRANCH  25  26
ENDBRANCH  12  25
TORSDOF 7
ENDMDL
