MODEL 1
REMARK VINA RESULT:      -8.7      0.000      0.000
REMARK  Name = 
REMARK  6 active torsions:
REMARK  status: ('A' for Active; 'I' for Inactive)
REMARK    1  A    between atoms: C_1  and  C_2
REMARK    2  A    between atoms: C_7  and  C_8
REMARK    3  A    between atoms: C_8  and  C_9
REMARK    4  A    between atoms: C_14  and  N_15
REMARK    5  A    between atoms: C_18  and  C_19
REMARK    6  A    between atoms: C_19  and  C_20
REMARK                            x       y       z     vdW  Elec       q    Type
REMARK                         _______ _______ _______ _____ _____    ______ ____
ROOT
ATOM      1  C   UNL     1       0.200   9.558  20.487  0.00  0.00    +0.000 C 
ATOM      2  O   UNL     1      -0.467   9.266  21.478  0.00  0.00    +0.000 OA
ATOM      3  N   UNL     1       1.281   8.786  20.060  0.00  0.00    +0.000 N 
ATOM      4  C   UNL     1       2.193   9.179  18.983  0.00  0.00    +0.000 C 
ATOM      5  C   UNL     1       2.123   8.162  17.863  0.00  0.00    +0.000 C 
ATOM      6  C   UNL     1       2.484   6.747  18.345  0.00  0.00    +0.000 C 
ATOM      7  C   UNL     1       1.620   6.388  19.581  0.00  0.00    +0.000 C 
ATOM      8  C   UNL     1       1.516   7.474  20.657  0.00  0.00    +0.000 C 
ENDROOT
BRANCH   6   9
ATOM      9  N   UNL     1       3.948   6.512  18.449  0.00  0.00    +0.000 NA
ATOM     10  C   UNL     1       4.406   5.348  19.196  0.00  0.00    +0.000 C 
ATOM     11  C   UNL     1       5.764   4.708  18.892  0.00  0.00    +0.000 C 
ATOM     12  C   UNL     1       6.277   4.914  17.470  0.00  0.00    +0.000 C 
ATOM     13  C   UNL     1       6.104   6.402  17.150  0.00  0.00    +0.000 C 
ATOM     14  C   UNL     1       4.647   6.852  17.213  0.00  0.00    +0.000 C 
BRANCH  12  15
ATOM     15  C   UNL     1       5.621   4.011  16.394  0.00  0.00    +0.000 C 
BRANCH  15  16
ATOM     16  C   UNL     1       6.124   4.089  14.959  0.00  0.00    +0.000 A 
ATOM     17  C   UNL     1       5.428   3.376  13.967  0.00  0.00    +0.000 A 
ATOM     18  C   UNL     1       5.808   3.461  12.619  0.00  0.00    +0.000 A 
ATOM     19 CL   UNL     1       4.936   2.575  11.429  0.00  0.00    +0.000 Cl
ATOM     20  C   UNL     1       6.875   4.260  12.234  0.00  0.00    +0.000 A 
ATOM     21  C   UNL     1       7.555   4.992  13.204  0.00  0.00    +0.000 A 
ATOM     22 CL   UNL     1       8.847   6.026  12.740  0.00  0.00    +0.000 Cl
ATOM     23  C   UNL     1       7.182   4.916  14.557  0.00  0.00    +0.000 A 
ENDBRANCH  15  16
ENDBRANCH  12  15
ENDBRANCH   6   9
BRANCH   1  24
ATOM     24  C   UNL     1      -0.088  10.753  19.604  0.00  0.00    +0.000 C 
BRANCH  24  31
ATOM     25  C   UNL     1      -2.541  12.401  20.105  0.00  0.00    +0.000 C 
ATOM     26  C   UNL     1      -2.426  11.480  18.918  0.00  0.00    +0.000 A 
ATOM     27  C   UNL     1      -3.443  11.478  17.952  0.00  0.00    +0.000 A 
ATOM     28  C   UNL     1      -3.356  10.655  16.828  0.00  0.00    +0.000 A 
ATOM     29  C   UNL     1      -2.266   9.811  16.658  0.00  0.00    +0.000 A 
ATOM     30  C   UNL     1      -1.239   9.810  17.604  0.00  0.00    +0.000 A 
ATOM     31  C   UNL     1      -1.301  10.670  18.715  0.00  0.00    +0.000 A 
ENDBRANCH  24  31
ENDBRANCH   1  24
TORSDOF 5
ENDMDL
MODEL 2
REMARK VINA RESULT:      -8.6      2.648      4.319
REMARK  Name = 
REMARK  6 active torsions:
REMARK  status: ('A' for Active; 'I' for Inactive)
REMARK    1  A    between atoms: C_1  and  C_2
REMARK    2  A    between atoms: C_7  and  C_8
REMARK    3  A    between atoms: C_8  and  C_9
REMARK    4  A    between atoms: C_14  and  N_15
REMARK    5  A    between atoms: C_18  and  C_19
REMARK    6  A    between atoms: C_19  and  C_20
REMARK                            x       y       z     vdW  Elec       q    Type
REMARK                         _______ _______ _______ _____ _____    ______ ____
ROOT
ATOM      1  C   UNL     1       1.105  10.807  19.543  0.00  0.00    +0.000 C 
ATOM      2  O   UNL     1       1.229  11.568  18.584  0.00  0.00    +0.000 OA
ATOM      3  N   UNL     1       1.139   9.418  19.405  0.00  0.00    +0.000 N 
ATOM      4  C   UNL     1       0.842   8.481  20.490  0.00  0.00    +0.000 C 
ATOM      5  C   UNL     1       2.061   7.627  20.770  0.00  0.00    +0.000 C 
ATOM      6  C   UNL     1       2.514   6.842  19.528  0.00  0.00    +0.000 C 
ATOM      7  C   UNL     1       2.686   7.818  18.336  0.00  0.00    +0.000 C 
ATOM      8  C   UNL     1       1.549   8.826  18.134  0.00  0.00    +0.000 C 
ENDROOT
BRANCH   6   9
ATOM      9  N   UNL     1       1.722   5.607  19.285  0.00  0.00    +0.000 NA
ATOM     10  C   UNL     1       1.692   5.065  17.934  0.00  0.00    +0.000 C 
ATOM     11  C   UNL     1       1.427   3.575  17.695  0.00  0.00    +0.000 C 
ATOM     12  C   UNL     1       1.813   2.652  18.847  0.00  0.00    +0.000 C 
ATOM     13  C   UNL     1       1.247   3.280  20.124  0.00  0.00    +0.000 C 
ATOM     14  C   UNL     1       1.817   4.669  20.400  0.00  0.00    +0.000 C 
BRANCH  12  15
ATOM     15  C   UNL     1       3.329   2.352  18.972  0.00  0.00    +0.000 C 
BRANCH  15  16
ATOM     16  C   UNL     1       4.323   3.265  18.267  0.00  0.00    +0.000 A 
ATOM     17  C   UNL     1       5.217   4.012  19.053  0.00  0.00    +0.000 A 
ATOM     18  C   UNL     1       6.196   4.821  18.458  0.00  0.00    +0.000 A 
ATOM     19 CL   UNL     1       7.275   5.725  19.447  0.00  0.00    +0.000 Cl
ATOM     20  C   UNL     1       6.309   4.894  17.077  0.00  0.00    +0.000 A 
ATOM     21  C   UNL     1       5.446   4.137  16.288  0.00  0.00    +0.000 A 
ATOM     22 CL   UNL     1       5.604   4.175  14.576  0.00  0.00    +0.000 Cl
ATOM     23  C   UNL     1       4.463   3.321  16.874  0.00  0.00    +0.000 A 
ENDBRANCH  15  16
ENDBRANCH  12  15
ENDBRANCH   6   9
BRANCH   1  24
ATOM     24  C   UNL     1       0.937  11.278  20.971  0.00  0.00    +0.000 C 
BRANCH  24  31
ATOM     25  C   UNL     1      -0.559  10.095  23.284  0.00  0.00    +0.000 C 
ATOM     26  C   UNL     1      -1.104  11.252  22.487  0.00  0.00    +0.000 A 
ATOM     27  C   UNL     1      -2.289  11.874  22.907  0.00  0.00    +0.000 A 
ATOM     28  C   UNL     1      -2.809  12.963  22.205  0.00  0.00    +0.000 A 
ATOM     29  C   UNL     1      -2.168  13.437  21.068  0.00  0.00    +0.000 A 
ATOM     30  C   UNL     1      -0.981  12.836  20.643  0.00  0.00    +0.000 A 
ATOM     31  C   UNL     1      -0.430  11.768  21.372  0.00  0.00    +0.000 A 
ENDBRANCH  24  31
ENDBRANCH   1  24
TORSDOF 5
ENDMDL
MODEL 3
REMARK VINA RESULT:      -8.6      0.608      1.728
REMARK  Name = 
REMARK  6 active torsions:
REMARK  status: ('A' for Active; 'I' for Inactive)
REMARK    1  A    between atoms: C_1  and  C_2
REMARK    2  A    between atoms: C_7  and  C_8
REMARK    3  A    between atoms: C_8  and  C_9
REMARK    4  A    between atoms: C_14  and  N_15
REMARK    5  A    between atoms: C_18  and  C_19
REMARK    6  A    between atoms: C_19  and  C_20
REMARK                            x       y       z     vdW  Elec       q    Type
REMARK                         _______ _______ _______ _____ _____    ______ ____
ROOT
ATOM      1  C   UNL     1       0.335  10.394  19.997  0.00  0.00    +0.000 C 
ATOM      2  O   UNL     1      -0.128  10.512  21.130  0.00  0.00    +0.000 OA
ATOM      3  N   UNL     1       1.345   9.480  19.694  0.00  0.00    +0.000 N 
ATOM      4  C   UNL     1       2.030   9.415  18.401  0.00  0.00    +0.000 C 
ATOM      5  C   UNL     1       1.791   8.061  17.767  0.00  0.00    +0.000 C 
ATOM      6  C   UNL     1       2.281   6.910  18.661  0.00  0.00    +0.000 C 
ATOM      7  C   UNL     1       1.671   7.063  20.078  0.00  0.00    +0.000 C 
ATOM      8  C   UNL     1       1.730   8.471  20.678  0.00  0.00    +0.000 C 
ENDROOT
BRANCH   6   9
ATOM      9  N   UNL     1       3.747   6.676  18.575  0.00  0.00    +0.000 NA
ATOM     10  C   UNL     1       4.277   5.433  19.118  0.00  0.00    +0.000 C 
ATOM     11  C   UNL     1       5.590   4.846  18.590  0.00  0.00    +0.000 C 
ATOM     12  C   UNL     1       5.946   5.231  17.158  0.00  0.00    +0.000 C 
ATOM     13  C   UNL     1       5.747   6.746  17.046  0.00  0.00    +0.000 C 
ATOM     14  C   UNL     1       4.308   7.172  17.322  0.00  0.00    +0.000 C 
BRANCH  12  15
ATOM     15  C   UNL     1       5.172   4.462  16.056  0.00  0.00    +0.000 C 
BRANCH  15  16
ATOM     16  C   UNL     1       5.789   4.339  14.670  0.00  0.00    +0.000 A 
ATOM     17  C   UNL     1       6.922   5.116  14.370  0.00  0.00    +0.000 A 
ATOM     18  C   UNL     1       7.569   4.998  13.132  0.00  0.00    +0.000 A 
ATOM     19 CL   UNL     1       8.953   5.964  12.796  0.00  0.00    +0.000 Cl
ATOM     20  C   UNL     1       7.111   4.102  12.177  0.00  0.00    +0.000 A 
ATOM     21  C   UNL     1       6.006   3.307  12.473  0.00  0.00    +0.000 A 
ATOM     22 CL   UNL     1       5.454   2.155  11.321  0.00  0.00    +0.000 Cl
ATOM     23  C   UNL     1       5.350   3.416  13.711  0.00  0.00    +0.000 A 
ENDBRANCH  15  16
ENDBRANCH  12  15
ENDBRANCH   6   9
BRANCH   1  24
ATOM     24  C   UNL     1      -0.149  11.190  18.805  0.00  0.00    +0.000 C 
BRANCH  24  31
ATOM     25  C   UNL     1      -2.423  12.803  19.908  0.00  0.00    +0.000 C 
ATOM     26  C   UNL     1      -2.627  11.757  18.842  0.00  0.00    +0.000 A 
ATOM     27  C   UNL     1      -3.896  11.612  18.259  0.00  0.00    +0.000 A 
ATOM     28  C   UNL     1      -4.113  10.670  17.253  0.00  0.00    +0.000 A 
ATOM     29  C   UNL     1      -3.079   9.849  16.823  0.00  0.00    +0.000 A 
ATOM     30  C   UNL     1      -1.807   9.989  17.383  0.00  0.00    +0.000 A 
ATOM     31  C   UNL     1      -1.572  10.967  18.367  0.00  0.00    +0.000 A 
ENDBRANCH  24  31
ENDBRANCH   1  24
TORSDOF 5
ENDMDL
MODEL 4
REMARK VINA RESULT:      -8.3      0.606      1.448
REMARK  Name = 
REMARK  6 active torsions:
REMARK  status: ('A' for Active; 'I' for Inactive)
REMARK    1  A    between atoms: C_1  and  C_2
REMARK    2  A    between atoms: C_7  and  C_8
REMARK    3  A    between atoms: C_8  and  C_9
REMARK    4  A    between atoms: C_14  and  N_15
REMARK    5  A    between atoms: C_18  and  C_19
REMARK    6  A    between atoms: C_19  and  C_20
REMARK                            x       y       z     vdW  Elec       q    Type
REMARK                         _______ _______ _______ _____ _____    ______ ____
ROOT
ATOM      1  C   UNL     1       0.112   9.877  19.702  0.00  0.00    +0.000 C 
ATOM      2  O   UNL     1      -0.404   9.992  20.812  0.00  0.00    +0.000 OA
ATOM      3  N   UNL     1       1.233   9.076  19.478  0.00  0.00    +0.000 N 
ATOM      4  C   UNL     1       1.968   9.033  18.213  0.00  0.00    +0.000 C 
ATOM      5  C   UNL     1       1.913   7.632  17.641  0.00  0.00    +0.000 C 
ATOM      6  C   UNL     1       2.501   6.590  18.607  0.00  0.00    +0.000 C 
ATOM      7  C   UNL     1       1.824   6.735  19.994  0.00  0.00    +0.000 C 
ATOM      8  C   UNL     1       1.695   8.167  20.524  0.00  0.00    +0.000 C 
ENDROOT
BRANCH   6   9
ATOM      9  N   UNL     1       3.985   6.527  18.580  0.00  0.00    +0.000 NA
ATOM     10  C   UNL     1       4.640   5.436  19.288  0.00  0.00    +0.000 C 
ATOM     11  C   UNL     1       6.031   4.953  18.866  0.00  0.00    +0.000 C 
ATOM     12  C   UNL     1       6.387   5.195  17.402  0.00  0.00    +0.000 C 
ATOM     13  C   UNL     1       6.014   6.647  17.092  0.00  0.00    +0.000 C 
ATOM     14  C   UNL     1       4.526   6.927  17.284  0.00  0.00    +0.000 C 
BRANCH  12  15
ATOM     15  C   UNL     1       5.748   4.205  16.394  0.00  0.00    +0.000 C 
BRANCH  15  16
ATOM     16  C   UNL     1       6.220   4.218  14.947  0.00  0.00    +0.000 A 
ATOM     17  C   UNL     1       5.466   3.515  13.991  0.00  0.00    +0.000 A 
ATOM     18  C   UNL     1       5.817   3.544  12.634  0.00  0.00    +0.000 A 
ATOM     19 CL   UNL     1       4.873   2.672  11.489  0.00  0.00    +0.000 Cl
ATOM     20  C   UNL     1       6.913   4.276  12.203  0.00  0.00    +0.000 A 
ATOM     21  C   UNL     1       7.652   4.999  13.136  0.00  0.00    +0.000 A 
ATOM     22 CL   UNL     1       8.984   5.952  12.613  0.00  0.00    +0.000 Cl
ATOM     23  C   UNL     1       7.309   4.979  14.499  0.00  0.00    +0.000 A 
ENDBRANCH  15  16
ENDBRANCH  12  15
ENDBRANCH   6   9
BRANCH   1  24
ATOM     24  C   UNL     1      -0.417  10.554  18.456  0.00  0.00    +0.000 C 
BRANCH  24  31
ATOM     25  C   UNL     1      -2.612   9.850  16.540  0.00  0.00    +0.000 C 
ATOM     26  C   UNL     1      -2.826  10.807  17.684  0.00  0.00    +0.000 A 
ATOM     27  C   UNL     1      -4.118  11.294  17.937  0.00  0.00    +0.000 A 
ATOM     28  C   UNL     1      -4.355  12.163  19.002  0.00  0.00    +0.000 A 
ATOM     29  C   UNL     1      -3.310  12.573  19.821  0.00  0.00    +0.000 A 
ATOM     30  C   UNL     1      -2.021  12.087  19.591  0.00  0.00    +0.000 A 
ATOM     31  C   UNL     1      -1.785  11.177  18.546  0.00  0.00    +0.000 A 
ENDBRANCH  24  31
ENDBRANCH   1  24
TORSDOF 5
ENDMDL
MODEL 5
REMARK VINA RESULT:      -8.3      0.580      2.200
REMARK  Name = 
REMARK  6 active torsions:
REMARK  status: ('A' for Active; 'I' for Inactive)
REMARK    1  A    between atoms: C_1  and  C_2
REMARK    2  A    between atoms: C_7  and  C_8
REMARK    3  A    between atoms: C_8  and  C_9
REMARK    4  A    between atoms: C_14  and  N_15
REMARK    5  A    between atoms: C_18  and  C_19
REMARK    6  A    between atoms: C_19  and  C_20
REMARK                            x       y       z     vdW  Elec       q    Type
REMARK                         _______ _______ _______ _____ _____    ______ ____
ROOT
ATOM      1  C   UNL     1       0.105   9.747  19.992  0.00  0.00    +0.000 C 
ATOM      2  O   UNL     1      -0.388   9.794  21.118  0.00  0.00    +0.000 OA
ATOM      3  N   UNL     1       1.220   8.962  19.696  0.00  0.00    +0.000 N 
ATOM      4  C   UNL     1       1.928   8.997  18.414  0.00  0.00    +0.000 C 
ATOM      5  C   UNL     1       1.860   7.633  17.760  0.00  0.00    +0.000 C 
ATOM      6  C   UNL     1       2.468   6.535  18.648  0.00  0.00    +0.000 C 
ATOM      7  C   UNL     1       1.822   6.595  20.056  0.00  0.00    +0.000 C 
ATOM      8  C   UNL     1       1.704   7.992  20.674  0.00  0.00    +0.000 C 
ENDROOT
BRANCH   6   9
ATOM      9  N   UNL     1       3.952   6.476  18.585  0.00  0.00    +0.000 NA
ATOM     10  C   UNL     1       4.627   5.393  19.287  0.00  0.00    +0.000 C 
ATOM     11  C   UNL     1       6.008   4.908  18.835  0.00  0.00    +0.000 C 
ATOM     12  C   UNL     1       6.328   5.138  17.361  0.00  0.00    +0.000 C 
ATOM     13  C   UNL     1       5.944   6.587  17.047  0.00  0.00    +0.000 C 
ATOM     14  C   UNL     1       4.460   6.864  17.273  0.00  0.00    +0.000 C 
BRANCH  12  15
ATOM     15  C   UNL     1       5.667   4.137  16.378  0.00  0.00    +0.000 C 
BRANCH  15  16
ATOM     16  C   UNL     1       6.063   4.176  14.909  0.00  0.00    +0.000 A 
ATOM     17  C   UNL     1       7.166   4.962  14.534  0.00  0.00    +0.000 A 
ATOM     18  C   UNL     1       7.615   4.986  13.205  0.00  0.00    +0.000 A 
ATOM     19 CL   UNL     1       8.969   5.958  12.778  0.00  0.00    +0.000 Cl
ATOM     20  C   UNL     1       6.983   4.225  12.232  0.00  0.00    +0.000 A 
ATOM     21  C   UNL     1       5.905   3.422  12.597  0.00  0.00    +0.000 A 
ATOM     22 CL   UNL     1       5.141   2.435  11.414  0.00  0.00    +0.000 Cl
ATOM     23  C   UNL     1       5.448   3.389  13.925  0.00  0.00    +0.000 A 
ENDBRANCH  15  16
ENDBRANCH  12  15
ENDBRANCH   6   9
BRANCH   1  24
ATOM     24  C   UNL     1      -0.451  10.498  18.801  0.00  0.00    +0.000 C 
BRANCH  24  31
ATOM     25  C   UNL     1      -2.943   9.945  17.230  0.00  0.00    +0.000 C 
ATOM     26  C   UNL     1      -2.900  10.983  18.321  0.00  0.00    +0.000 A 
ATOM     27  C   UNL     1      -4.087  11.629  18.699  0.00  0.00    +0.000 A 
ATOM     28  C   UNL     1      -4.087  12.578  19.722  0.00  0.00    +0.000 A 
ATOM     29  C   UNL     1      -2.905  12.910  20.372  0.00  0.00    +0.000 A 
ATOM     30  C   UNL     1      -1.717  12.267  20.018  0.00  0.00    +0.000 A 
ATOM     31  C   UNL     1      -1.720  11.279  19.018  0.00  0.00    +0.000 A 
ENDBRANCH  24  31
ENDBRANCH   1  24
TORSDOF 5
ENDMDL
MODEL 6
REMARK VINA RESULT:      -8.2      2.425      3.849
REMARK  Name = 
REMARK  6 active torsions:
REMARK  status: ('A' for Active; 'I' for Inactive)
REMARK    1  A    between atoms: C_1  and  C_2
REMARK    2  A    between atoms: C_7  and  C_8
REMARK    3  A    between atoms: C_8  and  C_9
REMARK    4  A    between atoms: C_14  and  N_15
REMARK    5  A    between atoms: C_18  and  C_19
REMARK    6  A    between atoms: C_19  and  C_20
REMARK                            x       y       z     vdW  Elec       q    Type
REMARK                         _______ _______ _______ _____ _____    ______ ____
ROOT
ATOM      1  C   UNL     1       0.555  11.147  19.543  0.00  0.00    +0.000 C 
ATOM      2  O   UNL     1       0.451  11.918  18.590  0.00  0.00    +0.000 OA
ATOM      3  N   UNL     1       0.792   9.781  19.377  0.00  0.00    +0.000 N 
ATOM      4  C   UNL     1       0.768   8.808  20.471  0.00  0.00    +0.000 C 
ATOM      5  C   UNL     1       2.130   8.158  20.602  0.00  0.00    +0.000 C 
ATOM      6  C   UNL     1       2.561   7.455  19.304  0.00  0.00    +0.000 C 
ATOM      7  C   UNL     1       2.444   8.446  18.118  0.00  0.00    +0.000 C 
ATOM      8  C   UNL     1       1.148   9.262  18.060  0.00  0.00    +0.000 C 
ENDROOT
BRANCH   6   9
ATOM      9  N   UNL     1       1.952   6.111  19.127  0.00  0.00    +0.000 NA
ATOM     10  C   UNL     1       2.016   5.495  17.809  0.00  0.00    +0.000 C 
ATOM     11  C   UNL     1       1.964   3.972  17.653  0.00  0.00    +0.000 C 
ATOM     12  C   UNL     1       2.458   3.178  18.858  0.00  0.00    +0.000 C 
ATOM     13  C   UNL     1       1.792   3.790  20.094  0.00  0.00    +0.000 C 
ATOM     14  C   UNL     1       2.160   5.258  20.294  0.00  0.00    +0.000 C 
BRANCH  12  15
ATOM     15  C   UNL     1       3.999   3.098  19.010  0.00  0.00    +0.000 C 
BRANCH  15  16
ATOM     16  C   UNL     1       4.876   3.902  18.059  0.00  0.00    +0.000 A 
ATOM     17  C   UNL     1       4.782   3.641  16.681  0.00  0.00    +0.000 A 
ATOM     18  C   UNL     1       5.519   4.393  15.754  0.00  0.00    +0.000 A 
ATOM     19 CL   UNL     1       5.382   4.050  14.074  0.00  0.00    +0.000 Cl
ATOM     20  C   UNL     1       6.352   5.418  16.179  0.00  0.00    +0.000 A 
ATOM     21  C   UNL     1       6.433   5.703  17.539  0.00  0.00    +0.000 A 
ATOM     22 CL   UNL     1       7.421   7.002  18.079  0.00  0.00    +0.000 Cl
ATOM     23  C   UNL     1       5.698   4.958  18.477  0.00  0.00    +0.000 A 
ENDBRANCH  15  16
ENDBRANCH  12  15
ENDBRANCH   6   9
BRANCH   1  24
ATOM     24  C   UNL     1       0.473  11.584  20.990  0.00  0.00    +0.000 C 
BRANCH  24  31
ATOM     25  C   UNL     1      -0.841  10.213  23.309  0.00  0.00    +0.000 C 
ATOM     26  C   UNL     1      -1.469  11.397  22.619  0.00  0.00    +0.000 A 
ATOM     27  C   UNL     1      -2.644  11.953  23.148  0.00  0.00    +0.000 A 
ATOM     28  C   UNL     1      -3.238  13.064  22.548  0.00  0.00    +0.000 A 
ATOM     29  C   UNL     1      -2.683  13.627  21.406  0.00  0.00    +0.000 A 
ATOM     30  C   UNL     1      -1.506  13.094  20.875  0.00  0.00    +0.000 A 
ATOM     31  C   UNL     1      -0.880  12.002  21.501  0.00  0.00    +0.000 A 
ENDBRANCH  24  31
ENDBRANCH   1  24
TORSDOF 5
ENDMDL
MODEL 7
REMARK VINA RESULT:      -8.1      4.338      9.528
REMARK  Name = 
REMARK  6 active torsions:
REMARK  status: ('A' for Active; 'I' for Inactive)
REMARK    1  A    between atoms: C_1  and  C_2
REMARK    2  A    between atoms: C_7  and  C_8
REMARK    3  A    between atoms: C_8  and  C_9
REMARK    4  A    between atoms: C_14  and  N_15
REMARK    5  A    between atoms: C_18  and  C_19
REMARK    6  A    between atoms: C_19  and  C_20
REMARK                            x       y       z     vdW  Elec       q    Type
REMARK                         _______ _______ _______ _____ _____    ______ ____
ROOT
ATOM      1  C   UNL     1       2.740   3.619  18.360  0.00  0.00    +0.000 C 
ATOM      2  O   UNL     1       2.564   2.589  19.009  0.00  0.00    +0.000 OA
ATOM      3  N   UNL     1       2.148   4.834  18.711  0.00  0.00    +0.000 N 
ATOM      4  C   UNL     1       2.204   6.040  17.883  0.00  0.00    +0.000 C 
ATOM      5  C   UNL     1       2.910   7.144  18.643  0.00  0.00    +0.000 C 
ATOM      6  C   UNL     1       2.210   7.470  19.972  0.00  0.00    +0.000 C 
ATOM      7  C   UNL     1       2.015   6.165  20.785  0.00  0.00    +0.000 C 
ATOM      8  C   UNL     1       1.474   4.966  19.999  0.00  0.00    +0.000 C 
ENDROOT
BRANCH   6   9
ATOM      9  N   UNL     1       1.025   8.354  19.816  0.00  0.00    +0.000 NA
ATOM     10  C   UNL     1       0.365   8.838  21.021  0.00  0.00    +0.000 C 
ATOM     11  C   UNL     1      -0.437  10.142  21.003  0.00  0.00    +0.000 C 
ATOM     12  C   UNL     1      -0.010  11.155  19.946  0.00  0.00    +0.000 C 
ATOM     13  C   UNL     1       0.127  10.386  18.628  0.00  0.00    +0.000 C 
ATOM     14  C   UNL     1       1.178   9.281  18.698  0.00  0.00    +0.000 C 
BRANCH  12  15
ATOM     15  C   UNL     1       1.272  11.960  20.282  0.00  0.00    +0.000 C 
BRANCH  15  16
ATOM     16  C   UNL     1       1.539  13.265  19.545  0.00  0.00    +0.000 A 
ATOM     17  C   UNL     1       0.516  14.228  19.499  0.00  0.00    +0.000 A 
ATOM     18  C   UNL     1       0.727  15.473  18.889  0.00  0.00    +0.000 A 
ATOM     19 CL   UNL     1      -0.547  16.630  18.848  0.00  0.00    +0.000 Cl
ATOM     20  C   UNL     1       1.955  15.786  18.325  0.00  0.00    +0.000 A 
ATOM     21  C   UNL     1       2.985  14.850  18.389  0.00  0.00    +0.000 A 
ATOM     22 CL   UNL     1       4.529  15.239  17.741  0.00  0.00    +0.000 Cl
ATOM     23  C   UNL     1       2.786  13.600  18.999  0.00  0.00    +0.000 A 
ENDBRANCH  15  16
ENDBRANCH  12  15
ENDBRANCH   6   9
BRANCH   1  24
ATOM     24  C   UNL     1       3.632   3.700  17.140  0.00  0.00    +0.000 C 
BRANCH  24  31
ATOM     25  C   UNL     1       5.489   4.236  14.849  0.00  0.00    +0.000 C 
ATOM     26  C   UNL     1       5.882   4.509  16.278  0.00  0.00    +0.000 A 
ATOM     27  C   UNL     1       7.106   5.142  16.542  0.00  0.00    +0.000 A 
ATOM     28  C   UNL     1       7.490   5.431  17.852  0.00  0.00    +0.000 A 
ATOM     29  C   UNL     1       6.672   5.080  18.918  0.00  0.00    +0.000 A 
ATOM     30  C   UNL     1       5.445   4.460  18.672  0.00  0.00    +0.000 A 
ATOM     31  C   UNL     1       5.034   4.207  17.352  0.00  0.00    +0.000 A 
ENDBRANCH  24  31
ENDBRANCH   1  24
TORSDOF 5
ENDMDL
MODEL 8
REMARK VINA RESULT:      -8.1      4.344      9.145
REMARK  Name = 
REMARK  6 active torsions:
REMARK  status: ('A' for Active; 'I' for Inactive)
REMARK    1  A    between atoms: C_1  and  C_2
REMARK    2  A    between atoms: C_7  and  C_8
REMARK    3  A    between atoms: C_8  and  C_9
REMARK    4  A    between atoms: C_14  and  N_15
REMARK    5  A    between atoms: C_18  and  C_19
REMARK    6  A    between atoms: C_19  and  C_20
REMARK                            x       y       z     vdW  Elec       q    Type
REMARK                         _______ _______ _______ _____ _____    ______ ____
ROOT
ATOM      1  C   UNL     1       5.415   4.463  19.020  0.00  0.00    +0.000 C 
ATOM      2  O   UNL     1       6.473   4.351  18.403  0.00  0.00    +0.000 OA
ATOM      3  N   UNL     1       4.646   5.627  18.980  0.00  0.00    +0.000 N 
ATOM      4  C   UNL     1       3.467   5.859  19.817  0.00  0.00    +0.000 C 
ATOM      5  C   UNL     1       2.249   6.045  18.937  0.00  0.00    +0.000 C 
ATOM      6  C   UNL     1       2.417   7.219  17.959  0.00  0.00    +0.000 C 
ATOM      7  C   UNL     1       3.744   7.050  17.175  0.00  0.00    +0.000 C 
ATOM      8  C   UNL     1       4.969   6.676  18.017  0.00  0.00    +0.000 C 
ENDROOT
BRANCH   6   9
ATOM      9  N   UNL     1       2.157   8.546  18.575  0.00  0.00    +0.000 NA
ATOM     10  C   UNL     1       1.706   9.629  17.712  0.00  0.00    +0.000 C 
ATOM     11  C   UNL     1       0.887  10.792  18.279  0.00  0.00    +0.000 C 
ATOM     12  C   UNL     1       0.079  10.469  19.532  0.00  0.00    +0.000 C 
ATOM     13  C   UNL     1       1.023   9.731  20.487  0.00  0.00    +0.000 C 
ATOM     14  C   UNL     1       1.552   8.426  19.898  0.00  0.00    +0.000 C 
BRANCH  12  15
ATOM     15  C   UNL     1      -1.232   9.679  19.288  0.00  0.00    +0.000 C 
BRANCH  15  16
ATOM     16  C   UNL     1      -2.201  10.170  18.221  0.00  0.00    +0.000 A 
ATOM     17  C   UNL     1      -3.226  11.053  18.604  0.00  0.00    +0.000 A 
ATOM     18  C   UNL     1      -4.109  11.586  17.654  0.00  0.00    +0.000 A 
ATOM     19 CL   UNL     1      -5.354  12.664  18.155  0.00  0.00    +0.000 Cl
ATOM     20  C   UNL     1      -3.983  11.262  16.311  0.00  0.00    +0.000 A 
ATOM     21  C   UNL     1      -2.955  10.410  15.916  0.00  0.00    +0.000 A 
ATOM     22 CL   UNL     1      -2.753  10.036  14.250  0.00  0.00    +0.000 Cl
ATOM     23  C   UNL     1      -2.063   9.870  16.859  0.00  0.00    +0.000 A 
ENDBRANCH  15  16
ENDBRANCH  12  15
ENDBRANCH   6   9
BRANCH   1  24
ATOM     24  C   UNL     1       4.811   3.357  19.858  0.00  0.00    +0.000 C 
BRANCH  24  31
ATOM     25  C   UNL     1       2.565   2.829  21.771  0.00  0.00    +0.000 C 
ATOM     26  C   UNL     1       2.421   2.604  20.288  0.00  0.00    +0.000 A 
ATOM     27  C   UNL     1       1.167   2.250  19.768  0.00  0.00    +0.000 A 
ATOM     28  C   UNL     1       0.994   2.058  18.397  0.00  0.00    +0.000 A 
ATOM     29  C   UNL     1       2.067   2.197  17.526  0.00  0.00    +0.000 A 
ATOM     30  C   UNL     1       3.319   2.561  18.027  0.00  0.00    +0.000 A 
ATOM     31  C   UNL     1       3.489   2.799  19.402  0.00  0.00    +0.000 A 
ENDBRANCH  24  31
ENDBRANCH   1  24
TORSDOF 5
ENDMDL
MODEL 9
REMARK VINA RESULT:      -8.0      2.623      4.684
REMARK  Name = 
REMARK  6 active torsions:
REMARK  status: ('A' for Active; 'I' for Inactive)
REMARK    1  A    between atoms: C_1  and  C_2
REMARK    2  A    between atoms: C_7  and  C_8
REMARK    3  A    between atoms: C_8  and  C_9
REMARK    4  A    between atoms: C_14  and  N_15
REMARK    5  A    between atoms: C_18  and  C_19
REMARK    6  A    between atoms: C_19  and  C_20
REMARK                            x       y       z     vdW  Elec       q    Type
REMARK                         _______ _______ _______ _____ _____    ______ ____
ROOT
ATOM      1  C   UNL     1      -0.778  11.161  20.655  0.00  0.00    +0.000 C 
ATOM      2  O   UNL     1      -1.100  12.000  19.815  0.00  0.00    +0.000 OA
ATOM      3  N   UNL     1      -0.268   9.910  20.306  0.00  0.00    +0.000 N 
ATOM      4  C   UNL     1      -0.021   8.830  21.264  0.00  0.00    +0.000 C 
ATOM      5  C   UNL     1       1.452   8.481  21.266  0.00  0.00    +0.000 C 
ATOM      6  C   UNL     1       1.945   8.050  19.875  0.00  0.00    +0.000 C 
ATOM      7  C   UNL     1       1.551   9.127  18.832  0.00  0.00    +0.000 C 
ATOM      8  C   UNL     1       0.111   9.642  18.921  0.00  0.00    +0.000 C 
ENDROOT
BRANCH   6   9
ATOM      9  N   UNL     1       1.625   6.636  19.544  0.00  0.00    +0.000 NA
ATOM     10  C   UNL     1       1.958   6.149  18.212  0.00  0.00    +0.000 C 
ATOM     11  C   UNL     1       2.211   4.659  17.965  0.00  0.00    +0.000 C 
ATOM     12  C   UNL     1       2.701   3.873  19.177  0.00  0.00    +0.000 C 
ATOM     13  C   UNL     1       1.792   4.255  20.348  0.00  0.00    +0.000 C 
ATOM     14  C   UNL     1       1.852   5.744  20.677  0.00  0.00    +0.000 C 
BRANCH  12  15
ATOM     15  C   UNL     1       4.201   4.060  19.522  0.00  0.00    +0.000 C 
BRANCH  15  16
ATOM     16  C   UNL     1       5.146   4.583  18.449  0.00  0.00    +0.000 A 
ATOM     17  C   UNL     1       6.065   5.588  18.800  0.00  0.00    +0.000 A 
ATOM     18  C   UNL     1       7.001   6.064  17.870  0.00  0.00    +0.000 A 
ATOM     19 CL   UNL     1       8.111   7.295  18.330  0.00  0.00    +0.000 Cl
ATOM     20  C   UNL     1       7.047   5.544  16.585  0.00  0.00    +0.000 A 
ATOM     21  C   UNL     1       6.160   4.530  16.234  0.00  0.00    +0.000 A 
ATOM     22 CL   UNL     1       6.235   3.839  14.661  0.00  0.00    +0.000 Cl
ATOM     23  C   UNL     1       5.219   4.044  17.157  0.00  0.00    +0.000 A 
ENDBRANCH  15  16
ENDBRANCH  12  15
ENDBRANCH   6   9
BRANCH   1  24
ATOM     24  C   UNL     1      -0.865  11.394  22.148  0.00  0.00    +0.000 C 
BRANCH  24  31
ATOM     25  C   UNL     1      -3.347  12.135  23.657  0.00  0.00    +0.000 C 
ATOM     26  C   UNL     1      -2.263  13.138  23.358  0.00  0.00    +0.000 A 
ATOM     27  C   UNL     1      -2.356  14.429  23.902  0.00  0.00    +0.000 A 
ATOM     28  C   UNL     1      -1.358  15.375  23.664  0.00  0.00    +0.000 A 
ATOM     29  C   UNL     1      -0.263  15.057  22.871  0.00  0.00    +0.000 A 
ATOM     30  C   UNL     1      -0.149  13.774  22.333  0.00  0.00    +0.000 A 
ATOM     31  C   UNL     1      -1.129  12.804  22.606  0.00  0.00    +0.000 A 
ENDBRANCH  24  31
ENDBRANCH   1  24
TORSDOF 5
ENDMDL
