MODEL 1
REMARK VINA RESULT:      -8.7      0.000      0.000
REMARK  Name = 
REMARK  9 active torsions:
REMARK  status: ('A' for Active; 'I' for Inactive)
REMARK    1  A    between atoms: C_1  and  C_2
REMARK    2  A    between atoms: C_4  and  C_5
REMARK    3  A    between atoms: N_9  and  C_10
REMARK    4  A    between atoms: C_10  and  C_11
REMARK    5  A    between atoms: C_10  and  C_12
REMARK    6  A    between atoms: C_12  and  O_13
REMARK    7  A    between atoms: C_12  and  C_14
REMARK    8  A    between atoms: C_12  and  C_20
REMARK    9  A    between atoms: C_14  and  N_15
REMARK                            x       y       z     vdW  Elec       q    Type
REMARK                         _______ _______ _______ _____ _____    ______ ____
ROOT
ATOM      1  C   UNL     1       4.079   5.018  18.645  0.00  0.00    +0.000 C 
ENDROOT
BRANCH   1   2
ATOM      2  C   UNL     1       3.188   4.065  19.475  0.00  0.00    +0.000 A 
ATOM      3  C   UNL     1       3.686   3.272  20.521  0.00  0.00    +0.000 A 
ATOM      4  C   UNL     1       2.829   2.644  21.430  0.00  0.00    +0.000 A 
ATOM      5  C   UNL     1       1.459   2.810  21.311  0.00  0.00    +0.000 A 
ATOM      6  F   UNL     1       0.650   2.293  22.243  0.00  0.00    +0.000 F 
ATOM      7  C   UNL     1       0.924   3.531  20.258  0.00  0.00    +0.000 A 
ATOM      8  C   UNL     1       1.786   4.124  19.340  0.00  0.00    +0.000 A 
ATOM      9  F   UNL     1       1.247   4.864  18.359  0.00  0.00    +0.000 F 
ENDBRANCH   1   2
BRANCH   1  10
ATOM     10  C   UNL     1       5.581   4.514  18.353  0.00  0.00    +0.000 C 
ATOM     11  C   UNL     1       6.639   5.159  19.270  0.00  0.00    +0.000 C 
BRANCH  10  20
ATOM     12  C   UNL     1       5.626   2.197  11.264  0.00  0.00    +0.000 C 
ATOM     13  C   UNL     1       6.122   3.137  12.320  0.00  0.00    +0.000 A 
ATOM     14  C   UNL     1       7.112   4.091  12.060  0.00  0.00    +0.000 A 
ATOM     15  C   UNL     1       7.551   4.977  13.066  0.00  0.00    +0.000 A 
ATOM     16  C   UNL     1       8.607   5.999  12.742  0.00  0.00    +0.000 C 
ATOM     17  C   UNL     1       6.989   4.901  14.354  0.00  0.00    +0.000 A 
ATOM     18  N   UNL     1       7.392   5.792  15.366  0.00  0.00    +0.000 NA
ATOM     19  C   UNL     1       6.902   5.612  16.554  0.00  0.00    +0.000 A 
ATOM     20  N   UNL     1       6.024   4.621  16.931  0.00  0.00    +0.000 N 
ATOM     21  C   UNL     1       5.402   3.879  15.932  0.00  0.00    +0.000 A 
ATOM     22  O   UNL     1       4.357   3.245  16.066  0.00  0.00    +0.000 OA
ATOM     23  C   UNL     1       6.007   3.942  14.597  0.00  0.00    +0.000 A 
ATOM     24  C   UNL     1       5.572   3.067  13.597  0.00  0.00    +0.000 A 
ENDBRANCH  10  20
ENDBRANCH   1  10
BRANCH   1  25
ATOM     25  O   UNL     1       3.430   5.229  17.380  0.00  0.00    +0.000 OA
ATOM     26  H   UNL     1       2.464   5.232  17.487  0.00  0.00    +0.000 HD
ENDBRANCH   1  25
BRANCH   1  27
ATOM     27  C   UNL     1       4.084   6.410  19.373  0.00  0.00    +0.000 C 
BRANCH  27  28
ATOM     28  N   UNL     1       3.086   7.344  18.904  0.00  0.00    +0.000 N 
ATOM     29  C   UNL     1       2.013   7.826  19.589  0.00  0.00    +0.000 A 
ATOM     30  N   UNL     1       1.416   8.748  18.872  0.00  0.00    +0.000 NA
ATOM     31  C   UNL     1       2.164   8.783  17.731  0.00  0.00    +0.000 A 
ATOM     32  N   UNL     1       3.194   7.930  17.699  0.00  0.00    +0.000 NA
ENDBRANCH  27  28
ENDBRANCH   1  27
TORSDOF 6
ENDMDL
MODEL 2
REMARK VINA RESULT:      -8.4      2.719      7.686
REMARK  Name = 
REMARK  9 active torsions:
REMARK  status: ('A' for Active; 'I' for Inactive)
REMARK    1  A    between atoms: C_1  and  C_2
REMARK    2  A    between atoms: C_4  and  C_5
REMARK    3  A    between atoms: N_9  and  C_10
REMARK    4  A    between atoms: C_10  and  C_11
REMARK    5  A    between atoms: C_10  and  C_12
REMARK    6  A    between atoms: C_12  and  O_13
REMARK    7  A    between atoms: C_12  and  C_14
REMARK    8  A    between atoms: C_12  and  C_20
REMARK    9  A    between atoms: C_14  and  N_15
REMARK                            x       y       z     vdW  Elec       q    Type
REMARK                         _______ _______ _______ _____ _____    ______ ____
ROOT
ATOM      1  C   UNL     1       5.452   5.432  16.565  0.00  0.00    +0.000 C 
ENDROOT
BRANCH   1   2
ATOM      2  C   UNL     1       6.627   6.249  17.152  0.00  0.00    +0.000 A 
ATOM      3  C   UNL     1       6.902   7.572  16.774  0.00  0.00    +0.000 A 
ATOM      4  C   UNL     1       7.777   8.374  17.512  0.00  0.00    +0.000 A 
ATOM      5  C   UNL     1       8.382   7.865  18.650  0.00  0.00    +0.000 A 
ATOM      6  F   UNL     1       9.136   8.669  19.409  0.00  0.00    +0.000 F 
ATOM      7  C   UNL     1       8.189   6.547  19.023  0.00  0.00    +0.000 A 
ATOM      8  C   UNL     1       7.341   5.748  18.260  0.00  0.00    +0.000 A 
ATOM      9  F   UNL     1       7.125   4.489  18.672  0.00  0.00    +0.000 F 
ENDBRANCH   1   2
BRANCH   1  10
ATOM     10  C   UNL     1       4.243   5.101  17.574  0.00  0.00    +0.000 C 
ATOM     11  C   UNL     1       3.273   4.025  17.047  0.00  0.00    +0.000 C 
BRANCH  10  20
ATOM     12  C   UNL     1      -0.154   8.576  22.497  0.00  0.00    +0.000 C 
ATOM     13  C   UNL     1       0.575   8.578  21.188  0.00  0.00    +0.000 A 
ATOM     14  C   UNL     1       0.472   9.639  20.281  0.00  0.00    +0.000 A 
ATOM     15  C   UNL     1       1.182   9.626  19.062  0.00  0.00    +0.000 A 
ATOM     16  C   UNL     1       1.058  10.794  18.122  0.00  0.00    +0.000 C 
ATOM     17  C   UNL     1       2.004   8.528  18.747  0.00  0.00    +0.000 A 
ATOM     18  N   UNL     1       2.742   8.505  17.549  0.00  0.00    +0.000 NA
ATOM     19  C   UNL     1       3.409   7.426  17.277  0.00  0.00    +0.000 A 
ATOM     20  N   UNL     1       3.463   6.285  18.045  0.00  0.00    +0.000 N 
ATOM     21  C   UNL     1       2.967   6.344  19.343  0.00  0.00    +0.000 A 
ATOM     22  O   UNL     1       3.265   5.571  20.251  0.00  0.00    +0.000 OA
ATOM     23  C   UNL     1       2.091   7.477  19.659  0.00  0.00    +0.000 A 
ATOM     24  C   UNL     1       1.388   7.494  20.868  0.00  0.00    +0.000 A 
ENDBRANCH  10  20
ENDBRANCH   1  10
BRANCH   1  25
ATOM     25  O   UNL     1       4.915   6.178  15.459  0.00  0.00    +0.000 OA
ATOM     26  H   UNL     1       4.860   7.124  15.677  0.00  0.00    +0.000 HD
ENDBRANCH   1  25
BRANCH   1  27
ATOM     27  C   UNL     1       6.053   4.115  15.954  0.00  0.00    +0.000 C 
BRANCH  27  28
ATOM     28  N   UNL     1       6.570   4.250  14.612  0.00  0.00    +0.000 N 
ATOM     29  C   UNL     1       6.131   3.623  13.486  0.00  0.00    +0.000 A 
ATOM     30  N   UNL     1       6.768   4.101  12.443  0.00  0.00    +0.000 NA
ATOM     31  C   UNL     1       7.611   5.022  12.994  0.00  0.00    +0.000 A 
ATOM     32  N   UNL     1       7.535   5.140  14.324  0.00  0.00    +0.000 NA
ENDBRANCH  27  28
ENDBRANCH   1  27
TORSDOF 6
ENDMDL
MODEL 3
REMARK VINA RESULT:      -8.0      5.090      8.411
REMARK  Name = 
REMARK  9 active torsions:
REMARK  status: ('A' for Active; 'I' for Inactive)
REMARK    1  A    between atoms: C_1  and  C_2
REMARK    2  A    between atoms: C_4  and  C_5
REMARK    3  A    between atoms: N_9  and  C_10
REMARK    4  A    between atoms: C_10  and  C_11
REMARK    5  A    between atoms: C_10  and  C_12
REMARK    6  A    between atoms: C_12  and  O_13
REMARK    7  A    between atoms: C_12  and  C_14
REMARK    8  A    between atoms: C_12  and  C_20
REMARK    9  A    between atoms: C_14  and  N_15
REMARK                            x       y       z     vdW  Elec       q    Type
REMARK                         _______ _______ _______ _____ _____    ______ ____
ROOT
ATOM      1  C   UNL     1      -0.927  11.244  19.653  0.00  0.00    +0.000 C 
ENDROOT
BRANCH   1   2
ATOM      2  C   UNL     1      -1.732  11.982  20.748  0.00  0.00    +0.000 A 
ATOM      3  C   UNL     1      -2.910  12.696  20.478  0.00  0.00    +0.000 A 
ATOM      4  C   UNL     1      -3.763  13.109  21.506  0.00  0.00    +0.000 A 
ATOM      5  C   UNL     1      -3.455  12.800  22.821  0.00  0.00    +0.000 A 
ATOM      6  F   UNL     1      -4.326  13.105  23.790  0.00  0.00    +0.000 F 
ATOM      7  C   UNL     1      -2.273  12.153  23.136  0.00  0.00    +0.000 A 
ATOM      8  C   UNL     1      -1.415  11.777  22.106  0.00  0.00    +0.000 A 
ATOM      9  F   UNL     1      -0.302  11.102  22.431  0.00  0.00    +0.000 F 
ENDBRANCH   1   2
BRANCH   1  10
ATOM     10  C   UNL     1       0.662  11.132  19.893  0.00  0.00    +0.000 C 
ATOM     11  C   UNL     1       1.467  12.276  19.247  0.00  0.00    +0.000 C 
BRANCH  10  20
ATOM     12  C   UNL     1       2.471   4.041  21.335  0.00  0.00    +0.000 C 
ATOM     13  C   UNL     1       2.507   5.223  20.414  0.00  0.00    +0.000 A 
ATOM     14  C   UNL     1       3.212   5.202  19.206  0.00  0.00    +0.000 A 
ATOM     15  C   UNL     1       3.218   6.322  18.348  0.00  0.00    +0.000 A 
ATOM     16  C   UNL     1       3.975   6.255  17.050  0.00  0.00    +0.000 C 
ATOM     17  C   UNL     1       2.507   7.481  18.711  0.00  0.00    +0.000 A 
ATOM     18  N   UNL     1       2.476   8.600  17.858  0.00  0.00    +0.000 NA
ATOM     19  C   UNL     1       1.878   9.667  18.292  0.00  0.00    +0.000 A 
ATOM     20  N   UNL     1       1.272   9.821  19.518  0.00  0.00    +0.000 N 
ATOM     21  C   UNL     1       1.051   8.684  20.288  0.00  0.00    +0.000 A 
ATOM     22  O   UNL     1       0.223   8.590  21.192  0.00  0.00    +0.000 OA
ATOM     23  C   UNL     1       1.813   7.486  19.921  0.00  0.00    +0.000 A 
ATOM     24  C   UNL     1       1.808   6.374  20.768  0.00  0.00    +0.000 A 
ENDBRANCH  10  20
ENDBRANCH   1  10
BRANCH   1  25
ATOM     25  O   UNL     1      -1.454   9.910  19.551  0.00  0.00    +0.000 OA
ATOM     26  H   UNL     1      -1.913   9.787  18.703  0.00  0.00    +0.000 HD
ENDBRANCH   1  25
BRANCH   1  27
ATOM     27  C   UNL     1      -1.241  11.946  18.283  0.00  0.00    +0.000 C 
BRANCH  27  28
ATOM     28  N   UNL     1      -2.141  11.217  17.420  0.00  0.00    +0.000 N 
ATOM     29  C   UNL     1      -3.416  11.550  17.077  0.00  0.00    +0.000 A 
ATOM     30  N   UNL     1      -3.860  10.708  16.174  0.00  0.00    +0.000 NA
ATOM     31  C   UNL     1      -2.809   9.854  16.008  0.00  0.00    +0.000 A 
ATOM     32  N   UNL     1      -1.735  10.119  16.760  0.00  0.00    +0.000 NA
ENDBRANCH  27  28
ENDBRANCH   1  27
TORSDOF 6
ENDMDL
MODEL 4
REMARK VINA RESULT:      -7.9      2.873      7.516
REMARK  Name = 
REMARK  9 active torsions:
REMARK  status: ('A' for Active; 'I' for Inactive)
REMARK    1  A    between atoms: C_1  and  C_2
REMARK    2  A    between atoms: C_4  and  C_5
REMARK    3  A    between atoms: N_9  and  C_10
REMARK    4  A    between atoms: C_10  and  C_11
REMARK    5  A    between atoms: C_10  and  C_12
REMARK    6  A    between atoms: C_12  and  O_13
REMARK    7  A    between atoms: C_12  and  C_14
REMARK    8  A    between atoms: C_12  and  C_20
REMARK    9  A    between atoms: C_14  and  N_15
REMARK                            x       y       z     vdW  Elec       q    Type
REMARK                         _______ _______ _______ _____ _____    ______ ____
ROOT
ATOM      1  C   UNL     1       4.226   4.448  17.484  0.00  0.00    +0.000 C 
ENDROOT
BRANCH   1   2
ATOM      2  C   UNL     1       5.122   4.312  16.231  0.00  0.00    +0.000 A 
ATOM      3  C   UNL     1       4.608   4.283  14.925  0.00  0.00    +0.000 A 
ATOM      4  C   UNL     1       5.438   4.445  13.811  0.00  0.00    +0.000 A 
ATOM      5  C   UNL     1       6.796   4.651  13.991  0.00  0.00    +0.000 A 
ATOM      6  F   UNL     1       7.569   4.909  12.929  0.00  0.00    +0.000 F 
ATOM      7  C   UNL     1       7.354   4.624  15.257  0.00  0.00    +0.000 A 
ATOM      8  C   UNL     1       6.522   4.428  16.356  0.00  0.00    +0.000 A 
ATOM      9  F   UNL     1       7.075   4.460  17.578  0.00  0.00    +0.000 F 
ENDBRANCH   1   2
BRANCH   1  10
ATOM     10  C   UNL     1       4.639   5.601  18.530  0.00  0.00    +0.000 C 
ATOM     11  C   UNL     1       5.444   5.082  19.737  0.00  0.00    +0.000 C 
BRANCH  10  20
ATOM     12  C   UNL     1       0.404  11.734  18.225  0.00  0.00    +0.000 C 
ATOM     13  C   UNL     1       0.754  10.436  18.888  0.00  0.00    +0.000 A 
ATOM     14  C   UNL     1       0.127  10.009  20.063  0.00  0.00    +0.000 A 
ATOM     15  C   UNL     1       0.461   8.775  20.659  0.00  0.00    +0.000 A 
ATOM     16  C   UNL     1      -0.249   8.343  21.913  0.00  0.00    +0.000 C 
ATOM     17  C   UNL     1       1.445   7.960  20.068  0.00  0.00    +0.000 A 
ATOM     18  N   UNL     1       1.776   6.713  20.630  0.00  0.00    +0.000 NA
ATOM     19  C   UNL     1       2.753   6.052  20.089  0.00  0.00    +0.000 A 
ATOM     20  N   UNL     1       3.513   6.455  19.014  0.00  0.00    +0.000 N 
ATOM     21  C   UNL     1       3.072   7.544  18.269  0.00  0.00    +0.000 A 
ATOM     22  O   UNL     1       3.403   7.792  17.111  0.00  0.00    +0.000 OA
ATOM     23  C   UNL     1       2.065   8.404  18.900  0.00  0.00    +0.000 A 
ATOM     24  C   UNL     1       1.729   9.626  18.310  0.00  0.00    +0.000 A 
ENDBRANCH  10  20
ENDBRANCH   1  10
BRANCH   1  25
ATOM     25  O   UNL     1       2.888   4.717  17.034  0.00  0.00    +0.000 OA
ATOM     26  H   UNL     1       2.854   4.761  16.064  0.00  0.00    +0.000 HD
ENDBRANCH   1  25
BRANCH   1  27
ATOM     27  C   UNL     1       4.179   3.043  18.184  0.00  0.00    +0.000 C 
BRANCH  27  28
ATOM     28  N   UNL     1       2.896   2.685  18.743  0.00  0.00    +0.000 N 
ATOM     29  C   UNL     1       2.518   2.727  20.050  0.00  0.00    +0.000 A 
ATOM     30  N   UNL     1       1.239   2.451  20.144  0.00  0.00    +0.000 NA
ATOM     31  C   UNL     1       0.876   2.229  18.847  0.00  0.00    +0.000 A 
ATOM     32  N   UNL     1       1.862   2.349  17.952  0.00  0.00    +0.000 NA
ENDBRANCH  27  28
ENDBRANCH   1  27
TORSDOF 6
ENDMDL
MODEL 5
REMARK VINA RESULT:      -7.9      1.322      1.614
REMARK  Name = 
REMARK  9 active torsions:
REMARK  status: ('A' for Active; 'I' for Inactive)
REMARK    1  A    between atoms: C_1  and  C_2
REMARK    2  A    between atoms: C_4  and  C_5
REMARK    3  A    between atoms: N_9  and  C_10
REMARK    4  A    between atoms: C_10  and  C_11
REMARK    5  A    between atoms: C_10  and  C_12
REMARK    6  A    between atoms: C_12  and  O_13
REMARK    7  A    between atoms: C_12  and  C_14
REMARK    8  A    between atoms: C_12  and  C_20
REMARK    9  A    between atoms: C_14  and  N_15
REMARK                            x       y       z     vdW  Elec       q    Type
REMARK                         _______ _______ _______ _____ _____    ______ ____
ROOT
ATOM      1  C   UNL     1       3.895   5.452  18.481  0.00  0.00    +0.000 C 
ENDROOT
BRANCH   1   2
ATOM      2  C   UNL     1       2.787   4.405  18.743  0.00  0.00    +0.000 A 
ATOM      3  C   UNL     1       1.535   4.444  18.111  0.00  0.00    +0.000 A 
ATOM      4  C   UNL     1       0.667   3.348  18.142  0.00  0.00    +0.000 A 
ATOM      5  C   UNL     1       1.049   2.189  18.799  0.00  0.00    +0.000 A 
ATOM      6  F   UNL     1       0.261   1.109  18.738  0.00  0.00    +0.000 F 
ATOM      7  C   UNL     1       2.247   2.129  19.488  0.00  0.00    +0.000 A 
ATOM      8  C   UNL     1       3.087   3.239  19.477  0.00  0.00    +0.000 A 
ATOM      9  F   UNL     1       4.268   3.140  20.106  0.00  0.00    +0.000 F 
ENDBRANCH   1   2
BRANCH   1  10
ATOM     10  C   UNL     1       5.387   4.876  18.291  0.00  0.00    +0.000 C 
ATOM     11  C   UNL     1       6.424   5.526  19.229  0.00  0.00    +0.000 C 
BRANCH  10  20
ATOM     12  C   UNL     1       5.550   2.321  11.286  0.00  0.00    +0.000 C 
ATOM     13  C   UNL     1       6.079   3.249  12.336  0.00  0.00    +0.000 A 
ATOM     14  C   UNL     1       7.164   4.101  12.097  0.00  0.00    +0.000 A 
ATOM     15  C   UNL     1       7.634   4.978  13.096  0.00  0.00    +0.000 A 
ATOM     16  C   UNL     1       8.793   5.890  12.794  0.00  0.00    +0.000 C 
ATOM     17  C   UNL     1       7.009   4.998  14.357  0.00  0.00    +0.000 A 
ATOM     18  N   UNL     1       7.443   5.884  15.360  0.00  0.00    +0.000 NA
ATOM     19  C   UNL     1       6.884   5.789  16.526  0.00  0.00    +0.000 A 
ATOM     20  N   UNL     1       5.903   4.894  16.890  0.00  0.00    +0.000 N 
ATOM     21  C   UNL     1       5.263   4.177  15.884  0.00  0.00    +0.000 A 
ATOM     22  O   UNL     1       4.160   3.644  15.986  0.00  0.00    +0.000 OA
ATOM     23  C   UNL     1       5.933   4.139  14.580  0.00  0.00    +0.000 A 
ATOM     24  C   UNL     1       5.467   3.272  13.586  0.00  0.00    +0.000 A 
ENDBRANCH  10  20
ENDBRANCH   1  10
BRANCH   1  25
ATOM     25  O   UNL     1       3.541   6.169  17.286  0.00  0.00    +0.000 OA
ATOM     26  H   UNL     1       4.231   6.814  17.055  0.00  0.00    +0.000 HD
ENDBRANCH   1  25
BRANCH   1  27
ATOM     27  C   UNL     1       3.839   6.498  19.652  0.00  0.00    +0.000 C 
BRANCH  27  28
ATOM     28  N   UNL     1       2.706   7.393  19.613  0.00  0.00    +0.000 N 
ATOM     29  C   UNL     1       1.795   7.623  20.598  0.00  0.00    +0.000 A 
ATOM     30  N   UNL     1       0.994   8.596  20.233  0.00  0.00    +0.000 NA
ATOM     31  C   UNL     1       1.452   8.922  18.990  0.00  0.00    +0.000 A 
ATOM     32  N   UNL     1       2.495   8.203  18.561  0.00  0.00    +0.000 NA
ENDBRANCH  27  28
ENDBRANCH   1  27
TORSDOF 6
ENDMDL
MODEL 6
REMARK VINA RESULT:      -7.7      2.299      7.289
REMARK  Name = 
REMARK  9 active torsions:
REMARK  status: ('A' for Active; 'I' for Inactive)
REMARK    1  A    between atoms: C_1  and  C_2
REMARK    2  A    between atoms: C_4  and  C_5
REMARK    3  A    between atoms: N_9  and  C_10
REMARK    4  A    between atoms: C_10  and  C_11
REMARK    5  A    between atoms: C_10  and  C_12
REMARK    6  A    between atoms: C_12  and  O_13
REMARK    7  A    between atoms: C_12  and  C_14
REMARK    8  A    between atoms: C_12  and  C_20
REMARK    9  A    between atoms: C_14  and  N_15
REMARK                            x       y       z     vdW  Elec       q    Type
REMARK                         _______ _______ _______ _____ _____    ______ ____
ROOT
ATOM      1  C   UNL     1       3.760   5.200  18.478  0.00  0.00    +0.000 C 
ENDROOT
BRANCH   1   2
ATOM      2  C   UNL     1       2.968   4.235  19.390  0.00  0.00    +0.000 A 
ATOM      3  C   UNL     1       3.414   3.848  20.663  0.00  0.00    +0.000 A 
ATOM      4  C   UNL     1       2.563   3.213  21.572  0.00  0.00    +0.000 A 
ATOM      5  C   UNL     1       1.245   2.967  21.223  0.00  0.00    +0.000 A 
ATOM      6  F   UNL     1       0.408   2.455  22.133  0.00  0.00    +0.000 F 
ATOM      7  C   UNL     1       0.781   3.275  19.957  0.00  0.00    +0.000 A 
ATOM      8  C   UNL     1       1.648   3.876  19.049  0.00  0.00    +0.000 A 
ATOM      9  F   UNL     1       1.161   4.216  17.845  0.00  0.00    +0.000 F 
ENDBRANCH   1   2
BRANCH   1  10
ATOM     10  C   UNL     1       2.925   6.419  17.837  0.00  0.00    +0.000 C 
ATOM     11  C   UNL     1       3.727   7.250  16.817  0.00  0.00    +0.000 C 
BRANCH  10  20
ATOM     12  C   UNL     1       0.155  13.041  19.865  0.00  0.00    +0.000 C 
ATOM     13  C   UNL     1       0.497  11.623  20.207  0.00  0.00    +0.000 A 
ATOM     14  C   UNL     1       0.335  11.110  21.499  0.00  0.00    +0.000 A 
ATOM     15  C   UNL     1       0.647   9.767  21.794  0.00  0.00    +0.000 A 
ATOM     16  C   UNL     1       0.443   9.250  23.192  0.00  0.00    +0.000 C 
ATOM     17  C   UNL     1       1.135   8.926  20.776  0.00  0.00    +0.000 A 
ATOM     18  N   UNL     1       1.428   7.575  21.040  0.00  0.00    +0.000 NA
ATOM     19  C   UNL     1       1.958   6.878  20.083  0.00  0.00    +0.000 A 
ATOM     20  N   UNL     1       2.274   7.333  18.822  0.00  0.00    +0.000 N 
ATOM     21  C   UNL     1       1.779   8.572  18.428  0.00  0.00    +0.000 A 
ATOM     22  O   UNL     1       1.649   8.945  17.264  0.00  0.00    +0.000 OA
ATOM     23  C   UNL     1       1.295   9.454  19.495  0.00  0.00    +0.000 A 
ATOM     24  C   UNL     1       0.982  10.785  19.206  0.00  0.00    +0.000 A 
ENDBRANCH  10  20
ENDBRANCH   1  10
BRANCH   1  25
ATOM     25  O   UNL     1       4.828   5.760  19.262  0.00  0.00    +0.000 OA
ATOM     26  H   UNL     1       4.482   6.156  20.079  0.00  0.00    +0.000 HD
ENDBRANCH   1  25
BRANCH   1  27
ATOM     27  C   UNL     1       4.444   4.336  17.359  0.00  0.00    +0.000 C 
BRANCH  27  28
ATOM     28  N   UNL     1       5.883   4.446  17.301  0.00  0.00    +0.000 N 
ATOM     29  C   UNL     1       6.645   4.841  16.244  0.00  0.00    +0.000 A 
ATOM     30  N   UNL     1       7.898   4.936  16.620  0.00  0.00    +0.000 NA
ATOM     31  C   UNL     1       7.854   4.568  17.933  0.00  0.00    +0.000 A 
ATOM     32  N   UNL     1       6.641   4.247  18.394  0.00  0.00    +0.000 NA
ENDBRANCH  27  28
ENDBRANCH   1  27
TORSDOF 6
ENDMDL
MODEL 7
REMARK VINA RESULT:      -7.6      3.214      7.374
REMARK  Name = 
REMARK  9 active torsions:
REMARK  status: ('A' for Active; 'I' for Inactive)
REMARK    1  A    between atoms: C_1  and  C_2
REMARK    2  A    between atoms: C_4  and  C_5
REMARK    3  A    between atoms: N_9  and  C_10
REMARK    4  A    between atoms: C_10  and  C_11
REMARK    5  A    between atoms: C_10  and  C_12
REMARK    6  A    between atoms: C_12  and  O_13
REMARK    7  A    between atoms: C_12  and  C_14
REMARK    8  A    between atoms: C_12  and  C_20
REMARK    9  A    between atoms: C_14  and  N_15
REMARK                            x       y       z     vdW  Elec       q    Type
REMARK                         _______ _______ _______ _____ _____    ______ ____
ROOT
ATOM      1  C   UNL     1       4.004   5.529  18.619  0.00  0.00    +0.000 C 
ENDROOT
BRANCH   1   2
ATOM      2  C   UNL     1       3.201   4.229  18.857  0.00  0.00    +0.000 A 
ATOM      3  C   UNL     1       2.679   3.873  20.109  0.00  0.00    +0.000 A 
ATOM      4  C   UNL     1       1.729   2.855  20.241  0.00  0.00    +0.000 A 
ATOM      5  C   UNL     1       1.279   2.186  19.114  0.00  0.00    +0.000 A 
ATOM      6  F   UNL     1       0.296   1.286  19.232  0.00  0.00    +0.000 F 
ATOM      7  C   UNL     1       1.814   2.461  17.868  0.00  0.00    +0.000 A 
ATOM      8  C   UNL     1       2.783   3.454  17.755  0.00  0.00    +0.000 A 
ATOM      9  F   UNL     1       3.248   3.743  16.530  0.00  0.00    +0.000 F 
ENDBRANCH   1   2
BRANCH   1  10
ATOM     10  C   UNL     1       3.204   6.739  17.919  0.00  0.00    +0.000 C 
ATOM     11  C   UNL     1       4.093   7.641  17.039  0.00  0.00    +0.000 C 
BRANCH  10  20
ATOM     12  C   UNL     1      -0.357  13.057  19.662  0.00  0.00    +0.000 C 
ATOM     13  C   UNL     1       0.102  11.684  20.046  0.00  0.00    +0.000 A 
ATOM     14  C   UNL     1      -0.097  11.166  21.331  0.00  0.00    +0.000 A 
ATOM     15  C   UNL     1       0.329   9.864  21.665  0.00  0.00    +0.000 A 
ATOM     16  C   UNL     1       0.082   9.338  23.053  0.00  0.00    +0.000 C 
ATOM     17  C   UNL     1       0.969   9.070  20.694  0.00  0.00    +0.000 A 
ATOM     18  N   UNL     1       1.379   7.758  20.996  0.00  0.00    +0.000 NA
ATOM     19  C   UNL     1       2.042   7.113  20.087  0.00  0.00    +0.000 A 
ATOM     20  N   UNL     1       2.397   7.589  18.845  0.00  0.00    +0.000 N 
ATOM     21  C   UNL     1       1.807   8.768  18.401  0.00  0.00    +0.000 A 
ATOM     22  O   UNL     1       1.722   9.119  17.226  0.00  0.00    +0.000 OA
ATOM     23  C   UNL     1       1.164   9.603  19.420  0.00  0.00    +0.000 A 
ATOM     24  C   UNL     1       0.738  10.894  19.092  0.00  0.00    +0.000 A 
ENDBRANCH  10  20
ENDBRANCH   1  10
BRANCH   1  25
ATOM     25  O   UNL     1       4.474   5.990  19.897  0.00  0.00    +0.000 OA
ATOM     26  H   UNL     1       4.359   6.951  19.979  0.00  0.00    +0.000 HD
ENDBRANCH   1  25
BRANCH   1  27
ATOM     27  C   UNL     1       5.284   5.148  17.792  0.00  0.00    +0.000 C 
BRANCH  27  28
ATOM     28  N   UNL     1       6.533   5.579  18.375  0.00  0.00    +0.000 N 
ATOM     29  C   UNL     1       7.291   6.653  18.016  0.00  0.00    +0.000 A 
ATOM     30  N   UNL     1       8.284   6.789  18.863  0.00  0.00    +0.000 NA
ATOM     31  C   UNL     1       8.097   5.749  19.726  0.00  0.00    +0.000 A 
ATOM     32  N   UNL     1       7.042   4.971  19.460  0.00  0.00    +0.000 NA
ENDBRANCH  27  28
ENDBRANCH   1  27
TORSDOF 6
ENDMDL
MODEL 8
REMARK VINA RESULT:      -7.6      5.280      8.339
REMARK  Name = 
REMARK  9 active torsions:
REMARK  status: ('A' for Active; 'I' for Inactive)
REMARK    1  A    between atoms: C_1  and  C_2
REMARK    2  A    between atoms: C_4  and  C_5
REMARK    3  A    between atoms: N_9  and  C_10
REMARK    4  A    between atoms: C_10  and  C_11
REMARK    5  A    between atoms: C_10  and  C_12
REMARK    6  A    between atoms: C_12  and  O_13
REMARK    7  A    between atoms: C_12  and  C_14
REMARK    8  A    between atoms: C_12  and  C_20
REMARK    9  A    between atoms: C_14  and  N_15
REMARK                            x       y       z     vdW  Elec       q    Type
REMARK                         _______ _______ _______ _____ _____    ______ ____
ROOT
ATOM      1  C   UNL     1      -0.054  12.041  20.008  0.00  0.00    +0.000 C 
ENDROOT
BRANCH   1   2
ATOM      2  C   UNL     1      -1.122  11.876  21.114  0.00  0.00    +0.000 A 
ATOM      3  C   UNL     1      -0.864  11.235  22.336  0.00  0.00    +0.000 A 
ATOM      4  C   UNL     1      -1.742  11.346  23.418  0.00  0.00    +0.000 A 
ATOM      5  C   UNL     1      -2.889  12.113  23.296  0.00  0.00    +0.000 A 
ATOM      6  F   UNL     1      -3.672  12.301  24.364  0.00  0.00    +0.000 F 
ATOM      7  C   UNL     1      -3.215  12.710  22.090  0.00  0.00    +0.000 A 
ATOM      8  C   UNL     1      -2.349  12.564  21.010  0.00  0.00    +0.000 A 
ATOM      9  F   UNL     1      -2.656  13.197  19.868  0.00  0.00    +0.000 F 
ENDBRANCH   1   2
BRANCH   1  10
ATOM     10  C   UNL     1      -0.107  10.974  18.804  0.00  0.00    +0.000 C 
ATOM     11  C   UNL     1      -1.539  10.587  18.383  0.00  0.00    +0.000 C 
BRANCH  10  20
ATOM     12  C   UNL     1       5.002   5.985  16.649  0.00  0.00    +0.000 C 
ATOM     13  C   UNL     1       3.983   6.443  17.648  0.00  0.00    +0.000 A 
ATOM     14  C   UNL     1       3.649   5.680  18.772  0.00  0.00    +0.000 A 
ATOM     15  C   UNL     1       2.699   6.140  19.708  0.00  0.00    +0.000 A 
ATOM     16  C   UNL     1       2.379   5.297  20.912  0.00  0.00    +0.000 C 
ATOM     17  C   UNL     1       2.072   7.385  19.509  0.00  0.00    +0.000 A 
ATOM     18  N   UNL     1       1.141   7.876  20.443  0.00  0.00    +0.000 NA
ATOM     19  C   UNL     1       0.533   8.986  20.156  0.00  0.00    +0.000 A 
ATOM     20  N   UNL     1       0.702   9.736  19.014  0.00  0.00    +0.000 N 
ATOM     21  C   UNL     1       1.779   9.438  18.186  0.00  0.00    +0.000 A 
ATOM     22  O   UNL     1       2.278  10.208  17.368  0.00  0.00    +0.000 OA
ATOM     23  C   UNL     1       2.413   8.130  18.380  0.00  0.00    +0.000 A 
ATOM     24  C   UNL     1       3.357   7.672  17.456  0.00  0.00    +0.000 A 
ENDBRANCH  10  20
ENDBRANCH   1  10
BRANCH   1  25
ATOM     25  O   UNL     1      -0.213  13.354  19.444  0.00  0.00    +0.000 OA
ATOM     26  H   UNL     1      -1.106  13.464  19.075  0.00  0.00    +0.000 HD
ENDBRANCH   1  25
BRANCH   1  27
ATOM     27  C   UNL     1       1.353  12.032  20.708  0.00  0.00    +0.000 C 
BRANCH  27  28
ATOM     28  N   UNL     1       1.925  13.338  20.936  0.00  0.00    +0.000 N 
ATOM     29  C   UNL     1       2.908  13.952  20.220  0.00  0.00    +0.000 A 
ATOM     30  N   UNL     1       3.064  15.179  20.655  0.00  0.00    +0.000 NA
ATOM     31  C   UNL     1       2.151  15.266  21.665  0.00  0.00    +0.000 A 
ATOM     32  N   UNL     1       1.436  14.157  21.884  0.00  0.00    +0.000 NA
ENDBRANCH  27  28
ENDBRANCH   1  27
TORSDOF 6
ENDMDL
MODEL 9
REMARK VINA RESULT:      -7.6      6.054     10.022
REMARK  Name = 
REMARK  9 active torsions:
REMARK  status: ('A' for Active; 'I' for Inactive)
REMARK    1  A    between atoms: C_1  and  C_2
REMARK    2  A    between atoms: C_4  and  C_5
REMARK    3  A    between atoms: N_9  and  C_10
REMARK    4  A    between atoms: C_10  and  C_11
REMARK    5  A    between atoms: C_10  and  C_12
REMARK    6  A    between atoms: C_12  and  O_13
REMARK    7  A    between atoms: C_12  and  C_14
REMARK    8  A    between atoms: C_12  and  C_20
REMARK    9  A    between atoms: C_14  and  N_15
REMARK                            x       y       z     vdW  Elec       q    Type
REMARK                         _______ _______ _______ _____ _____    ______ ____
ROOT
ATOM      1  C   UNL     1       0.173  10.663  19.231  0.00  0.00    +0.000 C 
ENDROOT
BRANCH   1   2
ATOM      2  C   UNL     1       0.920   9.314  19.122  0.00  0.00    +0.000 A 
ATOM      3  C   UNL     1       1.646   8.932  17.984  0.00  0.00    +0.000 A 
ATOM      4  C   UNL     1       2.535   7.854  18.013  0.00  0.00    +0.000 A 
ATOM      5  C   UNL     1       2.720   7.148  19.191  0.00  0.00    +0.000 A 
ATOM      6  F   UNL     1       3.648   6.185  19.241  0.00  0.00    +0.000 F 
ATOM      7  C   UNL     1       1.979   7.450  20.319  0.00  0.00    +0.000 A 
ATOM      8  C   UNL     1       1.072   8.505  20.267  0.00  0.00    +0.000 A 
ATOM      9  F   UNL     1       0.404   8.815  21.389  0.00  0.00    +0.000 F 
ENDBRANCH   1   2
BRANCH   1  10
ATOM     10  C   UNL     1       0.693  11.673  20.373  0.00  0.00    +0.000 C 
ATOM     11  C   UNL     1      -0.290  11.837  21.548  0.00  0.00    +0.000 C 
BRANCH  10  20
ATOM     12  C   UNL     1      -0.737  18.366  17.406  0.00  0.00    +0.000 C 
ATOM     13  C   UNL     1       0.251  17.367  17.927  0.00  0.00    +0.000 A 
ATOM     14  C   UNL     1       1.631  17.593  17.880  0.00  0.00    +0.000 A 
ATOM     15  C   UNL     1       2.542  16.645  18.392  0.00  0.00    +0.000 A 
ATOM     16  C   UNL     1       4.018  16.932  18.337  0.00  0.00    +0.000 C 
ATOM     17  C   UNL     1       2.059  15.449  18.957  0.00  0.00    +0.000 A 
ATOM     18  N   UNL     1       2.946  14.501  19.498  0.00  0.00    +0.000 NA
ATOM     19  C   UNL     1       2.443  13.383  19.921  0.00  0.00    +0.000 A 
ATOM     20  N   UNL     1       1.115  13.021  19.887  0.00  0.00    +0.000 N 
ATOM     21  C   UNL     1       0.174  14.005  19.603  0.00  0.00    +0.000 A 
ATOM     22  O   UNL     1      -1.020  13.948  19.890  0.00  0.00    +0.000 OA
ATOM     23  C   UNL     1       0.680  15.238  18.991  0.00  0.00    +0.000 A 
ATOM     24  C   UNL     1      -0.219  16.181  18.485  0.00  0.00    +0.000 A 
ENDBRANCH  10  20
ENDBRANCH   1  10
BRANCH   1  25
ATOM     25  O   UNL     1       0.293  11.329  17.963  0.00  0.00    +0.000 OA
ATOM     26  H   UNL     1       0.615  10.715  17.281  0.00  0.00    +0.000 HD
ENDBRANCH   1  25
BRANCH   1  27
ATOM     27  C   UNL     1      -1.354  10.343  19.416  0.00  0.00    +0.000 C 
BRANCH  27  28
ATOM     28  N   UNL     1      -2.160  10.526  18.231  0.00  0.00    +0.000 N 
ATOM     29  C   UNL     1      -3.135  11.454  18.025  0.00  0.00    +0.000 A 
ATOM     30  N   UNL     1      -3.545  11.387  16.780  0.00  0.00    +0.000 NA
ATOM     31  C   UNL     1      -2.791  10.375  16.262  0.00  0.00    +0.000 A 
ATOM     32  N   UNL     1      -1.934   9.807  17.118  0.00  0.00    +0.000 NA
ENDBRANCH  27  28
ENDBRANCH   1  27
TORSDOF 6
ENDMDL
