MODEL 1
REMARK VINA RESULT:      -8.8      0.000      0.000
REMARK  Name = 
REMARK  6 active torsions:
REMARK  status: ('A' for Active; 'I' for Inactive)
REMARK    1  A    between atoms: C_1  and  C_2
REMARK    2  A    between atoms: C_2  and  C_3
REMARK    3  A    between atoms: C_3  and  C_4
REMARK    4  A    between atoms: C_4  and  O_5
REMARK    5  A    between atoms: O_5  and  C_6
REMARK    6  A    between atoms: N_14  and  C_15
REMARK                            x       y       z     vdW  Elec       q    Type
REMARK                         _______ _______ _______ _____ _____    ______ ____
ROOT
ATOM      1  C   UNL     1       7.996   8.265  17.804  0.00  0.00    +0.000 A 
ATOM      2  C   UNL     1       8.375   7.435  18.844  0.00  0.00    +0.000 A 
ATOM      3  C   UNL     1       7.760   6.189  18.944  0.00  0.00    +0.000 A 
ATOM      4  C   UNL     1       6.801   5.821  17.996  0.00  0.00    +0.000 A 
ATOM      5  C   UNL     1       6.525   6.698  16.952  0.00  0.00    +0.000 A 
ATOM      6  N   UNL     1       7.114   7.911  16.846  0.00  0.00    +0.000 NA
ATOM      7  C   UNL     1       5.456   6.401  15.946  0.00  0.00    +0.000 C 
ATOM      8  C   UNL     1       5.180   4.909  15.892  0.00  0.00    +0.000 C 
ATOM      9  N   UNL     1       4.966   4.389  17.242  0.00  0.00    +0.000 N 
ATOM     10  C   UNL     1       5.960   4.618  18.202  0.00  0.00    +0.000 C 
ATOM     11  O   UNL     1       6.113   3.959  19.226  0.00  0.00    +0.000 OA
ENDROOT
BRANCH   9  12
ATOM     12  C   UNL     1       3.685   3.881  17.625  0.00  0.00    +0.000 A 
ATOM     13  C   UNL     1       3.483   2.489  17.678  0.00  0.00    +0.000 A 
ATOM     14  C   UNL     1       2.283   1.952  18.152  0.00  0.00    +0.000 A 
ATOM     15  C   UNL     1       1.268   2.799  18.560  0.00  0.00    +0.000 A 
ATOM     16  F   UNL     1       0.126   2.283  19.026  0.00  0.00    +0.000 F 
ATOM     17  C   UNL     1       1.425   4.176  18.501  0.00  0.00    +0.000 A 
ATOM     18  C   UNL     1       2.625   4.707  18.036  0.00  0.00    +0.000 A 
ATOM     19  F   UNL     1       2.719   6.043  17.960  0.00  0.00    +0.000 F 
ENDBRANCH   9  12
BRANCH   1  20
ATOM     20  O   UNL     1       8.529   9.539  17.771  0.00  0.00    +0.000 OA
BRANCH  20  21
ATOM     21  C   UNL     1       9.125   9.877  19.029  0.00  0.00    +0.000 C 
BRANCH  21  22
ATOM     22  C   UNL     1       9.957  11.144  18.868  0.00  0.00    +0.000 C 
BRANCH  22  24
ATOM     23  C   UNL     1      12.045  12.013  19.987  0.00  0.00    +0.000 C 
ATOM     24  C   UNL     1      10.619  11.530  20.190  0.00  0.00    +0.000 C 
ENDBRANCH  22  24
ENDBRANCH  21  22
ENDBRANCH  20  21
ENDBRANCH   1  20
TORSDOF 5
ENDMDL
MODEL 2
REMARK VINA RESULT:      -8.5      1.126      1.534
REMARK  Name = 
REMARK  6 active torsions:
REMARK  status: ('A' for Active; 'I' for Inactive)
REMARK    1  A    between atoms: C_1  and  C_2
REMARK    2  A    between atoms: C_2  and  C_3
REMARK    3  A    between atoms: C_3  and  C_4
REMARK    4  A    between atoms: C_4  and  O_5
REMARK    5  A    between atoms: O_5  and  C_6
REMARK    6  A    between atoms: N_14  and  C_15
REMARK                            x       y       z     vdW  Elec       q    Type
REMARK                         _______ _______ _______ _____ _____    ______ ____
ROOT
ATOM      1  C   UNL     1       7.852   8.167  17.732  0.00  0.00    +0.000 A 
ATOM      2  C   UNL     1       8.316   7.361  18.756  0.00  0.00    +0.000 A 
ATOM      3  C   UNL     1       7.733   6.105  18.916  0.00  0.00    +0.000 A 
ATOM      4  C   UNL     1       6.721   5.704  18.039  0.00  0.00    +0.000 A 
ATOM      5  C   UNL     1       6.358   6.560  17.004  0.00  0.00    +0.000 A 
ATOM      6  N   UNL     1       6.914   7.781  16.840  0.00  0.00    +0.000 NA
ATOM      7  C   UNL     1       5.229   6.227  16.076  0.00  0.00    +0.000 C 
ATOM      8  C   UNL     1       4.980   4.729  16.064  0.00  0.00    +0.000 C 
ATOM      9  N   UNL     1       4.867   4.228  17.433  0.00  0.00    +0.000 N 
ATOM     10  C   UNL     1       5.918   4.490  18.320  0.00  0.00    +0.000 C 
ATOM     11  O   UNL     1       6.152   3.851  19.341  0.00  0.00    +0.000 OA
ENDROOT
BRANCH   9  12
ATOM     12  C   UNL     1       3.624   3.702  17.908  0.00  0.00    +0.000 A 
ATOM     13  C   UNL     1       2.612   4.590  18.318  0.00  0.00    +0.000 A 
ATOM     14  C   UNL     1       1.347   4.121  18.684  0.00  0.00    +0.000 A 
ATOM     15  C   UNL     1       1.088   2.763  18.661  0.00  0.00    +0.000 A 
ATOM     16  F   UNL     1      -0.128   2.318  18.999  0.00  0.00    +0.000 F 
ATOM     17  C   UNL     1       2.068   1.858  18.283  0.00  0.00    +0.000 A 
ATOM     18  C   UNL     1       3.325   2.329  17.911  0.00  0.00    +0.000 A 
ATOM     19  F   UNL     1       4.255   1.417  17.590  0.00  0.00    +0.000 F 
ENDBRANCH   9  12
BRANCH   1  20
ATOM     20  O   UNL     1       8.356   9.449  17.643  0.00  0.00    +0.000 OA
BRANCH  20  21
ATOM     21  C   UNL     1       8.964   9.846  18.879  0.00  0.00    +0.000 C 
BRANCH  21  22
ATOM     22  C   UNL     1       9.371  11.313  18.792  0.00  0.00    +0.000 C 
BRANCH  22  24
ATOM     23  C   UNL     1      11.836  11.781  18.521  0.00  0.00    +0.000 C 
ATOM     24  C   UNL     1      10.525  11.498  17.807  0.00  0.00    +0.000 C 
ENDBRANCH  22  24
ENDBRANCH  21  22
ENDBRANCH  20  21
ENDBRANCH   1  20
TORSDOF 5
ENDMDL
MODEL 3
REMARK VINA RESULT:      -7.9      0.968      1.112
REMARK  Name = 
REMARK  6 active torsions:
REMARK  status: ('A' for Active; 'I' for Inactive)
REMARK    1  A    between atoms: C_1  and  C_2
REMARK    2  A    between atoms: C_2  and  C_3
REMARK    3  A    between atoms: C_3  and  C_4
REMARK    4  A    between atoms: C_4  and  O_5
REMARK    5  A    between atoms: O_5  and  C_6
REMARK    6  A    between atoms: N_14  and  C_15
REMARK                            x       y       z     vdW  Elec       q    Type
REMARK                         _______ _______ _______ _____ _____    ______ ____
ROOT
ATOM      1  C   UNL     1       7.936   8.170  17.598  0.00  0.00    +0.000 A 
ATOM      2  C   UNL     1       8.379   7.429  18.679  0.00  0.00    +0.000 A 
ATOM      3  C   UNL     1       7.721   6.234  18.966  0.00  0.00    +0.000 A 
ATOM      4  C   UNL     1       6.658   5.826  18.156  0.00  0.00    +0.000 A 
ATOM      5  C   UNL     1       6.319   6.609  17.057  0.00  0.00    +0.000 A 
ATOM      6  N   UNL     1       6.948   7.770  16.769  0.00  0.00    +0.000 NA
ATOM      7  C   UNL     1       5.143   6.271  16.193  0.00  0.00    +0.000 C 
ATOM      8  C   UNL     1       4.797   4.798  16.322  0.00  0.00    +0.000 C 
ATOM      9  N   UNL     1       4.695   4.429  17.733  0.00  0.00    +0.000 N 
ATOM     10  C   UNL     1       5.789   4.698  18.566  0.00  0.00    +0.000 C 
ATOM     11  O   UNL     1       6.013   4.137  19.635  0.00  0.00    +0.000 OA
ENDROOT
BRANCH   9  12
ATOM     12  C   UNL     1       3.437   4.033  18.286  0.00  0.00    +0.000 A 
ATOM     13  C   UNL     1       2.987   2.712  18.099  0.00  0.00    +0.000 A 
ATOM     14  C   UNL     1       1.819   2.254  18.715  0.00  0.00    +0.000 A 
ATOM     15  C   UNL     1       1.080   3.115  19.506  0.00  0.00    +0.000 A 
ATOM     16  F   UNL     1      -0.030   2.671  20.106  0.00  0.00    +0.000 F 
ATOM     17  C   UNL     1       1.482   4.429  19.695  0.00  0.00    +0.000 A 
ATOM     18  C   UNL     1       2.652   4.879  19.087  0.00  0.00    +0.000 A 
ATOM     19  F   UNL     1       2.982   6.167  19.265  0.00  0.00    +0.000 F 
ENDBRANCH   9  12
BRANCH   1  20
ATOM     20  O   UNL     1       8.520   9.403  17.381  0.00  0.00    +0.000 OA
BRANCH  20  21
ATOM     21  C   UNL     1       8.854  10.036  18.622  0.00  0.00    +0.000 C 
BRANCH  21  22
ATOM     22  C   UNL     1       9.841  11.168  18.360  0.00  0.00    +0.000 C 
BRANCH  22  24
ATOM     23  C   UNL     1      10.065  13.611  17.769  0.00  0.00    +0.000 C 
ATOM     24  C   UNL     1       9.102  12.472  18.058  0.00  0.00    +0.000 C 
ENDBRANCH  22  24
ENDBRANCH  21  22
ENDBRANCH  20  21
ENDBRANCH   1  20
TORSDOF 5
ENDMDL
MODEL 4
REMARK VINA RESULT:      -7.4      5.382      7.616
REMARK  Name = 
REMARK  6 active torsions:
REMARK  status: ('A' for Active; 'I' for Inactive)
REMARK    1  A    between atoms: C_1  and  C_2
REMARK    2  A    between atoms: C_2  and  C_3
REMARK    3  A    between atoms: C_3  and  C_4
REMARK    4  A    between atoms: C_4  and  O_5
REMARK    5  A    between atoms: O_5  and  C_6
REMARK    6  A    between atoms: N_14  and  C_15
REMARK                            x       y       z     vdW  Elec       q    Type
REMARK                         _______ _______ _______ _____ _____    ______ ____
ROOT
ATOM      1  C   UNL     1      -0.481  10.702  19.239  0.00  0.00    +0.000 A 
ATOM      2  C   UNL     1      -0.525  10.195  20.526  0.00  0.00    +0.000 A 
ATOM      3  C   UNL     1       0.337   9.148  20.845  0.00  0.00    +0.000 A 
ATOM      4  C   UNL     1       1.214   8.661  19.872  0.00  0.00    +0.000 A 
ATOM      5  C   UNL     1       1.227   9.272  18.622  0.00  0.00    +0.000 A 
ATOM      6  N   UNL     1       0.394  10.286  18.299  0.00  0.00    +0.000 NA
ATOM      7  C   UNL     1       2.085   8.752  17.509  0.00  0.00    +0.000 C 
ATOM      8  C   UNL     1       3.242   7.942  18.067  0.00  0.00    +0.000 C 
ATOM      9  N   UNL     1       2.746   6.953  19.023  0.00  0.00    +0.000 N 
ATOM     10  C   UNL     1       1.968   7.405  20.097  0.00  0.00    +0.000 C 
ATOM     11  O   UNL     1       1.800   6.796  21.149  0.00  0.00    +0.000 OA
ENDROOT
BRANCH   9  12
ATOM     12  C   UNL     1       2.850   5.556  18.735  0.00  0.00    +0.000 A 
ATOM     13  C   UNL     1       1.784   4.904  18.086  0.00  0.00    +0.000 A 
ATOM     14  C   UNL     1       1.890   3.569  17.688  0.00  0.00    +0.000 A 
ATOM     15  C   UNL     1       3.053   2.867  17.950  0.00  0.00    +0.000 A 
ATOM     16  F   UNL     1       3.158   1.593  17.557  0.00  0.00    +0.000 F 
ATOM     17  C   UNL     1       4.116   3.471  18.606  0.00  0.00    +0.000 A 
ATOM     18  C   UNL     1       4.009   4.805  18.993  0.00  0.00    +0.000 A 
ATOM     19  F   UNL     1       5.045   5.338  19.659  0.00  0.00    +0.000 F 
ENDBRANCH   9  12
BRANCH   1  20
ATOM     20  O   UNL     1      -1.409  11.665  18.896  0.00  0.00    +0.000 OA
BRANCH  20  21
ATOM     21  C   UNL     1      -2.580  11.067  18.327  0.00  0.00    +0.000 C 
BRANCH  21  22
ATOM     22  C   UNL     1      -2.563  11.265  16.815  0.00  0.00    +0.000 C 
BRANCH  22  24
ATOM     23  C   UNL     1      -3.099  10.086  14.650  0.00  0.00    +0.000 C 
ATOM     24  C   UNL     1      -2.648   9.922  16.091  0.00  0.00    +0.000 C 
ENDBRANCH  22  24
ENDBRANCH  21  22
ENDBRANCH  20  21
ENDBRANCH   1  20
TORSDOF 5
ENDMDL
MODEL 5
REMARK VINA RESULT:      -7.3      5.466      8.434
REMARK  Name = 
REMARK  6 active torsions:
REMARK  status: ('A' for Active; 'I' for Inactive)
REMARK    1  A    between atoms: C_1  and  C_2
REMARK    2  A    between atoms: C_2  and  C_3
REMARK    3  A    between atoms: C_3  and  C_4
REMARK    4  A    between atoms: C_4  and  O_5
REMARK    5  A    between atoms: O_5  and  C_6
REMARK    6  A    between atoms: N_14  and  C_15
REMARK                            x       y       z     vdW  Elec       q    Type
REMARK                         _______ _______ _______ _____ _____    ______ ____
ROOT
ATOM      1  C   UNL     1       3.333   5.577  18.823  0.00  0.00    +0.000 A 
ATOM      2  C   UNL     1       3.738   6.323  17.731  0.00  0.00    +0.000 A 
ATOM      3  C   UNL     1       3.273   7.632  17.624  0.00  0.00    +0.000 A 
ATOM      4  C   UNL     1       2.433   8.143  18.617  0.00  0.00    +0.000 A 
ATOM      5  C   UNL     1       2.124   7.337  19.708  0.00  0.00    +0.000 A 
ATOM      6  N   UNL     1       2.567   6.065  19.823  0.00  0.00    +0.000 NA
ATOM      7  C   UNL     1       1.170   7.794  20.770  0.00  0.00    +0.000 C 
ATOM      8  C   UNL     1       1.081   9.310  20.785  0.00  0.00    +0.000 C 
ATOM      9  N   UNL     1       0.840   9.811  19.433  0.00  0.00    +0.000 N 
ATOM     10  C   UNL     1       1.732   9.434  18.420  0.00  0.00    +0.000 C 
ATOM     11  O   UNL     1       1.893  10.039  17.365  0.00  0.00    +0.000 OA
ENDROOT
BRANCH   9  12
ATOM     12  C   UNL     1      -0.393  10.463  19.114  0.00  0.00    +0.000 A 
ATOM     13  C   UNL     1      -1.274   9.859  18.197  0.00  0.00    +0.000 A 
ATOM     14  C   UNL     1      -2.535  10.406  17.943  0.00  0.00    +0.000 A 
ATOM     15  C   UNL     1      -2.919  11.568  18.587  0.00  0.00    +0.000 A 
ATOM     16  F   UNL     1      -4.131  12.082  18.352  0.00  0.00    +0.000 F 
ATOM     17  C   UNL     1      -2.068  12.201  19.481  0.00  0.00    +0.000 A 
ATOM     18  C   UNL     1      -0.816  11.648  19.738  0.00  0.00    +0.000 A 
ATOM     19  F   UNL     1      -0.010  12.313  20.580  0.00  0.00    +0.000 F 
ENDBRANCH   9  12
BRANCH   1  20
ATOM     20  O   UNL     1       3.708   4.248  18.870  0.00  0.00    +0.000 OA
BRANCH  20  21
ATOM     21  C   UNL     1       3.064   3.498  17.834  0.00  0.00    +0.000 C 
BRANCH  21  22
ATOM     22  C   UNL     1       2.504   2.207  18.421  0.00  0.00    +0.000 C 
BRANCH  22  24
ATOM     23  C   UNL     1       0.781   3.053  20.058  0.00  0.00    +0.000 C 
ATOM     24  C   UNL     1       1.014   2.353  18.730  0.00  0.00    +0.000 C 
ENDBRANCH  22  24
ENDBRANCH  21  22
ENDBRANCH  20  21
ENDBRANCH   1  20
TORSDOF 5
ENDMDL
MODEL 6
REMARK VINA RESULT:      -7.2      5.495      8.516
REMARK  Name = 
REMARK  6 active torsions:
REMARK  status: ('A' for Active; 'I' for Inactive)
REMARK    1  A    between atoms: C_1  and  C_2
REMARK    2  A    between atoms: C_2  and  C_3
REMARK    3  A    between atoms: C_3  and  C_4
REMARK    4  A    between atoms: C_4  and  O_5
REMARK    5  A    between atoms: O_5  and  C_6
REMARK    6  A    between atoms: N_14  and  C_15
REMARK                            x       y       z     vdW  Elec       q    Type
REMARK                         _______ _______ _______ _____ _____    ______ ____
ROOT
ATOM      1  C   UNL     1       2.861   5.373  19.992  0.00  0.00    +0.000 A 
ATOM      2  C   UNL     1       3.419   5.763  18.788  0.00  0.00    +0.000 A 
ATOM      3  C   UNL     1       3.087   7.022  18.290  0.00  0.00    +0.000 A 
ATOM      4  C   UNL     1       2.223   7.841  19.023  0.00  0.00    +0.000 A 
ATOM      5  C   UNL     1       1.756   7.386  20.252  0.00  0.00    +0.000 A 
ATOM      6  N   UNL     1       2.068   6.167  20.744  0.00  0.00    +0.000 NA
ATOM      7  C   UNL     1       0.768   8.180  21.052  0.00  0.00    +0.000 C 
ATOM      8  C   UNL     1       0.820   9.644  20.655  0.00  0.00    +0.000 C 
ATOM      9  N   UNL     1       0.733   9.773  19.201  0.00  0.00    +0.000 N 
ATOM     10  C   UNL     1       1.662   9.074  18.420  0.00  0.00    +0.000 C 
ATOM     11  O   UNL     1       1.962   9.355  17.264  0.00  0.00    +0.000 OA
ENDROOT
BRANCH   9  12
ATOM     12  C   UNL     1      -0.405  10.396  18.598  0.00  0.00    +0.000 A 
ATOM     13  C   UNL     1      -1.162   9.679  17.652  0.00  0.00    +0.000 A 
ATOM     14  C   UNL     1      -2.342  10.209  17.123  0.00  0.00    +0.000 A 
ATOM     15  C   UNL     1      -2.767  11.464  17.520  0.00  0.00    +0.000 A 
ATOM     16  F   UNL     1      -3.904  11.963  17.023  0.00  0.00    +0.000 F 
ATOM     17  C   UNL     1      -2.035  12.207  18.434  0.00  0.00    +0.000 A 
ATOM     18  C   UNL     1      -0.864  11.672  18.966  0.00  0.00    +0.000 A 
ATOM     19  F   UNL     1      -0.167  12.440  19.817  0.00  0.00    +0.000 F 
ENDBRANCH   9  12
BRANCH   1  20
ATOM     20  O   UNL     1       3.106   4.086  20.428  0.00  0.00    +0.000 OA
BRANCH  20  21
ATOM     21  C   UNL     1       1.910   3.479  20.931  0.00  0.00    +0.000 C 
BRANCH  21  22
ATOM     22  C   UNL     1       1.151   2.830  19.778  0.00  0.00    +0.000 C 
BRANCH  22  24
ATOM     23  C   UNL     1       2.366   2.369  17.616  0.00  0.00    +0.000 C 
ATOM     24  C   UNL     1       2.053   1.862  19.013  0.00  0.00    +0.000 C 
ENDBRANCH  22  24
ENDBRANCH  21  22
ENDBRANCH  20  21
ENDBRANCH   1  20
TORSDOF 5
ENDMDL
MODEL 7
REMARK VINA RESULT:      -7.2      4.024      6.044
REMARK  Name = 
REMARK  6 active torsions:
REMARK  status: ('A' for Active; 'I' for Inactive)
REMARK    1  A    between atoms: C_1  and  C_2
REMARK    2  A    between atoms: C_2  and  C_3
REMARK    3  A    between atoms: C_3  and  C_4
REMARK    4  A    between atoms: C_4  and  O_5
REMARK    5  A    between atoms: O_5  and  C_6
REMARK    6  A    between atoms: N_14  and  C_15
REMARK                            x       y       z     vdW  Elec       q    Type
REMARK                         _______ _______ _______ _____ _____    ______ ____
ROOT
ATOM      1  C   UNL     1       6.936   5.016  14.419  0.00  0.00    +0.000 A 
ATOM      2  C   UNL     1       5.767   5.706  14.148  0.00  0.00    +0.000 A 
ATOM      3  C   UNL     1       4.934   6.025  15.218  0.00  0.00    +0.000 A 
ATOM      4  C   UNL     1       5.309   5.655  16.513  0.00  0.00    +0.000 A 
ATOM      5  C   UNL     1       6.530   5.013  16.695  0.00  0.00    +0.000 A 
ATOM      6  N   UNL     1       7.346   4.695  15.665  0.00  0.00    +0.000 NA
ATOM      7  C   UNL     1       6.958   4.520  18.043  0.00  0.00    +0.000 C 
ATOM      8  C   UNL     1       6.226   5.275  19.139  0.00  0.00    +0.000 C 
ATOM      9  N   UNL     1       4.788   5.276  18.873  0.00  0.00    +0.000 N 
ATOM     10  C   UNL     1       4.347   5.762  17.636  0.00  0.00    +0.000 C 
ATOM     11  O   UNL     1       3.214   6.172  17.405  0.00  0.00    +0.000 OA
ENDROOT
BRANCH   9  12
ATOM     12  C   UNL     1       3.892   4.584  19.747  0.00  0.00    +0.000 A 
ATOM     13  C   UNL     1       2.875   5.304  20.403  0.00  0.00    +0.000 A 
ATOM     14  C   UNL     1       1.913   4.649  21.177  0.00  0.00    +0.000 A 
ATOM     15  C   UNL     1       1.968   3.274  21.317  0.00  0.00    +0.000 A 
ATOM     16  F   UNL     1       1.038   2.648  22.047  0.00  0.00    +0.000 F 
ATOM     17  C   UNL     1       2.968   2.535  20.702  0.00  0.00    +0.000 A 
ATOM     18  C   UNL     1       3.920   3.191  19.925  0.00  0.00    +0.000 A 
ATOM     19  F   UNL     1       4.892   2.442  19.380  0.00  0.00    +0.000 F 
ENDBRANCH   9  12
BRANCH   1  20
ATOM     20  O   UNL     1       7.705   4.608  13.347  0.00  0.00    +0.000 OA
BRANCH  20  21
ATOM     21  C   UNL     1       6.883   4.318  12.210  0.00  0.00    +0.000 C 
BRANCH  21  22
ATOM     22  C   UNL     1       6.951   2.826  11.905  0.00  0.00    +0.000 C 
BRANCH  22  24
ATOM     23  C   UNL     1       4.512   3.372  11.562  0.00  0.00    +0.000 C 
ATOM     24  C   UNL     1       5.565   2.277  11.568  0.00  0.00    +0.000 C 
ENDBRANCH  22  24
ENDBRANCH  21  22
ENDBRANCH  20  21
ENDBRANCH   1  20
TORSDOF 5
ENDMDL
MODEL 8
REMARK VINA RESULT:      -7.0      1.078      1.102
REMARK  Name = 
REMARK  6 active torsions:
REMARK  status: ('A' for Active; 'I' for Inactive)
REMARK    1  A    between atoms: C_1  and  C_2
REMARK    2  A    between atoms: C_2  and  C_3
REMARK    3  A    between atoms: C_3  and  C_4
REMARK    4  A    between atoms: C_4  and  O_5
REMARK    5  A    between atoms: O_5  and  C_6
REMARK    6  A    between atoms: N_14  and  C_15
REMARK                            x       y       z     vdW  Elec       q    Type
REMARK                         _______ _______ _______ _____ _____    ______ ____
ROOT
ATOM      1  C   UNL     1       7.918   9.042  17.881  0.00  0.00    +0.000 A 
ATOM      2  C   UNL     1       8.632   8.191  18.706  0.00  0.00    +0.000 A 
ATOM      3  C   UNL     1       8.226   6.860  18.781  0.00  0.00    +0.000 A 
ATOM      4  C   UNL     1       7.133   6.434  18.020  0.00  0.00    +0.000 A 
ATOM      5  C   UNL     1       6.512   7.349  17.176  0.00  0.00    +0.000 A 
ATOM      6  N   UNL     1       6.895   8.643  17.096  0.00  0.00    +0.000 NA
ATOM      7  C   UNL     1       5.290   6.980  16.391  0.00  0.00    +0.000 C 
ATOM      8  C   UNL     1       5.209   5.474  16.215  0.00  0.00    +0.000 C 
ATOM      9  N   UNL     1       5.380   4.808  17.505  0.00  0.00    +0.000 N 
ATOM     10  C   UNL     1       6.528   5.101  18.252  0.00  0.00    +0.000 C 
ATOM     11  O   UNL     1       6.996   4.384  19.131  0.00  0.00    +0.000 OA
ENDROOT
BRANCH   9  12
ATOM     12  C   UNL     1       4.298   4.073  18.086  0.00  0.00    +0.000 A 
ATOM     13  C   UNL     1       3.937   2.828  17.537  0.00  0.00    +0.000 A 
ATOM     14  C   UNL     1       2.962   2.030  18.142  0.00  0.00    +0.000 A 
ATOM     15  C   UNL     1       2.327   2.475  19.287  0.00  0.00    +0.000 A 
ATOM     16  F   UNL     1       1.404   1.703  19.871  0.00  0.00    +0.000 F 
ATOM     17  C   UNL     1       2.643   3.706  19.843  0.00  0.00    +0.000 A 
ATOM     18  C   UNL     1       3.621   4.495  19.243  0.00  0.00    +0.000 A 
ATOM     19  F   UNL     1       3.868   5.694  19.791  0.00  0.00    +0.000 F 
ENDBRANCH   9  12
BRANCH   1  20
ATOM     20  O   UNL     1       8.257  10.381  17.891  0.00  0.00    +0.000 OA
BRANCH  20  21
ATOM     21  C   UNL     1       9.656  10.553  18.148  0.00  0.00    +0.000 C 
BRANCH  21  22
ATOM     22  C   UNL     1       9.852  11.725  19.103  0.00  0.00    +0.000 C 
BRANCH  22  24
ATOM     23  C   UNL     1      12.333  11.540  19.527  0.00  0.00    +0.000 C 
ATOM     24  C   UNL     1      11.224  12.367  18.899  0.00  0.00    +0.000 C 
ENDBRANCH  22  24
ENDBRANCH  21  22
ENDBRANCH  20  21
ENDBRANCH   1  20
TORSDOF 5
ENDMDL
MODEL 9
REMARK VINA RESULT:      -7.0      3.929      6.966
REMARK  Name = 
REMARK  6 active torsions:
REMARK  status: ('A' for Active; 'I' for Inactive)
REMARK    1  A    between atoms: C_1  and  C_2
REMARK    2  A    between atoms: C_2  and  C_3
REMARK    3  A    between atoms: C_3  and  C_4
REMARK    4  A    between atoms: C_4  and  O_5
REMARK    5  A    between atoms: O_5  and  C_6
REMARK    6  A    between atoms: N_14  and  C_15
REMARK                            x       y       z     vdW  Elec       q    Type
REMARK                         _______ _______ _______ _____ _____    ______ ____
ROOT
ATOM      1  C   UNL     1       6.440   3.853  13.447  0.00  0.00    +0.000 A 
ATOM      2  C   UNL     1       7.258   4.949  13.658  0.00  0.00    +0.000 A 
ATOM      3  C   UNL     1       7.091   5.671  14.838  0.00  0.00    +0.000 A 
ATOM      4  C   UNL     1       6.125   5.261  15.761  0.00  0.00    +0.000 A 
ATOM      5  C   UNL     1       5.388   4.113  15.489  0.00  0.00    +0.000 A 
ATOM      6  N   UNL     1       5.538   3.405  14.347  0.00  0.00    +0.000 NA
ATOM      7  C   UNL     1       4.285   3.661  16.397  0.00  0.00    +0.000 C 
ATOM      8  C   UNL     1       4.480   4.230  17.791  0.00  0.00    +0.000 C 
ATOM      9  N   UNL     1       4.712   5.672  17.716  0.00  0.00    +0.000 N 
ATOM     10  C   UNL     1       5.757   6.131  16.904  0.00  0.00    +0.000 C 
ATOM     11  O   UNL     1       6.308   7.221  17.017  0.00  0.00    +0.000 OA
ENDROOT
BRANCH   9  12
ATOM     12  C   UNL     1       3.755   6.586  18.259  0.00  0.00    +0.000 A 
ATOM     13  C   UNL     1       3.373   7.712  17.507  0.00  0.00    +0.000 A 
ATOM     14  C   UNL     1       2.362   8.568  17.954  0.00  0.00    +0.000 A 
ATOM     15  C   UNL     1       1.737   8.317  19.162  0.00  0.00    +0.000 A 
ATOM     16  F   UNL     1       0.761   9.129  19.581  0.00  0.00    +0.000 F 
ATOM     17  C   UNL     1       2.104   7.228  19.939  0.00  0.00    +0.000 A 
ATOM     18  C   UNL     1       3.105   6.373  19.487  0.00  0.00    +0.000 A 
ATOM     19  F   UNL     1       3.455   5.355  20.288  0.00  0.00    +0.000 F 
ENDBRANCH   9  12
BRANCH   1  20
ATOM     20  O   UNL     1       6.534   3.205  12.231  0.00  0.00    +0.000 OA
BRANCH  20  21
ATOM     21  C   UNL     1       5.268   2.656  11.844  0.00  0.00    +0.000 C 
BRANCH  21  22
ATOM     22  C   UNL     1       4.369   3.776  11.332  0.00  0.00    +0.000 C 
BRANCH  22  24
ATOM     23  C   UNL     1       2.765   4.291   9.454  0.00  0.00    +0.000 C 
ATOM     24  C   UNL     1       3.295   3.223  10.395  0.00  0.00    +0.000 C 
ENDBRANCH  22  24
ENDBRANCH  21  22
ENDBRANCH  20  21
ENDBRANCH   1  20
TORSDOF 5
ENDMDL
