MODEL 1
REMARK VINA RESULT:      -7.4      0.000      0.000
REMARK  Name = 
REMARK  7 active torsions:
REMARK  status: ('A' for Active; 'I' for Inactive)
REMARK    1  A    between atoms: C_1  and  O_2
REMARK    2  A    between atoms: O_2  and  C_3
REMARK    3  A    between atoms: C_7  and  O_8
REMARK    4  A    between atoms: O_8  and  C_9
REMARK    5  A    between atoms: C_10  and  C_11
REMARK    6  A    between atoms: N_16  and  C_17
REMARK    7  A    between atoms: C_17  and  C_18
REMARK                            x       y       z     vdW  Elec       q    Type
REMARK                         _______ _______ _______ _____ _____    ______ ____
ROOT
ATOM      1  C   UNL     1      -1.403  11.436  18.951  0.00  0.00    +0.000 A 
ATOM      2  C   UNL     1      -0.413  12.358  18.665  0.00  0.00    +0.000 A 
ATOM      3  N   UNL     1       0.868  12.174  19.041  0.00  0.00    +0.000 NA
ATOM      4  N   UNL     1       1.170  11.042  19.713  0.00  0.00    +0.000 NA
ATOM      5  C   UNL     1       0.206  10.131  19.976  0.00  0.00    +0.000 A 
ATOM      6  N   UNL     1       0.512   8.943  20.621  0.00  0.00    +0.000 N 
ATOM      7  N   UNL     1      -1.081  10.303  19.625  0.00  0.00    +0.000 NA
ATOM      8  H   UNL     1      -0.201   8.267  20.362  0.00  0.00    +0.000 HD
ENDROOT
BRANCH   1  14
ATOM      9  C   UNL     1      -3.302  11.177  17.267  0.00  0.00    +0.000 A 
ATOM     10  C   UNL     1      -4.660  11.268  16.921  0.00  0.00    +0.000 A 
ATOM     11  C   UNL     1      -5.567  11.879  17.772  0.00  0.00    +0.000 A 
ATOM     12  C   UNL     1      -5.128  12.382  18.990  0.00  0.00    +0.000 A 
ATOM     13  C   UNL     1      -3.789  12.236  19.394  0.00  0.00    +0.000 A 
ATOM     14  C   UNL     1      -2.830  11.629  18.534  0.00  0.00    +0.000 A 
BRANCH   9  16
ATOM     15  C   UNL     1      -2.846  10.375  15.072  0.00  0.00    +0.000 C 
ATOM     16  O   UNL     1      -2.389  10.612  16.403  0.00  0.00    +0.000 OA
ENDBRANCH   9  16
BRANCH  13  17
ATOM     17  O   UNL     1      -3.361  12.659  20.632  0.00  0.00    +0.000 OA
ATOM     18  C   UNL     1      -4.328  12.721  21.675  0.00  0.00    +0.000 C 
ENDBRANCH  13  17
ENDBRANCH   1  14
BRANCH   6  19
ATOM     19  C   UNL     1       1.873   8.444  20.425  0.00  0.00    +0.000 C 
BRANCH  19  20
ATOM     20  C   UNL     1       1.908   7.001  19.962  0.00  0.00    +0.000 A 
ATOM     21  N   UNL     1       1.460   5.993  20.694  0.00  0.00    +0.000 NA
ATOM     22  C   UNL     1       1.633   4.813  20.006  0.00  0.00    +0.000 A 
ATOM     23  C   UNL     1       2.188   4.934  18.748  0.00  0.00    +0.000 A 
ATOM     24  S   UNL     1       2.521   6.572  18.407  0.00  0.00    +0.000 S 
ATOM     25  C   UNL     1       2.496   3.795  17.836  0.00  0.00    +0.000 C 
ATOM     26  C   UNL     1       1.788   2.512  18.324  0.00  0.00    +0.000 C 
ATOM     27  C   UNL     1       1.881   2.338  19.850  0.00  0.00    +0.000 C 
ATOM     28  C   UNL     1       1.223   3.513  20.597  0.00  0.00    +0.000 C 
ENDBRANCH  19  20
ENDBRANCH   6  19
TORSDOF 5
ENDMDL
MODEL 2
REMARK VINA RESULT:      -7.3      0.315      2.505
REMARK  Name = 
REMARK  7 active torsions:
REMARK  status: ('A' for Active; 'I' for Inactive)
REMARK    1  A    between atoms: C_1  and  O_2
REMARK    2  A    between atoms: O_2  and  C_3
REMARK    3  A    between atoms: C_7  and  O_8
REMARK    4  A    between atoms: O_8  and  C_9
REMARK    5  A    between atoms: C_10  and  C_11
REMARK    6  A    between atoms: N_16  and  C_17
REMARK    7  A    between atoms: C_17  and  C_18
REMARK                            x       y       z     vdW  Elec       q    Type
REMARK                         _______ _______ _______ _____ _____    ______ ____
ROOT
ATOM      1  C   UNL     1      -1.430  11.410  18.922  0.00  0.00    +0.000 A 
ATOM      2  C   UNL     1      -0.441  12.337  18.648  0.00  0.00    +0.000 A 
ATOM      3  N   UNL     1       0.836  12.160  19.040  0.00  0.00    +0.000 NA
ATOM      4  N   UNL     1       1.136  11.030  19.717  0.00  0.00    +0.000 NA
ATOM      5  C   UNL     1       0.174  10.115  19.969  0.00  0.00    +0.000 A 
ATOM      6  N   UNL     1       0.479   8.929  20.619  0.00  0.00    +0.000 N 
ATOM      7  N   UNL     1      -1.110  10.279  19.602  0.00  0.00    +0.000 NA
ATOM      8  H   UNL     1      -0.228   8.248  20.352  0.00  0.00    +0.000 HD
ENDROOT
BRANCH   1  14
ATOM      9  C   UNL     1      -3.819  12.194  19.347  0.00  0.00    +0.000 A 
ATOM     10  C   UNL     1      -5.125  12.458  18.902  0.00  0.00    +0.000 A 
ATOM     11  C   UNL     1      -5.533  12.063  17.638  0.00  0.00    +0.000 A 
ATOM     12  C   UNL     1      -4.632  11.426  16.797  0.00  0.00    +0.000 A 
ATOM     13  C   UNL     1      -3.297  11.217  17.190  0.00  0.00    +0.000 A 
ATOM     14  C   UNL     1      -2.852  11.595  18.489  0.00  0.00    +0.000 A 
BRANCH   9  16
ATOM     15  C   UNL     1      -3.583  13.915  20.976  0.00  0.00    +0.000 C 
ATOM     16  O   UNL     1      -3.424  12.542  20.621  0.00  0.00    +0.000 OA
ENDBRANCH   9  16
BRANCH  13  17
ATOM     17  O   UNL     1      -2.375  10.659  16.335  0.00  0.00    +0.000 OA
ATOM     18  C   UNL     1      -2.849  10.176  15.082  0.00  0.00    +0.000 C 
ENDBRANCH  13  17
ENDBRANCH   1  14
BRANCH   6  19
ATOM     19  C   UNL     1       1.844   8.437  20.440  0.00  0.00    +0.000 C 
BRANCH  19  20
ATOM     20  C   UNL     1       1.893   6.994  19.976  0.00  0.00    +0.000 A 
ATOM     21  N   UNL     1       1.461   5.981  20.710  0.00  0.00    +0.000 NA
ATOM     22  C   UNL     1       1.642   4.804  20.020  0.00  0.00    +0.000 A 
ATOM     23  C   UNL     1       2.188   4.932  18.760  0.00  0.00    +0.000 A 
ATOM     24  S   UNL     1       2.501   6.574  18.417  0.00  0.00    +0.000 S 
ATOM     25  C   UNL     1       2.503   3.797  17.845  0.00  0.00    +0.000 C 
ATOM     26  C   UNL     1       1.812   2.505  18.337  0.00  0.00    +0.000 C 
ATOM     27  C   UNL     1       1.917   2.332  19.862  0.00  0.00    +0.000 C 
ATOM     28  C   UNL     1       1.250   3.499  20.613  0.00  0.00    +0.000 C 
ENDBRANCH  19  20
ENDBRANCH   6  19
TORSDOF 5
ENDMDL
MODEL 3
REMARK VINA RESULT:      -7.0      4.332      9.517
REMARK  Name = 
REMARK  7 active torsions:
REMARK  status: ('A' for Active; 'I' for Inactive)
REMARK    1  A    between atoms: C_1  and  O_2
REMARK    2  A    between atoms: O_2  and  C_3
REMARK    3  A    between atoms: C_7  and  O_8
REMARK    4  A    between atoms: O_8  and  C_9
REMARK    5  A    between atoms: C_10  and  C_11
REMARK    6  A    between atoms: N_16  and  C_17
REMARK    7  A    between atoms: C_17  and  C_18
REMARK                            x       y       z     vdW  Elec       q    Type
REMARK                         _______ _______ _______ _____ _____    ______ ____
ROOT
ATOM      1  C   UNL     1       3.838   6.374  17.944  0.00  0.00    +0.000 A 
ATOM      2  C   UNL     1       3.449   5.915  19.188  0.00  0.00    +0.000 A 
ATOM      3  N   UNL     1       2.586   6.597  19.966  0.00  0.00    +0.000 NA
ATOM      4  N   UNL     1       2.094   7.762  19.490  0.00  0.00    +0.000 NA
ATOM      5  C   UNL     1       2.459   8.201  18.264  0.00  0.00    +0.000 A 
ATOM      6  N   UNL     1       1.924   9.369  17.744  0.00  0.00    +0.000 N 
ATOM      7  N   UNL     1       3.333   7.545  17.479  0.00  0.00    +0.000 NA
ATOM      8  H   UNL     1       1.988   9.305  16.731  0.00  0.00    +0.000 HD
ENDROOT
BRANCH   1  14
ATOM      9  C   UNL     1       6.058   6.174  16.704  0.00  0.00    +0.000 A 
ATOM     10  C   UNL     1       6.994   5.427  15.969  0.00  0.00    +0.000 A 
ATOM     11  C   UNL     1       6.679   4.160  15.505  0.00  0.00    +0.000 A 
ATOM     12  C   UNL     1       5.436   3.616  15.795  0.00  0.00    +0.000 A 
ATOM     13  C   UNL     1       4.509   4.311  16.593  0.00  0.00    +0.000 A 
ATOM     14  C   UNL     1       4.795   5.622  17.069  0.00  0.00    +0.000 A 
BRANCH   9  16
ATOM     15  C   UNL     1       7.679   7.672  17.597  0.00  0.00    +0.000 C 
ATOM     16  O   UNL     1       6.350   7.453  17.126  0.00  0.00    +0.000 OA
ENDBRANCH   9  16
BRANCH  13  17
ATOM     17  O   UNL     1       3.305   3.749  16.953  0.00  0.00    +0.000 OA
ATOM     18  C   UNL     1       3.344   2.546  17.713  0.00  0.00    +0.000 C 
ENDBRANCH  13  17
ENDBRANCH   1  14
BRANCH   6  19
ATOM     19  C   UNL     1       0.583   9.719  18.211  0.00  0.00    +0.000 C 
BRANCH  19  20
ATOM     20  C   UNL     1       0.583  10.897  19.167  0.00  0.00    +0.000 A 
ATOM     21  N   UNL     1       1.449  11.894  19.088  0.00  0.00    +0.000 NA
ATOM     22  C   UNL     1       1.197  12.802  20.092  0.00  0.00    +0.000 A 
ATOM     23  C   UNL     1       0.128  12.500  20.911  0.00  0.00    +0.000 A 
ATOM     24  S   UNL     1      -0.587  11.029  20.428  0.00  0.00    +0.000 S 
ATOM     25  C   UNL     1      -0.311  13.317  22.079  0.00  0.00    +0.000 C 
ATOM     26  C   UNL     1       0.347  14.714  22.034  0.00  0.00    +0.000 C 
ATOM     27  C   UNL     1       1.833  14.646  21.643  0.00  0.00    +0.000 C 
ATOM     28  C   UNL     1       2.026  14.025  20.248  0.00  0.00    +0.000 C 
ENDBRANCH  19  20
ENDBRANCH   6  19
TORSDOF 5
ENDMDL
MODEL 4
REMARK VINA RESULT:      -7.0      4.268      9.432
REMARK  Name = 
REMARK  7 active torsions:
REMARK  status: ('A' for Active; 'I' for Inactive)
REMARK    1  A    between atoms: C_1  and  O_2
REMARK    2  A    between atoms: O_2  and  C_3
REMARK    3  A    between atoms: C_7  and  O_8
REMARK    4  A    between atoms: O_8  and  C_9
REMARK    5  A    between atoms: C_10  and  C_11
REMARK    6  A    between atoms: N_16  and  C_17
REMARK    7  A    between atoms: C_17  and  C_18
REMARK                            x       y       z     vdW  Elec       q    Type
REMARK                         _______ _______ _______ _____ _____    ______ ____
ROOT
ATOM      1  C   UNL     1       3.806   6.427  18.081  0.00  0.00    +0.000 A 
ATOM      2  C   UNL     1       3.352   5.977  19.306  0.00  0.00    +0.000 A 
ATOM      3  N   UNL     1       2.449   6.664  20.033  0.00  0.00    +0.000 NA
ATOM      4  N   UNL     1       1.982   7.825  19.523  0.00  0.00    +0.000 NA
ATOM      5  C   UNL     1       2.411   8.255  18.315  0.00  0.00    +0.000 A 
ATOM      6  N   UNL     1       1.903   9.419  17.759  0.00  0.00    +0.000 N 
ATOM      7  N   UNL     1       3.325   7.594  17.582  0.00  0.00    +0.000 NA
ATOM      8  H   UNL     1       2.020   9.348  16.751  0.00  0.00    +0.000 HD
ENDROOT
BRANCH   1  14
ATOM      9  C   UNL     1       4.505   4.389  16.715  0.00  0.00    +0.000 A 
ATOM     10  C   UNL     1       5.408   3.728  15.866  0.00  0.00    +0.000 A 
ATOM     11  C   UNL     1       6.657   4.267  15.606  0.00  0.00    +0.000 A 
ATOM     12  C   UNL     1       7.006   5.486  16.171  0.00  0.00    +0.000 A 
ATOM     13  C   UNL     1       6.093   6.206  16.963  0.00  0.00    +0.000 A 
ATOM     14  C   UNL     1       4.808   5.670  17.263  0.00  0.00    +0.000 A 
BRANCH   9  16
ATOM     15  C   UNL     1       3.305   2.614  17.753  0.00  0.00    +0.000 C 
ATOM     16  O   UNL     1       3.279   3.834  17.013  0.00  0.00    +0.000 OA
ENDBRANCH   9  16
BRANCH  13  17
ATOM     17  O   UNL     1       6.399   7.451  17.462  0.00  0.00    +0.000 OA
ATOM     18  C   UNL     1       7.776   7.780  17.605  0.00  0.00    +0.000 C 
ENDBRANCH  13  17
ENDBRANCH   1  14
BRANCH   6  19
ATOM     19  C   UNL     1       0.540   9.772  18.153  0.00  0.00    +0.000 C 
BRANCH  19  20
ATOM     20  C   UNL     1       0.493  10.914  19.149  0.00  0.00    +0.000 A 
ATOM     21  N   UNL     1       1.268  11.984  19.063  0.00  0.00    +0.000 NA
ATOM     22  C   UNL     1       0.995  12.834  20.111  0.00  0.00    +0.000 A 
ATOM     23  C   UNL     1       0.000  12.416  20.972  0.00  0.00    +0.000 A 
ATOM     24  S   UNL     1      -0.615  10.905  20.472  0.00  0.00    +0.000 S 
ATOM     25  C   UNL     1      -0.443  13.154  22.190  0.00  0.00    +0.000 C 
ATOM     26  C   UNL     1       0.094  14.603  22.162  0.00  0.00    +0.000 C 
ATOM     27  C   UNL     1       1.558  14.674  21.694  0.00  0.00    +0.000 C 
ATOM     28  C   UNL     1       1.727  14.117  20.269  0.00  0.00    +0.000 C 
ENDBRANCH  19  20
ENDBRANCH   6  19
TORSDOF 5
ENDMDL
MODEL 5
REMARK VINA RESULT:      -7.0      0.857      1.314
REMARK  Name = 
REMARK  7 active torsions:
REMARK  status: ('A' for Active; 'I' for Inactive)
REMARK    1  A    between atoms: C_1  and  O_2
REMARK    2  A    between atoms: O_2  and  C_3
REMARK    3  A    between atoms: C_7  and  O_8
REMARK    4  A    between atoms: O_8  and  C_9
REMARK    5  A    between atoms: C_10  and  C_11
REMARK    6  A    between atoms: N_16  and  C_17
REMARK    7  A    between atoms: C_17  and  C_18
REMARK                            x       y       z     vdW  Elec       q    Type
REMARK                         _______ _______ _______ _____ _____    ______ ____
ROOT
ATOM      1  C   UNL     1      -1.332  11.462  18.749  0.00  0.00    +0.000 A 
ATOM      2  C   UNL     1      -0.367  12.423  18.512  0.00  0.00    +0.000 A 
ATOM      3  N   UNL     1       0.936  12.212  18.781  0.00  0.00    +0.000 NA
ATOM      4  N   UNL     1       1.287  11.012  19.292  0.00  0.00    +0.000 NA
ATOM      5  C   UNL     1       0.347  10.064  19.504  0.00  0.00    +0.000 A 
ATOM      6  N   UNL     1       0.700   8.812  19.981  0.00  0.00    +0.000 N 
ATOM      7  N   UNL     1      -0.962  10.261  19.260  0.00  0.00    +0.000 NA
ATOM      8  H   UNL     1      -0.025   8.162  19.689  0.00  0.00    +0.000 HD
ENDROOT
BRANCH   1  14
ATOM      9  C   UNL     1      -3.343  11.350  17.183  0.00  0.00    +0.000 A 
ATOM     10  C   UNL     1      -4.722  11.465  16.941  0.00  0.00    +0.000 A 
ATOM     11  C   UNL     1      -5.567  11.991  17.906  0.00  0.00    +0.000 A 
ATOM     12  C   UNL     1      -5.045  12.381  19.131  0.00  0.00    +0.000 A 
ATOM     13  C   UNL     1      -3.681  12.206  19.427  0.00  0.00    +0.000 A 
ATOM     14  C   UNL     1      -2.784  11.685  18.451  0.00  0.00    +0.000 A 
BRANCH   9  16
ATOM     15  C   UNL     1      -3.104  10.450  14.992  0.00  0.00    +0.000 C 
ATOM     16  O   UNL     1      -2.493  10.872  16.210  0.00  0.00    +0.000 OA
ENDBRANCH   9  16
BRANCH  13  17
ATOM     17  O   UNL     1      -3.168  12.515  20.666  0.00  0.00    +0.000 OA
ATOM     18  C   UNL     1      -4.094  12.710  21.729  0.00  0.00    +0.000 C 
ENDBRANCH  13  17
ENDBRANCH   1  14
BRANCH   6  19
ATOM     19  C   UNL     1       2.047   8.357  19.639  0.00  0.00    +0.000 C 
BRANCH  19  20
ATOM     20  C   UNL     1       2.132   6.853  19.460  0.00  0.00    +0.000 A 
ATOM     21  N   UNL     1       2.533   6.278  18.337  0.00  0.00    +0.000 NA
ATOM     22  C   UNL     1       2.496   4.910  18.483  0.00  0.00    +0.000 A 
ATOM     23  C   UNL     1       2.091   4.455  19.721  0.00  0.00    +0.000 A 
ATOM     24  S   UNL     1       1.729   5.773  20.743  0.00  0.00    +0.000 S 
ATOM     25  C   UNL     1       1.945   3.020  20.100  0.00  0.00    +0.000 C 
ATOM     26  C   UNL     1       2.646   2.118  19.059  0.00  0.00    +0.000 C 
ATOM     27  C   UNL     1       2.378   2.577  17.615  0.00  0.00    +0.000 C 
ATOM     28  C   UNL     1       2.889   4.008  17.370  0.00  0.00    +0.000 C 
ENDBRANCH  19  20
ENDBRANCH   6  19
TORSDOF 5
ENDMDL
MODEL 6
REMARK VINA RESULT:      -7.0      0.889      2.851
REMARK  Name = 
REMARK  7 active torsions:
REMARK  status: ('A' for Active; 'I' for Inactive)
REMARK    1  A    between atoms: C_1  and  O_2
REMARK    2  A    between atoms: O_2  and  C_3
REMARK    3  A    between atoms: C_7  and  O_8
REMARK    4  A    between atoms: O_8  and  C_9
REMARK    5  A    between atoms: C_10  and  C_11
REMARK    6  A    between atoms: N_16  and  C_17
REMARK    7  A    between atoms: C_17  and  C_18
REMARK                            x       y       z     vdW  Elec       q    Type
REMARK                         _______ _______ _______ _____ _____    ______ ____
ROOT
ATOM      1  C   UNL     1      -1.365  11.420  18.681  0.00  0.00    +0.000 A 
ATOM      2  C   UNL     1      -0.411  12.396  18.458  0.00  0.00    +0.000 A 
ATOM      3  N   UNL     1       0.893  12.201  18.735  0.00  0.00    +0.000 NA
ATOM      4  N   UNL     1       1.257  11.002  19.240  0.00  0.00    +0.000 NA
ATOM      5  C   UNL     1       0.328  10.040  19.439  0.00  0.00    +0.000 A 
ATOM      6  N   UNL     1       0.695   8.789  19.911  0.00  0.00    +0.000 N 
ATOM      7  N   UNL     1      -0.981  10.220  19.187  0.00  0.00    +0.000 NA
ATOM      8  H   UNL     1      -0.019   8.132  19.609  0.00  0.00    +0.000 HD
ENDROOT
BRANCH   1  14
ATOM      9  C   UNL     1      -3.719  12.134  19.354  0.00  0.00    +0.000 A 
ATOM     10  C   UNL     1      -5.057  12.420  19.034  0.00  0.00    +0.000 A 
ATOM     11  C   UNL     1      -5.558  12.135  17.775  0.00  0.00    +0.000 A 
ATOM     12  C   UNL     1      -4.720  11.585  16.814  0.00  0.00    +0.000 A 
ATOM     13  C   UNL     1      -3.358  11.359  17.084  0.00  0.00    +0.000 A 
ATOM     14  C   UNL     1      -2.817  11.625  18.374  0.00  0.00    +0.000 A 
BRANCH   9  16
ATOM     15  C   UNL     1      -4.162  12.882  21.571  0.00  0.00    +0.000 C 
ATOM     16  O   UNL     1      -3.229  12.373  20.620  0.00  0.00    +0.000 OA
ENDBRANCH   9  16
BRANCH  13  17
ATOM     17  O   UNL     1      -2.501  10.889  16.116  0.00  0.00    +0.000 OA
ATOM     18  C   UNL     1      -3.079  10.256  14.980  0.00  0.00    +0.000 C 
ENDBRANCH  13  17
ENDBRANCH   1  14
BRANCH   6  19
ATOM     19  C   UNL     1       2.051   8.355  19.575  0.00  0.00    +0.000 C 
BRANCH  19  20
ATOM     20  C   UNL     1       2.162   6.852  19.407  0.00  0.00    +0.000 A 
ATOM     21  N   UNL     1       2.606   6.277  18.300  0.00  0.00    +0.000 NA
ATOM     22  C   UNL     1       2.584   4.909  18.453  0.00  0.00    +0.000 A 
ATOM     23  C   UNL     1       2.146   4.455  19.680  0.00  0.00    +0.000 A 
ATOM     24  S   UNL     1       1.734   5.773  20.683  0.00  0.00    +0.000 S 
ATOM     25  C   UNL     1       2.008   3.020  20.062  0.00  0.00    +0.000 C 
ATOM     26  C   UNL     1       2.754   2.123  19.048  0.00  0.00    +0.000 C 
ATOM     27  C   UNL     1       2.526   2.570  17.594  0.00  0.00    +0.000 C 
ATOM     28  C   UNL     1       3.025   4.007  17.357  0.00  0.00    +0.000 C 
ENDBRANCH  19  20
ENDBRANCH   6  19
TORSDOF 5
ENDMDL
MODEL 7
REMARK VINA RESULT:      -7.0      3.982      9.547
REMARK  Name = 
REMARK  7 active torsions:
REMARK  status: ('A' for Active; 'I' for Inactive)
REMARK    1  A    between atoms: C_1  and  O_2
REMARK    2  A    between atoms: O_2  and  C_3
REMARK    3  A    between atoms: C_7  and  O_8
REMARK    4  A    between atoms: O_8  and  C_9
REMARK    5  A    between atoms: C_10  and  C_11
REMARK    6  A    between atoms: N_16  and  C_17
REMARK    7  A    between atoms: C_17  and  C_18
REMARK                            x       y       z     vdW  Elec       q    Type
REMARK                         _______ _______ _______ _____ _____    ______ ____
ROOT
ATOM      1  C   UNL     1       3.820   4.717  19.330  0.00  0.00    +0.000 A 
ATOM      2  C   UNL     1       3.380   3.683  20.135  0.00  0.00    +0.000 A 
ATOM      3  N   UNL     1       2.478   3.873  21.118  0.00  0.00    +0.000 NA
ATOM      4  N   UNL     1       1.999   5.123  21.299  0.00  0.00    +0.000 NA
ATOM      5  C   UNL     1       2.414   6.131  20.500  0.00  0.00    +0.000 A 
ATOM      6  N   UNL     1       1.894   7.408  20.643  0.00  0.00    +0.000 N 
ATOM      7  N   UNL     1       3.327   5.966  19.525  0.00  0.00    +0.000 NA
ATOM      8  H   UNL     1       2.003   7.880  19.749  0.00  0.00    +0.000 HD
ENDROOT
BRANCH   1  14
ATOM      9  C   UNL     1       4.429   4.040  16.948  0.00  0.00    +0.000 A 
ATOM     10  C   UNL     1       5.351   3.949  15.892  0.00  0.00    +0.000 A 
ATOM     11  C   UNL     1       6.690   4.240  16.096  0.00  0.00    +0.000 A 
ATOM     12  C   UNL     1       7.115   4.651  17.352  0.00  0.00    +0.000 A 
ATOM     13  C   UNL     1       6.200   4.824  18.407  0.00  0.00    +0.000 A 
ATOM     14  C   UNL     1       4.821   4.516  18.233  0.00  0.00    +0.000 A 
BRANCH   9  16
ATOM     15  C   UNL     1       2.744   2.362  17.071  0.00  0.00    +0.000 C 
ATOM     16  O   UNL     1       3.105   3.707  16.760  0.00  0.00    +0.000 OA
ENDBRANCH   9  16
BRANCH  13  17
ATOM     17  O   UNL     1       6.598   5.307  19.633  0.00  0.00    +0.000 OA
ATOM     18  C   UNL     1       7.967   5.668  19.782  0.00  0.00    +0.000 C 
ENDBRANCH  13  17
ENDBRANCH   1  14
BRANCH   6  19
ATOM     19  C   UNL     1       0.531   7.485  21.169  0.00  0.00    +0.000 C 
BRANCH  19  20
ATOM     20  C   UNL     1       0.046   8.912  21.335  0.00  0.00    +0.000 A 
ATOM     21  N   UNL     1      -0.198   9.719  20.314  0.00  0.00    +0.000 NA
ATOM     22  C   UNL     1      -0.618  10.942  20.786  0.00  0.00    +0.000 A 
ATOM     23  C   UNL     1      -0.714  11.049  22.158  0.00  0.00    +0.000 A 
ATOM     24  S   UNL     1      -0.254   9.581  22.897  0.00  0.00    +0.000 S 
ATOM     25  C   UNL     1      -1.115  12.282  22.895  0.00  0.00    +0.000 C 
ATOM     26  C   UNL     1      -1.755  13.301  21.924  0.00  0.00    +0.000 C 
ATOM     27  C   UNL     1      -0.988  13.399  20.594  0.00  0.00    +0.000 C 
ATOM     28  C   UNL     1      -0.957  12.049  19.854  0.00  0.00    +0.000 C 
ENDBRANCH  19  20
ENDBRANCH   6  19
TORSDOF 5
ENDMDL
MODEL 8
REMARK VINA RESULT:      -7.0      4.251      9.346
REMARK  Name = 
REMARK  7 active torsions:
REMARK  status: ('A' for Active; 'I' for Inactive)
REMARK    1  A    between atoms: C_1  and  O_2
REMARK    2  A    between atoms: O_2  and  C_3
REMARK    3  A    between atoms: C_7  and  O_8
REMARK    4  A    between atoms: O_8  and  C_9
REMARK    5  A    between atoms: C_10  and  C_11
REMARK    6  A    between atoms: N_16  and  C_17
REMARK    7  A    between atoms: C_17  and  C_18
REMARK                            x       y       z     vdW  Elec       q    Type
REMARK                         _______ _______ _______ _____ _____    ______ ____
ROOT
ATOM      1  C   UNL     1       3.820   6.450  18.108  0.00  0.00    +0.000 A 
ATOM      2  C   UNL     1       3.378   5.985  19.333  0.00  0.00    +0.000 A 
ATOM      3  N   UNL     1       2.461   6.649  20.063  0.00  0.00    +0.000 NA
ATOM      4  N   UNL     1       1.968   7.801  19.559  0.00  0.00    +0.000 NA
ATOM      5  C   UNL     1       2.386   8.246  18.353  0.00  0.00    +0.000 A 
ATOM      6  N   UNL     1       1.852   9.401  17.801  0.00  0.00    +0.000 N 
ATOM      7  N   UNL     1       3.313   7.608  17.615  0.00  0.00    +0.000 NA
ATOM      8  H   UNL     1       1.969   9.336  16.794  0.00  0.00    +0.000 HD
ENDROOT
BRANCH   1  14
ATOM      9  C   UNL     1       4.557   4.438  16.725  0.00  0.00    +0.000 A 
ATOM     10  C   UNL     1       5.472   3.800  15.871  0.00  0.00    +0.000 A 
ATOM     11  C   UNL     1       6.713   4.363  15.620  0.00  0.00    +0.000 A 
ATOM     12  C   UNL     1       7.040   5.582  16.197  0.00  0.00    +0.000 A 
ATOM     13  C   UNL     1       6.113   6.278  16.994  0.00  0.00    +0.000 A 
ATOM     14  C   UNL     1       4.836   5.718  17.286  0.00  0.00    +0.000 A 
BRANCH   9  16
ATOM     15  C   UNL     1       3.386   2.607  17.697  0.00  0.00    +0.000 C 
ATOM     16  O   UNL     1       3.340   3.858  17.015  0.00  0.00    +0.000 OA
ENDBRANCH   9  16
BRANCH  13  17
ATOM     17  O   UNL     1       6.396   7.524  17.505  0.00  0.00    +0.000 OA
ATOM     18  C   UNL     1       7.767   7.877  17.651  0.00  0.00    +0.000 C 
ENDBRANCH  13  17
ENDBRANCH   1  14
BRANCH   6  19
ATOM     19  C   UNL     1       0.482   9.722  18.200  0.00  0.00    +0.000 C 
BRANCH  19  20
ATOM     20  C   UNL     1       0.406  10.910  19.139  0.00  0.00    +0.000 A 
ATOM     21  N   UNL     1      -0.162  10.856  20.333  0.00  0.00    +0.000 NA
ATOM     22  C   UNL     1      -0.076  12.089  20.939  0.00  0.00    +0.000 A 
ATOM     23  C   UNL     1       0.577  13.064  20.213  0.00  0.00    +0.000 A 
ATOM     24  S   UNL     1       1.096  12.434  18.714  0.00  0.00    +0.000 S 
ATOM     25  C   UNL     1       0.764  14.477  20.652  0.00  0.00    +0.000 C 
ATOM     26  C   UNL     1       0.457  14.614  22.161  0.00  0.00    +0.000 C 
ATOM     27  C   UNL     1      -0.798  13.826  22.574  0.00  0.00    +0.000 C 
ATOM     28  C   UNL     1      -0.642  12.320  22.294  0.00  0.00    +0.000 C 
ENDBRANCH  19  20
ENDBRANCH   6  19
TORSDOF 5
ENDMDL
MODEL 9
REMARK VINA RESULT:      -6.9      4.277      9.713
REMARK  Name = 
REMARK  7 active torsions:
REMARK  status: ('A' for Active; 'I' for Inactive)
REMARK    1  A    between atoms: C_1  and  O_2
REMARK    2  A    between atoms: O_2  and  C_3
REMARK    3  A    between atoms: C_7  and  O_8
REMARK    4  A    between atoms: O_8  and  C_9
REMARK    5  A    between atoms: C_10  and  C_11
REMARK    6  A    between atoms: N_16  and  C_17
REMARK    7  A    between atoms: C_17  and  C_18
REMARK                            x       y       z     vdW  Elec       q    Type
REMARK                         _______ _______ _______ _____ _____    ______ ____
ROOT
ATOM      1  C   UNL     1       3.821   6.369  17.969  0.00  0.00    +0.000 A 
ATOM      2  C   UNL     1       3.429   5.907  19.212  0.00  0.00    +0.000 A 
ATOM      3  N   UNL     1       2.578   6.596  19.997  0.00  0.00    +0.000 NA
ATOM      4  N   UNL     1       2.100   7.770  19.530  0.00  0.00    +0.000 NA
ATOM      5  C   UNL     1       2.467   8.212  18.306  0.00  0.00    +0.000 A 
ATOM      6  N   UNL     1       1.946   9.391  17.795  0.00  0.00    +0.000 N 
ATOM      7  N   UNL     1       3.329   7.550  17.514  0.00  0.00    +0.000 NA
ATOM      8  H   UNL     1       2.006   9.332  16.782  0.00  0.00    +0.000 HD
ENDROOT
BRANCH   1  14
ATOM      9  C   UNL     1       6.024   6.156  16.703  0.00  0.00    +0.000 A 
ATOM     10  C   UNL     1       6.949   5.403  15.960  0.00  0.00    +0.000 A 
ATOM     11  C   UNL     1       6.625   4.134  15.507  0.00  0.00    +0.000 A 
ATOM     12  C   UNL     1       5.383   3.596  15.816  0.00  0.00    +0.000 A 
ATOM     13  C   UNL     1       4.468   4.297  16.622  0.00  0.00    +0.000 A 
ATOM     14  C   UNL     1       4.765   5.610  17.087  0.00  0.00    +0.000 A 
BRANCH   9  16
ATOM     15  C   UNL     1       7.655   7.651  17.582  0.00  0.00    +0.000 C 
ATOM     16  O   UNL     1       6.325   7.437  17.114  0.00  0.00    +0.000 OA
ENDBRANCH   9  16
BRANCH  13  17
ATOM     17  O   UNL     1       3.268   3.741  17.000  0.00  0.00    +0.000 OA
ATOM     18  C   UNL     1       3.312   2.516  17.724  0.00  0.00    +0.000 C 
ENDBRANCH  13  17
ENDBRANCH   1  14
BRANCH   6  19
ATOM     19  C   UNL     1       0.612   9.756  18.269  0.00  0.00    +0.000 C 
BRANCH  19  20
ATOM     20  C   UNL     1       0.496  11.226  18.624  0.00  0.00    +0.000 A 
ATOM     21  N   UNL     1       1.512  12.071  18.552  0.00  0.00    +0.000 NA
ATOM     22  C   UNL     1       1.096  13.324  18.941  0.00  0.00    +0.000 A 
ATOM     23  C   UNL     1      -0.237  13.428  19.283  0.00  0.00    +0.000 A 
ATOM     24  S   UNL     1      -1.004  11.912  19.129  0.00  0.00    +0.000 S 
ATOM     25  C   UNL     1      -0.903  14.673  19.764  0.00  0.00    +0.000 C 
ATOM     26  C   UNL     1      -0.007  15.901  19.484  0.00  0.00    +0.000 C 
ATOM     27  C   UNL     1       1.472  15.630  19.809  0.00  0.00    +0.000 C 
ATOM     28  C   UNL     1       2.037  14.474  18.964  0.00  0.00    +0.000 C 
ENDBRANCH  19  20
ENDBRANCH   6  19
TORSDOF 5
ENDMDL
