MODEL 1
REMARK VINA RESULT:      -9.2      0.000      0.000
REMARK  Name = 
REMARK  7 active torsions:
REMARK  status: ('A' for Active; 'I' for Inactive)
REMARK    1  A    between atoms: C_1  and  C_2
REMARK    2  A    between atoms: C_2  and  C_3
REMARK    3  A    between atoms: C_10  and  C_11
REMARK    4  A    between atoms: C_11  and  C_13
REMARK    5  A    between atoms: C_14  and  C_15
REMARK    6  A    between atoms: C_18  and  O_19
REMARK    7  A    between atoms: C_22  and  O_23
REMARK                            x       y       z     vdW  Elec       q    Type
REMARK                         _______ _______ _______ _____ _____    ______ ____
ROOT
ATOM      1  C   UNL     1       2.142   4.322  21.227  0.00  0.00    +0.000 C 
ATOM      2  C   UNL     1       2.154   3.633  19.855  0.00  0.00    +0.000 C 
ATOM      3  C   UNL     1       0.834   2.879  19.655  0.00  0.00    +0.000 C 
ATOM      4  C   UNL     1       3.324   2.678  19.767  0.00  0.00    +0.000 C 
ATOM      5  C   UNL     1       4.481   3.029  19.189  0.00  0.00    +0.000 C 
ATOM      6  C   UNL     1       4.587   4.371  18.616  0.00  0.00    +0.000 A 
ATOM      7  C   UNL     1       3.410   5.105  18.449  0.00  0.00    +0.000 A 
ATOM      8  C   UNL     1       3.432   6.355  17.840  0.00  0.00    +0.000 A 
ATOM      9  C   UNL     1       4.644   6.911  17.427  0.00  0.00    +0.000 A 
ATOM     10  C   UNL     1       5.854   6.223  17.610  0.00  0.00    +0.000 A 
ATOM     11  C   UNL     1       5.808   4.938  18.201  0.00  0.00    +0.000 A 
ATOM     12  O   UNL     1       2.174   4.657  18.837  0.00  0.00    +0.000 OA
ENDROOT
BRANCH  10  13
ATOM     13  C   UNL     1       7.174   6.814  17.201  0.00  0.00    +0.000 C 
ATOM     14  O   UNL     1       7.734   6.383  16.196  0.00  0.00    +0.000 OA
BRANCH  13  15
ATOM     15  C   UNL     1       7.791   7.902  18.016  0.00  0.00    +0.000 C 
ATOM     16  C   UNL     1       8.077   9.097  17.476  0.00  0.00    +0.000 C 
BRANCH  16  17
ATOM     17  C   UNL     1       8.671  10.164  18.288  0.00  0.00    +0.000 A 
ATOM     18  C   UNL     1       8.741  11.477  17.804  0.00  0.00    +0.000 A 
ATOM     19  C   UNL     1       9.339  12.485  18.569  0.00  0.00    +0.000 A 
ATOM     20  C   UNL     1       9.866  12.174  19.818  0.00  0.00    +0.000 A 
ATOM     21  C   UNL     1       9.801  10.878  20.313  0.00  0.00    +0.000 A 
ATOM     22  C   UNL     1       9.206   9.872  19.548  0.00  0.00    +0.000 A 
BRANCH  20  23
ATOM     23  O   UNL     1      10.464  13.121  20.597  0.00  0.00    +0.000 OA
ATOM     24  H   UNL     1      11.198  12.711  21.082  0.00  0.00    +0.000 HD
ENDBRANCH  20  23
ENDBRANCH  16  17
ENDBRANCH  13  15
ENDBRANCH  10  13
BRANCH  11  25
ATOM     25  O   UNL     1       6.949   4.192  18.409  0.00  0.00    +0.000 OA
ATOM     26  H   UNL     1       7.431   4.118  17.554  0.00  0.00    +0.000 HD
ENDBRANCH  11  25
TORSDOF 5
ENDMDL
MODEL 2
REMARK VINA RESULT:      -8.9      0.591      1.128
REMARK  Name = 
REMARK  7 active torsions:
REMARK  status: ('A' for Active; 'I' for Inactive)
REMARK    1  A    between atoms: C_1  and  C_2
REMARK    2  A    between atoms: C_2  and  C_3
REMARK    3  A    between atoms: C_10  and  C_11
REMARK    4  A    between atoms: C_11  and  C_13
REMARK    5  A    between atoms: C_14  and  C_15
REMARK    6  A    between atoms: C_18  and  O_19
REMARK    7  A    between atoms: C_22  and  O_23
REMARK                            x       y       z     vdW  Elec       q    Type
REMARK                         _______ _______ _______ _____ _____    ______ ____
ROOT
ATOM      1  C   UNL     1       1.930   4.154  21.070  0.00  0.00    +0.000 C 
ATOM      2  C   UNL     1       1.890   3.554  19.658  0.00  0.00    +0.000 C 
ATOM      3  C   UNL     1       0.550   2.838  19.449  0.00  0.00    +0.000 C 
ATOM      4  C   UNL     1       3.038   2.585  19.476  0.00  0.00    +0.000 C 
ATOM      5  C   UNL     1       4.185   2.950  18.888  0.00  0.00    +0.000 C 
ATOM      6  C   UNL     1       4.302   4.324  18.398  0.00  0.00    +0.000 A 
ATOM      7  C   UNL     1       3.136   5.089  18.312  0.00  0.00    +0.000 A 
ATOM      8  C   UNL     1       3.166   6.375  17.784  0.00  0.00    +0.000 A 
ATOM      9  C   UNL     1       4.376   6.934  17.371  0.00  0.00    +0.000 A 
ATOM     10  C   UNL     1       5.578   6.213  17.475  0.00  0.00    +0.000 A 
ATOM     11  C   UNL     1       5.522   4.894  17.985  0.00  0.00    +0.000 A 
ATOM     12  O   UNL     1       1.902   4.640  18.707  0.00  0.00    +0.000 OA
ENDROOT
BRANCH  10  13
ATOM     13  C   UNL     1       6.897   6.805  17.066  0.00  0.00    +0.000 C 
ATOM     14  O   UNL     1       7.691   6.111  16.434  0.00  0.00    +0.000 OA
BRANCH  13  15
ATOM     15  C   UNL     1       7.232   8.212  17.435  0.00  0.00    +0.000 C 
ATOM     16  C   UNL     1       8.364   8.507  18.093  0.00  0.00    +0.000 C 
BRANCH  16  17
ATOM     17  C   UNL     1       8.690   9.895  18.440  0.00  0.00    +0.000 A 
ATOM     18  C   UNL     1       9.387  10.192  19.618  0.00  0.00    +0.000 A 
ATOM     19  C   UNL     1       9.667  11.521  19.961  0.00  0.00    +0.000 A 
ATOM     20  C   UNL     1       9.246  12.546  19.122  0.00  0.00    +0.000 A 
ATOM     21  C   UNL     1       8.556  12.267  17.949  0.00  0.00    +0.000 A 
ATOM     22  C   UNL     1       8.276  10.941  17.608  0.00  0.00    +0.000 A 
BRANCH  20  23
ATOM     23  O   UNL     1       9.490  13.856  19.418  0.00  0.00    +0.000 OA
ATOM     24  H   UNL     1      10.000  13.901  20.243  0.00  0.00    +0.000 HD
ENDBRANCH  20  23
ENDBRANCH  16  17
ENDBRANCH  13  15
ENDBRANCH  10  13
BRANCH  11  25
ATOM     25  O   UNL     1       6.653   4.116  18.111  0.00  0.00    +0.000 OA
ATOM     26  H   UNL     1       7.396   4.693  18.402  0.00  0.00    +0.000 HD
ENDBRANCH  11  25
TORSDOF 5
ENDMDL
MODEL 3
REMARK VINA RESULT:      -8.8      1.127      1.870
REMARK  Name = 
REMARK  7 active torsions:
REMARK  status: ('A' for Active; 'I' for Inactive)
REMARK    1  A    between atoms: C_1  and  C_2
REMARK    2  A    between atoms: C_2  and  C_3
REMARK    3  A    between atoms: C_10  and  C_11
REMARK    4  A    between atoms: C_11  and  C_13
REMARK    5  A    between atoms: C_14  and  C_15
REMARK    6  A    between atoms: C_18  and  O_19
REMARK    7  A    between atoms: C_22  and  O_23
REMARK                            x       y       z     vdW  Elec       q    Type
REMARK                         _______ _______ _______ _____ _____    ______ ____
ROOT
ATOM      1  C   UNL     1       2.488   2.183  18.182  0.00  0.00    +0.000 C 
ATOM      2  C   UNL     1       2.182   3.446  18.998  0.00  0.00    +0.000 C 
ATOM      3  C   UNL     1       1.084   3.134  20.022  0.00  0.00    +0.000 C 
ATOM      4  C   UNL     1       1.741   4.562  18.077  0.00  0.00    +0.000 C 
ATOM      5  C   UNL     1       2.595   5.498  17.641  0.00  0.00    +0.000 C 
ATOM      6  C   UNL     1       3.984   5.431  18.098  0.00  0.00    +0.000 A 
ATOM      7  C   UNL     1       4.280   4.582  19.166  0.00  0.00    +0.000 A 
ATOM      8  C   UNL     1       5.564   4.529  19.697  0.00  0.00    +0.000 A 
ATOM      9  C   UNL     1       6.586   5.296  19.136  0.00  0.00    +0.000 A 
ATOM     10  C   UNL     1       6.339   6.135  18.037  0.00  0.00    +0.000 A 
ATOM     11  C   UNL     1       5.019   6.200  17.531  0.00  0.00    +0.000 A 
ATOM     12  O   UNL     1       3.354   3.775  19.775  0.00  0.00    +0.000 OA
ENDROOT
BRANCH  10  13
ATOM     13  C   UNL     1       7.430   6.947  17.397  0.00  0.00    +0.000 C 
ATOM     14  O   UNL     1       7.779   6.675  16.250  0.00  0.00    +0.000 OA
BRANCH  13  15
ATOM     15  C   UNL     1       8.078   8.058  18.153  0.00  0.00    +0.000 C 
ATOM     16  C   UNL     1       8.155   9.296  17.640  0.00  0.00    +0.000 C 
BRANCH  16  17
ATOM     17  C   UNL     1       8.782  10.384  18.397  0.00  0.00    +0.000 A 
ATOM     18  C   UNL     1       8.921  11.659  17.834  0.00  0.00    +0.000 A 
ATOM     19  C   UNL     1       9.551  12.686  18.547  0.00  0.00    +0.000 A 
ATOM     20  C   UNL     1      10.040  12.431  19.824  0.00  0.00    +0.000 A 
ATOM     21  C   UNL     1       9.908  11.172  20.396  0.00  0.00    +0.000 A 
ATOM     22  C   UNL     1       9.281  10.148  19.683  0.00  0.00    +0.000 A 
BRANCH  20  23
ATOM     23  O   UNL     1      10.667  13.398  20.554  0.00  0.00    +0.000 OA
ATOM     24  H   UNL     1      10.453  14.266  20.174  0.00  0.00    +0.000 HD
ENDBRANCH  20  23
ENDBRANCH  16  17
ENDBRANCH  13  15
ENDBRANCH  10  13
BRANCH  11  25
ATOM     25  O   UNL     1       4.690   7.005  16.461  0.00  0.00    +0.000 OA
ATOM     26  H   UNL     1       5.522   7.356  16.069  0.00  0.00    +0.000 HD
ENDBRANCH  11  25
TORSDOF 5
ENDMDL
MODEL 4
REMARK VINA RESULT:      -8.5      1.111      2.152
REMARK  Name = 
REMARK  7 active torsions:
REMARK  status: ('A' for Active; 'I' for Inactive)
REMARK    1  A    between atoms: C_1  and  C_2
REMARK    2  A    between atoms: C_2  and  C_3
REMARK    3  A    between atoms: C_10  and  C_11
REMARK    4  A    between atoms: C_11  and  C_13
REMARK    5  A    between atoms: C_14  and  C_15
REMARK    6  A    between atoms: C_18  and  O_19
REMARK    7  A    between atoms: C_22  and  O_23
REMARK                            x       y       z     vdW  Elec       q    Type
REMARK                         _______ _______ _______ _____ _____    ______ ____
ROOT
ATOM      1  C   UNL     1       1.905   2.678  18.149  0.00  0.00    +0.000 C 
ATOM      2  C   UNL     1       1.820   3.898  19.077  0.00  0.00    +0.000 C 
ATOM      3  C   UNL     1       0.765   3.639  20.159  0.00  0.00    +0.000 C 
ATOM      4  C   UNL     1       1.464   5.131  18.278  0.00  0.00    +0.000 C 
ATOM      5  C   UNL     1       2.398   5.988  17.846  0.00  0.00    +0.000 C 
ATOM      6  C   UNL     1       3.795   5.715  18.185  0.00  0.00    +0.000 A 
ATOM      7  C   UNL     1       4.054   4.750  19.162  0.00  0.00    +0.000 A 
ATOM      8  C   UNL     1       5.354   4.497  19.584  0.00  0.00    +0.000 A 
ATOM      9  C   UNL     1       6.424   5.177  19.002  0.00  0.00    +0.000 A 
ATOM     10  C   UNL     1       6.211   6.128  17.990  0.00  0.00    +0.000 A 
ATOM     11  C   UNL     1       4.878   6.396  17.596  0.00  0.00    +0.000 A 
ATOM     12  O   UNL     1       3.076   4.015  19.781  0.00  0.00    +0.000 OA
ENDROOT
BRANCH  10  13
ATOM     13  C   UNL     1       7.350   6.850  17.327  0.00  0.00    +0.000 C 
ATOM     14  O   UNL     1       7.683   6.521  16.190  0.00  0.00    +0.000 OA
BRANCH  13  15
ATOM     15  C   UNL     1       8.065   7.944  18.049  0.00  0.00    +0.000 C 
ATOM     16  C   UNL     1       8.022   9.211  17.608  0.00  0.00    +0.000 C 
BRANCH  16  17
ATOM     17  C   UNL     1       8.717  10.281  18.332  0.00  0.00    +0.000 A 
ATOM     18  C   UNL     1       9.348  10.023  19.556  0.00  0.00    +0.000 A 
ATOM     19  C   UNL     1       9.981  11.054  20.260  0.00  0.00    +0.000 A 
ATOM     20  C   UNL     1       9.980  12.342  19.733  0.00  0.00    +0.000 A 
ATOM     21  C   UNL     1       9.361  12.612  18.520  0.00  0.00    +0.000 A 
ATOM     22  C   UNL     1       8.727  11.583  17.819  0.00  0.00    +0.000 A 
BRANCH  20  23
ATOM     23  O   UNL     1      10.579  13.380  20.386  0.00  0.00    +0.000 OA
ATOM     24  H   UNL     1      10.391  14.202  19.904  0.00  0.00    +0.000 HD
ENDBRANCH  20  23
ENDBRANCH  16  17
ENDBRANCH  13  15
ENDBRANCH  10  13
BRANCH  11  25
ATOM     25  O   UNL     1       4.583   7.320  16.617  0.00  0.00    +0.000 OA
ATOM     26  H   UNL     1       3.963   7.985  16.994  0.00  0.00    +0.000 HD
ENDBRANCH  11  25
TORSDOF 5
ENDMDL
MODEL 5
REMARK VINA RESULT:      -7.8      5.963      8.898
REMARK  Name = 
REMARK  7 active torsions:
REMARK  status: ('A' for Active; 'I' for Inactive)
REMARK    1  A    between atoms: C_1  and  C_2
REMARK    2  A    between atoms: C_2  and  C_3
REMARK    3  A    between atoms: C_10  and  C_11
REMARK    4  A    between atoms: C_11  and  C_13
REMARK    5  A    between atoms: C_14  and  C_15
REMARK    6  A    between atoms: C_18  and  O_19
REMARK    7  A    between atoms: C_22  and  O_23
REMARK                            x       y       z     vdW  Elec       q    Type
REMARK                         _______ _______ _______ _____ _____    ______ ____
ROOT
ATOM      1  C   UNL     1       1.539   4.085  17.761  0.00  0.00    +0.000 C 
ATOM      2  C   UNL     1       2.801   4.607  18.463  0.00  0.00    +0.000 C 
ATOM      3  C   UNL     1       3.975   3.669  18.157  0.00  0.00    +0.000 C 
ATOM      4  C   UNL     1       2.567   4.688  19.955  0.00  0.00    +0.000 C 
ATOM      5  C   UNL     1       2.209   5.831  20.553  0.00  0.00    +0.000 C 
ATOM      6  C   UNL     1       2.066   7.029  19.724  0.00  0.00    +0.000 A 
ATOM      7  C   UNL     1       2.575   6.988  18.423  0.00  0.00    +0.000 A 
ATOM      8  C   UNL     1       2.540   8.115  17.610  0.00  0.00    +0.000 A 
ATOM      9  C   UNL     1       1.953   9.294  18.073  0.00  0.00    +0.000 A 
ATOM     10  C   UNL     1       1.396   9.367  19.360  0.00  0.00    +0.000 A 
ATOM     11  C   UNL     1       1.471   8.219  20.185  0.00  0.00    +0.000 A 
ATOM     12  O   UNL     1       3.153   5.875  17.869  0.00  0.00    +0.000 OA
ENDROOT
BRANCH  10  13
ATOM     13  C   UNL     1       0.731  10.615  19.869  0.00  0.00    +0.000 C 
ATOM     14  O   UNL     1       1.362  11.367  20.608  0.00  0.00    +0.000 OA
BRANCH  13  15
ATOM     15  C   UNL     1      -0.677  10.923  19.482  0.00  0.00    +0.000 C 
ATOM     16  C   UNL     1      -1.108  10.742  18.223  0.00  0.00    +0.000 C 
BRANCH  16  17
ATOM     17  C   UNL     1      -2.497  11.036  17.856  0.00  0.00    +0.000 A 
ATOM     18  C   UNL     1      -2.969  10.761  16.567  0.00  0.00    +0.000 A 
ATOM     19  C   UNL     1      -4.287  11.074  16.211  0.00  0.00    +0.000 A 
ATOM     20  C   UNL     1      -5.127  11.662  17.150  0.00  0.00    +0.000 A 
ATOM     21  C   UNL     1      -4.673  11.939  18.434  0.00  0.00    +0.000 A 
ATOM     22  C   UNL     1      -3.358  11.628  18.787  0.00  0.00    +0.000 A 
BRANCH  20  23
ATOM     23  O   UNL     1      -6.416  11.991  16.848  0.00  0.00    +0.000 OA
ATOM     24  H   UNL     1      -7.008  11.327  17.238  0.00  0.00    +0.000 HD
ENDBRANCH  20  23
ENDBRANCH  16  17
ENDBRANCH  13  15
ENDBRANCH  10  13
BRANCH  11  25
ATOM     25  O   UNL     1       0.956   8.210  21.464  0.00  0.00    +0.000 OA
ATOM     26  H   UNL     1       1.642   7.851  22.073  0.00  0.00    +0.000 HD
ENDBRANCH  11  25
TORSDOF 5
ENDMDL
MODEL 6
REMARK VINA RESULT:      -7.8      6.108      9.022
REMARK  Name = 
REMARK  7 active torsions:
REMARK  status: ('A' for Active; 'I' for Inactive)
REMARK    1  A    between atoms: C_1  and  C_2
REMARK    2  A    between atoms: C_2  and  C_3
REMARK    3  A    between atoms: C_10  and  C_11
REMARK    4  A    between atoms: C_11  and  C_13
REMARK    5  A    between atoms: C_14  and  C_15
REMARK    6  A    between atoms: C_18  and  O_19
REMARK    7  A    between atoms: C_22  and  O_23
REMARK                            x       y       z     vdW  Elec       q    Type
REMARK                         _______ _______ _______ _____ _____    ______ ____
ROOT
ATOM      1  C   UNL     1       1.560   4.221  17.766  0.00  0.00    +0.000 C 
ATOM      2  C   UNL     1       2.836   4.788  18.404  0.00  0.00    +0.000 C 
ATOM      3  C   UNL     1       4.037   3.934  17.981  0.00  0.00    +0.000 C 
ATOM      4  C   UNL     1       2.701   4.797  19.910  0.00  0.00    +0.000 C 
ATOM      5  C   UNL     1       2.321   5.893  20.580  0.00  0.00    +0.000 C 
ATOM      6  C   UNL     1       2.054   7.111  19.814  0.00  0.00    +0.000 A 
ATOM      7  C   UNL     1       2.474   7.151  18.482  0.00  0.00    +0.000 A 
ATOM      8  C   UNL     1       2.320   8.305  17.723  0.00  0.00    +0.000 A 
ATOM      9  C   UNL     1       1.701   9.428  18.273  0.00  0.00    +0.000 A 
ATOM     10  C   UNL     1       1.231   9.418  19.596  0.00  0.00    +0.000 A 
ATOM     11  C   UNL     1       1.426   8.245  20.365  0.00  0.00    +0.000 A 
ATOM     12  O   UNL     1       3.075   6.097  17.844  0.00  0.00    +0.000 OA
ENDROOT
BRANCH  10  13
ATOM     13  C   UNL     1       0.533  10.604  20.201  0.00  0.00    +0.000 C 
ATOM     14  O   UNL     1       1.126  11.280  21.039  0.00  0.00    +0.000 OA
BRANCH  13  15
ATOM     15  C   UNL     1      -0.861  10.942  19.789  0.00  0.00    +0.000 C 
ATOM     16  C   UNL     1      -1.212  10.986  18.494  0.00  0.00    +0.000 C 
BRANCH  16  17
ATOM     17  C   UNL     1      -2.587  11.306  18.100  0.00  0.00    +0.000 A 
ATOM     18  C   UNL     1      -3.492  11.836  19.029  0.00  0.00    +0.000 A 
ATOM     19  C   UNL     1      -4.814  12.110  18.657  0.00  0.00    +0.000 A 
ATOM     20  C   UNL     1      -5.224  11.850  17.353  0.00  0.00    +0.000 A 
ATOM     21  C   UNL     1      -4.338  11.328  16.420  0.00  0.00    +0.000 A 
ATOM     22  C   UNL     1      -3.020  11.053  16.793  0.00  0.00    +0.000 A 
BRANCH  20  23
ATOM     23  O   UNL     1      -6.503  12.094  16.946  0.00  0.00    +0.000 OA
ATOM     24  H   UNL     1      -7.005  12.463  17.692  0.00  0.00    +0.000 HD
ENDBRANCH  20  23
ENDBRANCH  16  17
ENDBRANCH  13  15
ENDBRANCH  10  13
BRANCH  11  25
ATOM     25  O   UNL     1       1.002   8.156  21.673  0.00  0.00    +0.000 OA
ATOM     26  H   UNL     1       0.764   9.058  21.986  0.00  0.00    +0.000 HD
ENDBRANCH  11  25
TORSDOF 5
ENDMDL
MODEL 7
REMARK VINA RESULT:      -7.6      5.204      8.537
REMARK  Name = 
REMARK  7 active torsions:
REMARK  status: ('A' for Active; 'I' for Inactive)
REMARK    1  A    between atoms: C_1  and  C_2
REMARK    2  A    between atoms: C_2  and  C_3
REMARK    3  A    between atoms: C_10  and  C_11
REMARK    4  A    between atoms: C_11  and  C_13
REMARK    5  A    between atoms: C_14  and  C_15
REMARK    6  A    between atoms: C_18  and  O_19
REMARK    7  A    between atoms: C_22  and  O_23
REMARK                            x       y       z     vdW  Elec       q    Type
REMARK                         _______ _______ _______ _____ _____    ______ ____
ROOT
ATOM      1  C   UNL     1      -0.626  13.071  22.498  0.00  0.00    +0.000 C 
ATOM      2  C   UNL     1      -1.492  11.808  22.396  0.00  0.00    +0.000 C 
ATOM      3  C   UNL     1      -2.883  12.099  22.972  0.00  0.00    +0.000 C 
ATOM      4  C   UNL     1      -0.839  10.671  23.150  0.00  0.00    +0.000 C 
ATOM      5  C   UNL     1      -0.082   9.755  22.531  0.00  0.00    +0.000 C 
ATOM      6  C   UNL     1       0.087   9.865  21.081  0.00  0.00    +0.000 A 
ATOM      7  C   UNL     1      -0.761  10.733  20.388  0.00  0.00    +0.000 A 
ATOM      8  C   UNL     1      -0.704  10.827  19.002  0.00  0.00    +0.000 A 
ATOM      9  C   UNL     1       0.236  10.083  18.289  0.00  0.00    +0.000 A 
ATOM     10  C   UNL     1       1.132   9.226  18.949  0.00  0.00    +0.000 A 
ATOM     11  C   UNL     1       1.037   9.119  20.357  0.00  0.00    +0.000 A 
ATOM     12  O   UNL     1      -1.704  11.520  20.997  0.00  0.00    +0.000 OA
ENDROOT
BRANCH  10  13
ATOM     13  C   UNL     1       2.174   8.439  18.205  0.00  0.00    +0.000 C 
ATOM     14  O   UNL     1       2.949   9.033  17.458  0.00  0.00    +0.000 OA
BRANCH  13  15
ATOM     15  C   UNL     1       2.252   6.957  18.371  0.00  0.00    +0.000 C 
ATOM     16  C   UNL     1       3.284   6.256  17.876  0.00  0.00    +0.000 C 
BRANCH  16  17
ATOM     17  C   UNL     1       3.358   4.803  18.055  0.00  0.00    +0.000 A 
ATOM     18  C   UNL     1       2.452   3.955  17.404  0.00  0.00    +0.000 A 
ATOM     19  C   UNL     1       2.505   2.570  17.604  0.00  0.00    +0.000 A 
ATOM     20  C   UNL     1       3.467   2.040  18.458  0.00  0.00    +0.000 A 
ATOM     21  C   UNL     1       4.373   2.867  19.108  0.00  0.00    +0.000 A 
ATOM     22  C   UNL     1       4.318   4.249  18.909  0.00  0.00    +0.000 A 
BRANCH  20  23
ATOM     23  O   UNL     1       3.553   0.698  18.689  0.00  0.00    +0.000 OA
ATOM     24  H   UNL     1       3.084   0.227  17.980  0.00  0.00    +0.000 HD
ENDBRANCH  20  23
ENDBRANCH  16  17
ENDBRANCH  13  15
ENDBRANCH  10  13
BRANCH  11  25
ATOM     25  O   UNL     1       1.873   8.295  21.081  0.00  0.00    +0.000 OA
ATOM     26  H   UNL     1       2.781   8.368  20.708  0.00  0.00    +0.000 HD
ENDBRANCH  11  25
TORSDOF 5
ENDMDL
MODEL 8
REMARK VINA RESULT:      -7.6      1.275      2.094
REMARK  Name = 
REMARK  7 active torsions:
REMARK  status: ('A' for Active; 'I' for Inactive)
REMARK    1  A    between atoms: C_1  and  C_2
REMARK    2  A    between atoms: C_2  and  C_3
REMARK    3  A    between atoms: C_10  and  C_11
REMARK    4  A    between atoms: C_11  and  C_13
REMARK    5  A    between atoms: C_14  and  C_15
REMARK    6  A    between atoms: C_18  and  O_19
REMARK    7  A    between atoms: C_22  and  O_23
REMARK                            x       y       z     vdW  Elec       q    Type
REMARK                         _______ _______ _______ _____ _____    ______ ____
ROOT
ATOM      1  C   UNL     1       1.087   2.685  19.293  0.00  0.00    +0.000 C 
ATOM      2  C   UNL     1       1.836   3.445  20.396  0.00  0.00    +0.000 C 
ATOM      3  C   UNL     1       1.508   2.817  21.756  0.00  0.00    +0.000 C 
ATOM      4  C   UNL     1       1.437   4.904  20.381  0.00  0.00    +0.000 C 
ATOM      5  C   UNL     1       2.173   5.832  19.755  0.00  0.00    +0.000 C 
ATOM      6  C   UNL     1       3.405   5.403  19.091  0.00  0.00    +0.000 A 
ATOM      7  C   UNL     1       3.890   4.124  19.377  0.00  0.00    +0.000 A 
ATOM      8  C   UNL     1       5.095   3.685  18.839  0.00  0.00    +0.000 A 
ATOM      9  C   UNL     1       5.813   4.504  17.968  0.00  0.00    +0.000 A 
ATOM     10  C   UNL     1       5.342   5.782  17.624  0.00  0.00    +0.000 A 
ATOM     11  C   UNL     1       4.130   6.225  18.208  0.00  0.00    +0.000 A 
ATOM     12  O   UNL     1       3.252   3.237  20.205  0.00  0.00    +0.000 OA
ENDROOT
BRANCH  10  13
ATOM     13  C   UNL     1       6.082   6.670  16.664  0.00  0.00    +0.000 C 
ATOM     14  O   UNL     1       6.228   6.299  15.501  0.00  0.00    +0.000 OA
BRANCH  13  15
ATOM     15  C   UNL     1       6.634   7.977  17.127  0.00  0.00    +0.000 C 
ATOM     16  C   UNL     1       7.813   8.045  17.766  0.00  0.00    +0.000 C 
BRANCH  16  17
ATOM     17  C   UNL     1       8.353   9.335  18.207  0.00  0.00    +0.000 A 
ATOM     18  C   UNL     1       8.035  10.515  17.522  0.00  0.00    +0.000 A 
ATOM     19  C   UNL     1       8.580  11.740  17.926  0.00  0.00    +0.000 A 
ATOM     20  C   UNL     1       9.443  11.778  19.015  0.00  0.00    +0.000 A 
ATOM     21  C   UNL     1       9.766  10.617  19.706  0.00  0.00    +0.000 A 
ATOM     22  C   UNL     1       9.224   9.395  19.301  0.00  0.00    +0.000 A 
BRANCH  20  23
ATOM     23  O   UNL     1      10.004  12.946  19.441  0.00  0.00    +0.000 OA
ATOM     24  H   UNL     1       9.294  13.574  19.658  0.00  0.00    +0.000 HD
ENDBRANCH  20  23
ENDBRANCH  16  17
ENDBRANCH  13  15
ENDBRANCH  10  13
BRANCH  11  25
ATOM     25  O   UNL     1       3.603   7.468  17.930  0.00  0.00    +0.000 OA
ATOM     26  H   UNL     1       2.654   7.469  18.191  0.00  0.00    +0.000 HD
ENDBRANCH  11  25
TORSDOF 5
ENDMDL
MODEL 9
REMARK VINA RESULT:      -7.5      5.900      8.897
REMARK  Name = 
REMARK  7 active torsions:
REMARK  status: ('A' for Active; 'I' for Inactive)
REMARK    1  A    between atoms: C_1  and  C_2
REMARK    2  A    between atoms: C_2  and  C_3
REMARK    3  A    between atoms: C_10  and  C_11
REMARK    4  A    between atoms: C_11  and  C_13
REMARK    5  A    between atoms: C_14  and  C_15
REMARK    6  A    between atoms: C_18  and  O_19
REMARK    7  A    between atoms: C_22  and  O_23
REMARK                            x       y       z     vdW  Elec       q    Type
REMARK                         _______ _______ _______ _____ _____    ______ ____
ROOT
ATOM      1  C   UNL     1       5.402   5.324  19.421  0.00  0.00    +0.000 C 
ATOM      2  C   UNL     1       4.113   4.982  18.661  0.00  0.00    +0.000 C 
ATOM      3  C   UNL     1       4.097   3.483  18.340  0.00  0.00    +0.000 C 
ATOM      4  C   UNL     1       4.033   5.794  17.388  0.00  0.00    +0.000 C 
ATOM      5  C   UNL     1       3.333   6.934  17.319  0.00  0.00    +0.000 C 
ATOM      6  C   UNL     1       2.617   7.377  18.515  0.00  0.00    +0.000 A 
ATOM      7  C   UNL     1       2.467   6.465  19.563  0.00  0.00    +0.000 A 
ATOM      8  C   UNL     1       1.733   6.798  20.696  0.00  0.00    +0.000 A 
ATOM      9  C   UNL     1       1.170   8.069  20.817  0.00  0.00    +0.000 A 
ATOM     10  C   UNL     1       1.328   9.028  19.803  0.00  0.00    +0.000 A 
ATOM     11  C   UNL     1       2.051   8.660  18.644  0.00  0.00    +0.000 A 
ATOM     12  O   UNL     1       2.996   5.200  19.550  0.00  0.00    +0.000 OA
ENDROOT
BRANCH  10  13
ATOM     13  C   UNL     1       0.757  10.413  19.925  0.00  0.00    +0.000 C 
ATOM     14  O   UNL     1       1.473  11.317  20.353  0.00  0.00    +0.000 OA
BRANCH  13  15
ATOM     15  C   UNL     1      -0.660  10.676  19.538  0.00  0.00    +0.000 C 
ATOM     16  C   UNL     1      -1.012  10.828  18.252  0.00  0.00    +0.000 C 
BRANCH  16  17
ATOM     17  C   UNL     1      -2.410  11.073  17.880  0.00  0.00    +0.000 A 
ATOM     18  C   UNL     1      -2.870  10.774  16.591  0.00  0.00    +0.000 A 
ATOM     19  C   UNL     1      -4.196  11.041  16.231  0.00  0.00    +0.000 A 
ATOM     20  C   UNL     1      -5.057  11.607  17.166  0.00  0.00    +0.000 A 
ATOM     21  C   UNL     1      -4.616  11.906  18.448  0.00  0.00    +0.000 A 
ATOM     22  C   UNL     1      -3.292  11.642  18.806  0.00  0.00    +0.000 A 
BRANCH  20  23
ATOM     23  O   UNL     1      -6.356  11.890  16.859  0.00  0.00    +0.000 OA
ATOM     24  H   UNL     1      -6.764  12.348  17.613  0.00  0.00    +0.000 HD
ENDBRANCH  20  23
ENDBRANCH  16  17
ENDBRANCH  13  15
ENDBRANCH  10  13
BRANCH  11  25
ATOM     25  O   UNL     1       2.244   9.540  17.600  0.00  0.00    +0.000 OA
ATOM     26  H   UNL     1       1.481  10.160  17.570  0.00  0.00    +0.000 HD
ENDBRANCH  11  25
TORSDOF 5
ENDMDL
