MODEL 1
REMARK VINA RESULT:      -8.2      0.000      0.000
REMARK  Name = 
REMARK  2 active torsions:
REMARK  status: ('A' for Active; 'I' for Inactive)
REMARK    1  A    between atoms: C_8  and  C_9
REMARK    2  A    between atoms: C_12  and  C_13
REMARK                            x       y       z     vdW  Elec       q    Type
REMARK                         _______ _______ _______ _____ _____    ______ ____
ROOT
ATOM      1  C   UNL     1       4.199   5.369  19.470  0.00  0.00    +0.000 A 
ATOM      2  C   UNL     1       3.169   4.466  19.701  0.00  0.00    +0.000 A 
ATOM      3  C   UNL     1       1.998   5.209  20.000  0.00  0.00    +0.000 A 
ATOM      4  C   UNL     1       2.351   6.538  19.940  0.00  0.00    +0.000 A 
ATOM      5  O   UNL     1       3.669   6.630  19.605  0.00  0.00    +0.000 OA
ENDROOT
BRANCH   1  13
ATOM      6  O   UNL     1       8.279   4.482  18.411  0.00  0.00    +0.000 OA
ATOM      7  C   UNL     1       7.387   4.539  17.582  0.00  0.00    +0.000 C 
ATOM      8  N   UNL     1       7.557   4.330  16.242  0.00  0.00    +0.000 N 
ATOM      9  C   UNL     1       6.467   4.434  15.433  0.00  0.00    +0.000 C 
ATOM     10  S   UNL     1       6.518   4.227  13.791  0.00  0.00    +0.000 S 
ATOM     11  S   UNL     1       5.059   4.814  16.391  0.00  0.00    +0.000 S 
ATOM     12  C   UNL     1       5.959   4.841  17.867  0.00  0.00    +0.000 C 
ATOM     13  C   UNL     1       5.549   5.106  19.113  0.00  0.00    +0.000 C 
ATOM     14  H   UNL     1       8.470   4.108  15.874  0.00  0.00    +0.000 HD
ENDBRANCH   1  13
BRANCH   4  15
ATOM     15  C   UNL     1       1.672   7.820  20.136  0.00  0.00    +0.000 A 
ATOM     16  C   UNL     1       1.079   8.079  21.389  0.00  0.00    +0.000 A 
ATOM     17  C   UNL     1       0.407   9.278  21.634  0.00  0.00    +0.000 A 
ATOM     18 CL   UNL     1      -0.307   9.561  23.173  0.00  0.00    +0.000 Cl
ATOM     19  C   UNL     1       0.310  10.246  20.643  0.00  0.00    +0.000 A 
ATOM     20  C   UNL     1       0.890  10.010  19.396  0.00  0.00    +0.000 A 
ATOM     21  C   UNL     1       1.565   8.807  19.139  0.00  0.00    +0.000 A 
ATOM     22 CL   UNL     1       2.195   8.612  17.539  0.00  0.00    +0.000 Cl
ENDBRANCH   4  15
TORSDOF 2
ENDMDL
MODEL 2
REMARK VINA RESULT:      -7.6      4.884      7.835
REMARK  Name = 
REMARK  2 active torsions:
REMARK  status: ('A' for Active; 'I' for Inactive)
REMARK    1  A    between atoms: C_8  and  C_9
REMARK    2  A    between atoms: C_12  and  C_13
REMARK                            x       y       z     vdW  Elec       q    Type
REMARK                         _______ _______ _______ _____ _____    ______ ____
ROOT
ATOM      1  C   UNL     1       0.919   9.624  19.930  0.00  0.00    +0.000 A 
ATOM      2  C   UNL     1       0.863   9.067  21.201  0.00  0.00    +0.000 A 
ATOM      3  C   UNL     1       1.490   7.796  21.147  0.00  0.00    +0.000 A 
ATOM      4  C   UNL     1       1.909   7.620  19.847  0.00  0.00    +0.000 A 
ATOM      5  O   UNL     1       1.579   8.728  19.124  0.00  0.00    +0.000 OA
ENDROOT
BRANCH   1  13
ATOM      6  O   UNL     1      -0.439  13.469  18.541  0.00  0.00    +0.000 OA
ATOM      7  C   UNL     1      -0.906  12.422  18.124  0.00  0.00    +0.000 C 
ATOM      8  N   UNL     1      -1.891  12.332  17.181  0.00  0.00    +0.000 N 
ATOM      9  C   UNL     1      -2.317  11.091  16.816  0.00  0.00    +0.000 C 
ATOM     10  S   UNL     1      -3.513  10.821  15.704  0.00  0.00    +0.000 S 
ATOM     11  S   UNL     1      -1.421   9.880  17.696  0.00  0.00    +0.000 S 
ATOM     12  C   UNL     1      -0.493  11.060  18.553  0.00  0.00    +0.000 C 
ATOM     13  C   UNL     1       0.447  10.891  19.492  0.00  0.00    +0.000 C 
ATOM     14  H   UNL     1      -2.285  13.167  16.776  0.00  0.00    +0.000 HD
ENDBRANCH   1  13
BRANCH   4  15
ATOM     15  C   UNL     1       2.601   6.573  19.094  0.00  0.00    +0.000 A 
ATOM     16  C   UNL     1       3.434   6.957  18.023  0.00  0.00    +0.000 A 
ATOM     17  C   UNL     1       4.113   6.005  17.260  0.00  0.00    +0.000 A 
ATOM     18 CL   UNL     1       5.119   6.508  15.959  0.00  0.00    +0.000 Cl
ATOM     19  C   UNL     1       3.981   4.651  17.544  0.00  0.00    +0.000 A 
ATOM     20  C   UNL     1       3.161   4.250  18.600  0.00  0.00    +0.000 A 
ATOM     21  C   UNL     1       2.473   5.200  19.370  0.00  0.00    +0.000 A 
ATOM     22 CL   UNL     1       1.449   4.573  20.617  0.00  0.00    +0.000 Cl
ENDBRANCH   4  15
TORSDOF 2
ENDMDL
MODEL 3
REMARK VINA RESULT:      -7.4      4.776      7.454
REMARK  Name = 
REMARK  2 active torsions:
REMARK  status: ('A' for Active; 'I' for Inactive)
REMARK    1  A    between atoms: C_8  and  C_9
REMARK    2  A    between atoms: C_12  and  C_13
REMARK                            x       y       z     vdW  Elec       q    Type
REMARK                         _______ _______ _______ _____ _____    ______ ____
ROOT
ATOM      1  C   UNL     1       2.346   8.166  17.936  0.00  0.00    +0.000 A 
ATOM      2  C   UNL     1       3.634   8.196  17.416  0.00  0.00    +0.000 A 
ATOM      3  C   UNL     1       4.160   6.881  17.480  0.00  0.00    +0.000 A 
ATOM      4  C   UNL     1       3.177   6.092  18.035  0.00  0.00    +0.000 A 
ATOM      5  O   UNL     1       2.084   6.864  18.291  0.00  0.00    +0.000 OA
ENDROOT
BRANCH   1  13
ATOM      6  O   UNL     1      -0.556  11.330  18.286  0.00  0.00    +0.000 OA
ATOM      7  C   UNL     1      -0.199  10.663  19.243  0.00  0.00    +0.000 C 
ATOM      8  N   UNL     1      -0.664  10.822  20.518  0.00  0.00    +0.000 N 
ATOM      9  C   UNL     1      -0.168  10.006  21.488  0.00  0.00    +0.000 C 
ATOM     10  S   UNL     1      -0.617  10.089  23.079  0.00  0.00    +0.000 S 
ATOM     11  S   UNL     1       0.987   8.898  20.790  0.00  0.00    +0.000 S 
ATOM     12  C   UNL     1       0.796   9.559  19.203  0.00  0.00    +0.000 C 
ATOM     13  C   UNL     1       1.412   9.229  18.062  0.00  0.00    +0.000 C 
ATOM     14  H   UNL     1      -1.353  11.529  20.724  0.00  0.00    +0.000 HD
ENDBRANCH   1  13
BRANCH   4  15
ATOM     15  C   UNL     1       3.035   4.680  18.390  0.00  0.00    +0.000 A 
ATOM     16  C   UNL     1       2.299   4.351  19.547  0.00  0.00    +0.000 A 
ATOM     17  C   UNL     1       2.136   3.023  19.946  0.00  0.00    +0.000 A 
ATOM     18 CL   UNL     1       1.234   2.658  21.364  0.00  0.00    +0.000 Cl
ATOM     19  C   UNL     1       2.699   1.992  19.204  0.00  0.00    +0.000 A 
ATOM     20  C   UNL     1       3.431   2.294  18.056  0.00  0.00    +0.000 A 
ATOM     21  C   UNL     1       3.602   3.626  17.649  0.00  0.00    +0.000 A 
ATOM     22 CL   UNL     1       4.574   3.875  16.238  0.00  0.00    +0.000 Cl
ENDBRANCH   4  15
TORSDOF 2
ENDMDL
MODEL 4
REMARK VINA RESULT:      -7.3      5.095      8.200
REMARK  Name = 
REMARK  2 active torsions:
REMARK  status: ('A' for Active; 'I' for Inactive)
REMARK    1  A    between atoms: C_8  and  C_9
REMARK    2  A    between atoms: C_12  and  C_13
REMARK                            x       y       z     vdW  Elec       q    Type
REMARK                         _______ _______ _______ _____ _____    ______ ____
ROOT
ATOM      1  C   UNL     1       1.603   8.529  19.961  0.00  0.00    +0.000 A 
ATOM      2  C   UNL     1       1.361   9.204  18.772  0.00  0.00    +0.000 A 
ATOM      3  C   UNL     1       2.012   8.497  17.730  0.00  0.00    +0.000 A 
ATOM      4  C   UNL     1       2.628   7.414  18.316  0.00  0.00    +0.000 A 
ATOM      5  O   UNL     1       2.365   7.428  19.653  0.00  0.00    +0.000 OA
ENDROOT
BRANCH   1  13
ATOM      6  O   UNL     1       0.282   9.518  23.940  0.00  0.00    +0.000 OA
ATOM      7  C   UNL     1      -0.135  10.097  22.951  0.00  0.00    +0.000 C 
ATOM      8  N   UNL     1      -1.048  11.114  22.973  0.00  0.00    +0.000 N 
ATOM      9  C   UNL     1      -1.426  11.662  21.786  0.00  0.00    +0.000 C 
ATOM     10  S   UNL     1      -2.534  12.884  21.649  0.00  0.00    +0.000 S 
ATOM     11  S   UNL     1      -0.574  10.878  20.479  0.00  0.00    +0.000 S 
ATOM     12  C   UNL     1       0.270   9.813  21.549  0.00  0.00    +0.000 C 
ATOM     13  C   UNL     1       1.142   8.838  21.269  0.00  0.00    +0.000 C 
ATOM     14  H   UNL     1      -1.427  11.438  23.850  0.00  0.00    +0.000 HD
ENDBRANCH   1  13
BRANCH   4  15
ATOM     15  C   UNL     1       3.455   6.296  17.859  0.00  0.00    +0.000 A 
ATOM     16  C   UNL     1       4.792   6.557  17.494  0.00  0.00    +0.000 A 
ATOM     17  C   UNL     1       5.629   5.536  17.040  0.00  0.00    +0.000 A 
ATOM     18 CL   UNL     1       7.253   5.890  16.600  0.00  0.00    +0.000 Cl
ATOM     19  C   UNL     1       5.158   4.233  16.940  0.00  0.00    +0.000 A 
ATOM     20  C   UNL     1       3.838   3.952  17.297  0.00  0.00    +0.000 A 
ATOM     21  C   UNL     1       2.990   4.973  17.751  0.00  0.00    +0.000 A 
ATOM     22 CL   UNL     1       1.362   4.508  18.112  0.00  0.00    +0.000 Cl
ENDBRANCH   4  15
TORSDOF 2
ENDMDL
MODEL 5
REMARK VINA RESULT:      -7.3      5.200      8.051
REMARK  Name = 
REMARK  2 active torsions:
REMARK  status: ('A' for Active; 'I' for Inactive)
REMARK    1  A    between atoms: C_8  and  C_9
REMARK    2  A    between atoms: C_12  and  C_13
REMARK                            x       y       z     vdW  Elec       q    Type
REMARK                         _______ _______ _______ _____ _____    ______ ____
ROOT
ATOM      1  C   UNL     1       1.547   8.538  19.949  0.00  0.00    +0.000 A 
ATOM      2  C   UNL     1       1.675   9.241  18.758  0.00  0.00    +0.000 A 
ATOM      3  C   UNL     1       2.213   8.358  17.787  0.00  0.00    +0.000 A 
ATOM      4  C   UNL     1       2.395   7.147  18.416  0.00  0.00    +0.000 A 
ATOM      5  O   UNL     1       1.977   7.255  19.710  0.00  0.00    +0.000 OA
ENDROOT
BRANCH   1  13
ATOM      6  O   UNL     1       0.069   9.950  23.740  0.00  0.00    +0.000 OA
ATOM      7  C   UNL     1      -0.304  10.420  22.679  0.00  0.00    +0.000 C 
ATOM      8  N   UNL     1      -1.213  11.433  22.553  0.00  0.00    +0.000 N 
ATOM      9  C   UNL     1      -1.539  11.851  21.299  0.00  0.00    +0.000 C 
ATOM     10  S   UNL     1      -2.634  13.051  20.985  0.00  0.00    +0.000 S 
ATOM     11  S   UNL     1      -0.638  10.930  20.121  0.00  0.00    +0.000 S 
ATOM     12  C   UNL     1       0.156   9.986  21.333  0.00  0.00    +0.000 C 
ATOM     13  C   UNL     1       1.034   8.986  21.196  0.00  0.00    +0.000 C 
ATOM     14  H   UNL     1      -1.626  11.850  23.373  0.00  0.00    +0.000 HD
ENDBRANCH   1  13
BRANCH   4  15
ATOM     15  C   UNL     1       2.901   5.827  18.037  0.00  0.00    +0.000 A 
ATOM     16  C   UNL     1       2.119   4.695  18.347  0.00  0.00    +0.000 A 
ATOM     17  C   UNL     1       2.552   3.409  18.021  0.00  0.00    +0.000 A 
ATOM     18 CL   UNL     1       1.574   2.050  18.416  0.00  0.00    +0.000 Cl
ATOM     19  C   UNL     1       3.770   3.217  17.380  0.00  0.00    +0.000 A 
ATOM     20  C   UNL     1       4.559   4.323  17.065  0.00  0.00    +0.000 A 
ATOM     21  C   UNL     1       4.133   5.620  17.390  0.00  0.00    +0.000 A 
ATOM     22 CL   UNL     1       5.225   6.903  16.994  0.00  0.00    +0.000 Cl
ENDBRANCH   4  15
TORSDOF 2
ENDMDL
MODEL 6
REMARK VINA RESULT:      -7.3      5.037      7.800
REMARK  Name = 
REMARK  2 active torsions:
REMARK  status: ('A' for Active; 'I' for Inactive)
REMARK    1  A    between atoms: C_8  and  C_9
REMARK    2  A    between atoms: C_12  and  C_13
REMARK                            x       y       z     vdW  Elec       q    Type
REMARK                         _______ _______ _______ _____ _____    ______ ____
ROOT
ATOM      1  C   UNL     1       1.463   9.124  19.141  0.00  0.00    +0.000 A 
ATOM      2  C   UNL     1       2.075   9.227  17.899  0.00  0.00    +0.000 A 
ATOM      3  C   UNL     1       2.756   8.009  17.648  0.00  0.00    +0.000 A 
ATOM      4  C   UNL     1       2.536   7.203  18.743  0.00  0.00    +0.000 A 
ATOM      5  O   UNL     1       1.744   7.871  19.629  0.00  0.00    +0.000 OA
ENDROOT
BRANCH   1  13
ATOM      6  O   UNL     1      -0.952  12.078  21.142  0.00  0.00    +0.000 OA
ATOM      7  C   UNL     1      -1.291  11.562  20.090  0.00  0.00    +0.000 C 
ATOM      8  N   UNL     1      -2.447  11.847  19.421  0.00  0.00    +0.000 N 
ATOM      9  C   UNL     1      -2.696  11.185  18.258  0.00  0.00    +0.000 C 
ATOM     10  S   UNL     1      -4.060  11.407  17.347  0.00  0.00    +0.000 S 
ATOM     11  S   UNL     1      -1.378  10.095  17.909  0.00  0.00    +0.000 S 
ATOM     12  C   UNL     1      -0.516  10.537  19.342  0.00  0.00    +0.000 C 
ATOM     13  C   UNL     1       0.649  10.076  19.814  0.00  0.00    +0.000 C 
ATOM     14  H   UNL     1      -3.093  12.529  19.789  0.00  0.00    +0.000 HD
ENDBRANCH   1  13
BRANCH   4  15
ATOM     15  C   UNL     1       2.928   5.856  19.156  0.00  0.00    +0.000 A 
ATOM     16  C   UNL     1       2.023   5.102  19.931  0.00  0.00    +0.000 A 
ATOM     17  C   UNL     1       2.343   3.815  20.366  0.00  0.00    +0.000 A 
ATOM     18 CL   UNL     1       1.216   2.925  21.313  0.00  0.00    +0.000 Cl
ATOM     19  C   UNL     1       3.568   3.246  20.040  0.00  0.00    +0.000 A 
ATOM     20  C   UNL     1       4.478   3.974  19.274  0.00  0.00    +0.000 A 
ATOM     21  C   UNL     1       4.166   5.269  18.835  0.00  0.00    +0.000 A 
ATOM     22 CL   UNL     1       5.399   6.088  17.936  0.00  0.00    +0.000 Cl
ENDBRANCH   4  15
TORSDOF 2
ENDMDL
MODEL 7
REMARK VINA RESULT:      -7.2      2.799      4.394
REMARK  Name = 
REMARK  2 active torsions:
REMARK  status: ('A' for Active; 'I' for Inactive)
REMARK    1  A    between atoms: C_8  and  C_9
REMARK    2  A    between atoms: C_12  and  C_13
REMARK                            x       y       z     vdW  Elec       q    Type
REMARK                         _______ _______ _______ _____ _____    ______ ____
ROOT
ATOM      1  C   UNL     1       6.855   5.306  16.998  0.00  0.00    +0.000 A 
ATOM      2  C   UNL     1       7.515   5.160  18.211  0.00  0.00    +0.000 A 
ATOM      3  C   UNL     1       6.538   4.922  19.211  0.00  0.00    +0.000 A 
ATOM      4  C   UNL     1       5.316   4.929  18.576  0.00  0.00    +0.000 A 
ATOM      5  O   UNL     1       5.513   5.142  17.244  0.00  0.00    +0.000 OA
ENDROOT
BRANCH   1  13
ATOM      6  O   UNL     1       8.595   5.938  13.108  0.00  0.00    +0.000 OA
ATOM      7  C   UNL     1       7.691   5.142  13.296  0.00  0.00    +0.000 C 
ATOM      8  N   UNL     1       7.127   4.362  12.327  0.00  0.00    +0.000 N 
ATOM      9  C   UNL     1       6.117   3.522  12.686  0.00  0.00    +0.000 C 
ATOM     10  S   UNL     1       5.325   2.531  11.623  0.00  0.00    +0.000 S 
ATOM     11  S   UNL     1       5.811   3.669  14.398  0.00  0.00    +0.000 S 
ATOM     12  C   UNL     1       7.038   4.870  14.605  0.00  0.00    +0.000 C 
ATOM     13  C   UNL     1       7.406   5.534  15.707  0.00  0.00    +0.000 C 
ATOM     14  H   UNL     1       7.456   4.417  11.375  0.00  0.00    +0.000 HD
ENDBRANCH   1  13
BRANCH   4  15
ATOM     15  C   UNL     1       3.919   4.760  18.976  0.00  0.00    +0.000 A 
ATOM     16  C   UNL     1       3.302   5.793  19.711  0.00  0.00    +0.000 A 
ATOM     17  C   UNL     1       1.975   5.687  20.131  0.00  0.00    +0.000 A 
ATOM     18 CL   UNL     1       1.256   6.966  21.029  0.00  0.00    +0.000 Cl
ATOM     19  C   UNL     1       1.230   4.554  19.829  0.00  0.00    +0.000 A 
ATOM     20  C   UNL     1       1.820   3.520  19.103  0.00  0.00    +0.000 A 
ATOM     21  C   UNL     1       3.154   3.617  18.679  0.00  0.00    +0.000 A 
ATOM     22 CL   UNL     1       3.787   2.246  17.831  0.00  0.00    +0.000 Cl
ENDBRANCH   4  15
TORSDOF 2
ENDMDL
MODEL 8
REMARK VINA RESULT:      -7.2      5.011      8.166
REMARK  Name = 
REMARK  2 active torsions:
REMARK  status: ('A' for Active; 'I' for Inactive)
REMARK    1  A    between atoms: C_8  and  C_9
REMARK    2  A    between atoms: C_12  and  C_13
REMARK                            x       y       z     vdW  Elec       q    Type
REMARK                         _______ _______ _______ _____ _____    ______ ____
ROOT
ATOM      1  C   UNL     1       1.651   8.105  20.123  0.00  0.00    +0.000 A 
ATOM      2  C   UNL     1       1.794   8.757  18.905  0.00  0.00    +0.000 A 
ATOM      3  C   UNL     1       2.291   7.820  17.965  0.00  0.00    +0.000 A 
ATOM      4  C   UNL     1       2.435   6.627  18.638  0.00  0.00    +0.000 A 
ATOM      5  O   UNL     1       2.033   6.799  19.929  0.00  0.00    +0.000 OA
ENDROOT
BRANCH   1  13
ATOM      6  O   UNL     1       0.258   9.712  23.869  0.00  0.00    +0.000 OA
ATOM      7  C   UNL     1      -0.107  10.155  22.793  0.00  0.00    +0.000 C 
ATOM      8  N   UNL     1      -0.979  11.195  22.635  0.00  0.00    +0.000 N 
ATOM      9  C   UNL     1      -1.301  11.576  21.369  0.00  0.00    +0.000 C 
ATOM     10  S   UNL     1      -2.355  12.803  21.018  0.00  0.00    +0.000 S 
ATOM     11  S   UNL     1      -0.445  10.580  20.220  0.00  0.00    +0.000 S 
ATOM     12  C   UNL     1       0.325   9.654  21.461  0.00  0.00    +0.000 C 
ATOM     13  C   UNL     1       1.166   8.618  21.356  0.00  0.00    +0.000 C 
ATOM     14  H   UNL     1      -1.370  11.658  23.442  0.00  0.00    +0.000 HD
ENDBRANCH   1  13
BRANCH   4  15
ATOM     15  C   UNL     1       2.890   5.277  18.306  0.00  0.00    +0.000 A 
ATOM     16  C   UNL     1       3.953   5.134  17.390  0.00  0.00    +0.000 A 
ATOM     17  C   UNL     1       4.425   3.872  17.024  0.00  0.00    +0.000 A 
ATOM     18 CL   UNL     1       5.721   3.735  15.902  0.00  0.00    +0.000 Cl
ATOM     19  C   UNL     1       3.854   2.725  17.560  0.00  0.00    +0.000 A 
ATOM     20  C   UNL     1       2.801   2.843  18.468  0.00  0.00    +0.000 A 
ATOM     21  C   UNL     1       2.319   4.107  18.839  0.00  0.00    +0.000 A 
ATOM     22 CL   UNL     1       0.976   4.120  19.932  0.00  0.00    +0.000 Cl
ENDBRANCH   4  15
TORSDOF 2
ENDMDL
MODEL 9
REMARK VINA RESULT:      -7.1      5.022      7.577
REMARK  Name = 
REMARK  2 active torsions:
REMARK  status: ('A' for Active; 'I' for Inactive)
REMARK    1  A    between atoms: C_8  and  C_9
REMARK    2  A    between atoms: C_12  and  C_13
REMARK                            x       y       z     vdW  Elec       q    Type
REMARK                         _______ _______ _______ _____ _____    ______ ____
ROOT
ATOM      1  C   UNL     1       0.795  10.034  20.346  0.00  0.00    +0.000 A 
ATOM      2  C   UNL     1       0.898   9.769  21.705  0.00  0.00    +0.000 A 
ATOM      3  C   UNL     1       1.378   8.443  21.856  0.00  0.00    +0.000 A 
ATOM      4  C   UNL     1       1.554   7.944  20.585  0.00  0.00    +0.000 A 
ATOM      5  O   UNL     1       1.220   8.908  19.681  0.00  0.00    +0.000 OA
ENDROOT
BRANCH   1  13
ATOM      6  O   UNL     1      -0.375  13.658  18.334  0.00  0.00    +0.000 OA
ATOM      7  C   UNL     1      -0.852  12.572  18.052  0.00  0.00    +0.000 C 
ATOM      8  N   UNL     1      -1.793  12.365  17.082  0.00  0.00    +0.000 N 
ATOM      9  C   UNL     1      -2.239  11.094  16.883  0.00  0.00    +0.000 C 
ATOM     10  S   UNL     1      -3.388  10.688  15.763  0.00  0.00    +0.000 S 
ATOM     11  S   UNL     1      -1.425  10.007  17.979  0.00  0.00    +0.000 S 
ATOM     12  C   UNL     1      -0.503  11.280  18.700  0.00  0.00    +0.000 C 
ATOM     13  C   UNL     1       0.384  11.231  19.701  0.00  0.00    +0.000 C 
ATOM     14  H   UNL     1      -2.141  13.139  16.538  0.00  0.00    +0.000 HD
ENDBRANCH   1  13
BRANCH   4  15
ATOM     15  C   UNL     1       2.004   6.679  20.002  0.00  0.00    +0.000 A 
ATOM     16  C   UNL     1       1.772   5.489  20.722  0.00  0.00    +0.000 A 
ATOM     17  C   UNL     1       2.187   4.252  20.224  0.00  0.00    +0.000 A 
ATOM     18 CL   UNL     1       1.890   2.821  21.131  0.00  0.00    +0.000 Cl
ATOM     19  C   UNL     1       2.840   4.169  19.001  0.00  0.00    +0.000 A 
ATOM     20  C   UNL     1       3.080   5.334  18.272  0.00  0.00    +0.000 A 
ATOM     21  C   UNL     1       2.668   6.581  18.766  0.00  0.00    +0.000 A 
ATOM     22 CL   UNL     1       3.071   7.956  17.793  0.00  0.00    +0.000 Cl
ENDBRANCH   4  15
TORSDOF 2
ENDMDL
