MODEL 1
REMARK VINA RESULT:      -6.2      0.000      0.000
REMARK  Name = 
REMARK  18 active torsions:
REMARK  status: ('A' for Active; 'I' for Inactive)
REMARK    1  A    between atoms: C_1  and  C_2
REMARK    2  A    between atoms: C_2  and  C_3
REMARK    3  A    between atoms: C_3  and  C_5
REMARK    4  A    between atoms: C_5  and  C_6
REMARK    5  A    between atoms: C_5  and  C_24
REMARK    6  A    between atoms: C_6  and  C_7
REMARK    7  A    between atoms: C_7  and  C_8
REMARK    8  A    between atoms: C_8  and  C_9
REMARK    9  A    between atoms: C_9  and  C_10
REMARK   10  A    between atoms: C_10  and  C_11
REMARK   11  A    between atoms: C_11  and  O_12
REMARK   12  A    between atoms: O_12  and  C_13
REMARK   13  A    between atoms: C_16  and  O_17
REMARK   14  A    between atoms: O_17  and  C_18
REMARK   15  A    between atoms: C_18  and  C_19
REMARK   16  A    between atoms: C_19  and  O_20
REMARK   17  A    between atoms: C_24  and  C_26
REMARK   18  A    between atoms: C_26  and  C_27
REMARK                            x       y       z     vdW  Elec       q    Type
REMARK                         _______ _______ _______ _____ _____    ______ ____
ROOT
ATOM      1  C   UNL     1       1.274   4.282  20.024  0.00  0.00    +0.000 C 
ENDROOT
BRANCH   1   2
ATOM      2  C   UNL     1       2.365   3.214  20.032  0.00  0.00    +0.000 C 
BRANCH   2   3
ATOM      3  C   UNL     1       2.527   2.489  18.700  0.00  0.00    +0.000 C 
BRANCH   3   4
ATOM      4  C   UNL     1       2.676   3.526  17.582  0.00  0.00    +0.000 C 
BRANCH   4   5
ATOM      5  C   UNL     1       4.130   3.692  17.130  0.00  0.00    +0.000 C 
BRANCH   5   6
ATOM      6  C   UNL     1       4.690   5.110  17.340  0.00  0.00    +0.000 C 
BRANCH   6   7
ATOM      7  C   UNL     1       5.287   5.707  16.066  0.00  0.00    +0.000 C 
ATOM      8  O   UNL     1       5.620   6.891  15.995  0.00  0.00    +0.000 OA
BRANCH   7  10
ATOM      9  C   UNL     1       7.017   4.721  14.534  0.00  0.00    +0.000 C 
ATOM     10  C   UNL     1       5.545   4.752  14.910  0.00  0.00    +0.000 C 
ENDBRANCH   7  10
ENDBRANCH   6   7
BRANCH   6  11
ATOM     11  C   UNL     1       5.641   5.157  18.527  0.00  0.00    +0.000 C 
ATOM     12  O   UNL     1       5.223   5.269  19.679  0.00  0.00    +0.000 OA
BRANCH  11  13
ATOM     13  C   UNL     1       7.126   5.042  18.218  0.00  0.00    +0.000 C 
ATOM     14  C   UNL     1       7.935   6.186  18.806  0.00  0.00    +0.000 C 
ENDBRANCH  11  13
ENDBRANCH   6  11
ENDBRANCH   5   6
ENDBRANCH   4   5
ENDBRANCH   3   4
ENDBRANCH   2   3
ENDBRANCH   1   2
BRANCH   1  15
ATOM     15  C   UNL     1       1.784   5.491  20.802  0.00  0.00    +0.000 C 
BRANCH  15  16
ATOM     16  O   UNL     1       2.375   6.451  19.929  0.00  0.00    +0.000 OA
BRANCH  16  17
ATOM     17  C   UNL     1       1.787   7.695  19.991  0.00  0.00    +0.000 A 
ATOM     18  C   UNL     1       1.143   8.174  21.137  0.00  0.00    +0.000 A 
ATOM     19  C   UNL     1       0.567   9.446  21.148  0.00  0.00    +0.000 A 
ATOM     20  C   UNL     1       0.630  10.262  20.022  0.00  0.00    +0.000 A 
ATOM     21  C   UNL     1       1.301   9.812  18.885  0.00  0.00    +0.000 A 
ATOM     22  C   UNL     1       1.881   8.534  18.874  0.00  0.00    +0.000 A 
ATOM     23 CL   UNL     1       2.692   8.030  17.431  0.00  0.00    +0.000 Cl
BRANCH  20  24
ATOM     24  O   UNL     1       0.037  11.483  20.170  0.00  0.00    +0.000 OA
BRANCH  24  25
ATOM     25  C   UNL     1       0.722  12.590  19.575  0.00  0.00    +0.000 C 
BRANCH  25  26
ATOM     26  C   UNL     1       1.472  13.318  20.686  0.00  0.00    +0.000 C 
BRANCH  26  27
ATOM     27  O   UNL     1       0.696  13.325  21.883  0.00  0.00    +0.000 OA
ATOM     28  H   UNL     1       1.294  13.627  22.592  0.00  0.00    +0.000 HD
ENDBRANCH  26  27
ENDBRANCH  25  26
ENDBRANCH  24  25
ENDBRANCH  20  24
ENDBRANCH  16  17
ENDBRANCH  15  16
ENDBRANCH   1  15
TORSDOF 16
ENDMDL
MODEL 2
REMARK VINA RESULT:      -6.0      1.430      1.945
REMARK  Name = 
REMARK  18 active torsions:
REMARK  status: ('A' for Active; 'I' for Inactive)
REMARK    1  A    between atoms: C_1  and  C_2
REMARK    2  A    between atoms: C_2  and  C_3
REMARK    3  A    between atoms: C_3  and  C_5
REMARK    4  A    between atoms: C_5  and  C_6
REMARK    5  A    between atoms: C_5  and  C_24
REMARK    6  A    between atoms: C_6  and  C_7
REMARK    7  A    between atoms: C_7  and  C_8
REMARK    8  A    between atoms: C_8  and  C_9
REMARK    9  A    between atoms: C_9  and  C_10
REMARK   10  A    between atoms: C_10  and  C_11
REMARK   11  A    between atoms: C_11  and  O_12
REMARK   12  A    between atoms: O_12  and  C_13
REMARK   13  A    between atoms: C_16  and  O_17
REMARK   14  A    between atoms: O_17  and  C_18
REMARK   15  A    between atoms: C_18  and  C_19
REMARK   16  A    between atoms: C_19  and  O_20
REMARK   17  A    between atoms: C_24  and  C_26
REMARK   18  A    between atoms: C_26  and  C_27
REMARK                            x       y       z     vdW  Elec       q    Type
REMARK                         _______ _______ _______ _____ _____    ______ ____
ROOT
ATOM      1  C   UNL     1       2.096   4.438  20.805  0.00  0.00    +0.000 C 
ENDROOT
BRANCH   1   2
ATOM      2  C   UNL     1       0.805   3.958  20.145  0.00  0.00    +0.000 C 
BRANCH   2   3
ATOM      3  C   UNL     1       1.029   3.149  18.871  0.00  0.00    +0.000 C 
BRANCH   3   4
ATOM      4  C   UNL     1       1.525   4.086  17.766  0.00  0.00    +0.000 C 
BRANCH   4   5
ATOM      5  C   UNL     1       2.873   3.645  17.187  0.00  0.00    +0.000 C 
BRANCH   5   6
ATOM      6  C   UNL     1       4.065   4.496  17.663  0.00  0.00    +0.000 C 
BRANCH   6   7
ATOM      7  C   UNL     1       4.918   5.020  16.509  0.00  0.00    +0.000 C 
ATOM      8  O   UNL     1       5.127   6.224  16.349  0.00  0.00    +0.000 OA
BRANCH   7  10
ATOM      9  C   UNL     1       6.439   4.643  14.545  0.00  0.00    +0.000 C 
ATOM     10  C   UNL     1       5.585   3.985  15.616  0.00  0.00    +0.000 C 
ENDBRANCH   7  10
ENDBRANCH   6   7
BRANCH   6  11
ATOM     11  C   UNL     1       4.873   3.766  18.724  0.00  0.00    +0.000 C 
ATOM     12  O   UNL     1       5.807   4.314  19.309  0.00  0.00    +0.000 OA
BRANCH  11  13
ATOM     13  C   UNL     1       4.459   2.335  19.036  0.00  0.00    +0.000 C 
ATOM     14  C   UNL     1       4.673   1.971  20.496  0.00  0.00    +0.000 C 
ENDBRANCH  11  13
ENDBRANCH   6  11
ENDBRANCH   5   6
ENDBRANCH   4   5
ENDBRANCH   3   4
ENDBRANCH   2   3
ENDBRANCH   1   2
BRANCH   1  15
ATOM     15  C   UNL     1       1.959   5.931  21.088  0.00  0.00    +0.000 C 
BRANCH  15  16
ATOM     16  O   UNL     1       2.219   6.702  19.917  0.00  0.00    +0.000 OA
BRANCH  16  17
ATOM     17  C   UNL     1       1.714   7.982  19.970  0.00  0.00    +0.000 A 
ATOM     18  C   UNL     1       1.121   8.517  21.119  0.00  0.00    +0.000 A 
ATOM     19  C   UNL     1       0.629   9.824  21.121  0.00  0.00    +0.000 A 
ATOM     20  C   UNL     1       0.726  10.618  19.982  0.00  0.00    +0.000 A 
ATOM     21  C   UNL     1       1.348  10.111  18.842  0.00  0.00    +0.000 A 
ATOM     22  C   UNL     1       1.844   8.799  18.840  0.00  0.00    +0.000 A 
ATOM     23 CL   UNL     1       2.597   8.224  17.392  0.00  0.00    +0.000 Cl
BRANCH  20  24
ATOM     24  O   UNL     1       0.216  11.878  20.122  0.00  0.00    +0.000 OA
BRANCH  24  25
ATOM     25  C   UNL     1      -1.175  12.029  19.821  0.00  0.00    +0.000 C 
BRANCH  25  26
ATOM     26  C   UNL     1      -1.322  13.258  18.930  0.00  0.00    +0.000 C 
BRANCH  26  27
ATOM     27  O   UNL     1      -0.974  12.937  17.584  0.00  0.00    +0.000 OA
ATOM     28  H   UNL     1      -1.008  13.776  17.088  0.00  0.00    +0.000 HD
ENDBRANCH  26  27
ENDBRANCH  25  26
ENDBRANCH  24  25
ENDBRANCH  20  24
ENDBRANCH  16  17
ENDBRANCH  15  16
ENDBRANCH   1  15
TORSDOF 16
ENDMDL
MODEL 3
REMARK VINA RESULT:      -6.0      5.261      8.781
REMARK  Name = 
REMARK  18 active torsions:
REMARK  status: ('A' for Active; 'I' for Inactive)
REMARK    1  A    between atoms: C_1  and  C_2
REMARK    2  A    between atoms: C_2  and  C_3
REMARK    3  A    between atoms: C_3  and  C_5
REMARK    4  A    between atoms: C_5  and  C_6
REMARK    5  A    between atoms: C_5  and  C_24
REMARK    6  A    between atoms: C_6  and  C_7
REMARK    7  A    between atoms: C_7  and  C_8
REMARK    8  A    between atoms: C_8  and  C_9
REMARK    9  A    between atoms: C_9  and  C_10
REMARK   10  A    between atoms: C_10  and  C_11
REMARK   11  A    between atoms: C_11  and  O_12
REMARK   12  A    between atoms: O_12  and  C_13
REMARK   13  A    between atoms: C_16  and  O_17
REMARK   14  A    between atoms: O_17  and  C_18
REMARK   15  A    between atoms: C_18  and  C_19
REMARK   16  A    between atoms: C_19  and  O_20
REMARK   17  A    between atoms: C_24  and  C_26
REMARK   18  A    between atoms: C_26  and  C_27
REMARK                            x       y       z     vdW  Elec       q    Type
REMARK                         _______ _______ _______ _____ _____    ______ ____
ROOT
ATOM      1  C   UNL     1       8.160   8.164  18.063  0.00  0.00    +0.000 C 
ENDROOT
BRANCH   1   2
ATOM      2  C   UNL     1       8.061   9.668  17.814  0.00  0.00    +0.000 C 
BRANCH   2   3
ATOM      3  C   UNL     1       9.280  10.451  18.292  0.00  0.00    +0.000 C 
BRANCH   3   4
ATOM      4  C   UNL     1       9.398  10.313  19.813  0.00  0.00    +0.000 C 
BRANCH   4   5
ATOM      5  C   UNL     1       9.637  11.659  20.504  0.00  0.00    +0.000 C 
BRANCH   5   6
ATOM      6  C   UNL     1      10.018  12.797  19.540  0.00  0.00    +0.000 C 
BRANCH   6   7
ATOM      7  C   UNL     1      11.523  12.887  19.294  0.00  0.00    +0.000 C 
ATOM      8  O   UNL     1      12.333  12.249  19.968  0.00  0.00    +0.000 OA
BRANCH   7  10
ATOM      9  C   UNL     1      11.310  13.285  16.822  0.00  0.00    +0.000 C 
ATOM     10  C   UNL     1      11.982  13.728  18.111  0.00  0.00    +0.000 C 
ENDBRANCH   7  10
ENDBRANCH   6   7
BRANCH   6  11
ATOM     11  C   UNL     1       9.400  14.117  19.974  0.00  0.00    +0.000 C 
ATOM     12  O   UNL     1       9.941  14.832  20.817  0.00  0.00    +0.000 OA
BRANCH  11  13
ATOM     13  C   UNL     1       8.093  14.514  19.303  0.00  0.00    +0.000 C 
ATOM     14  C   UNL     1       7.926  13.882  17.932  0.00  0.00    +0.000 C 
ENDBRANCH  11  13
ENDBRANCH   6  11
ENDBRANCH   5   6
ENDBRANCH   4   5
ENDBRANCH   3   4
ENDBRANCH   2   3
ENDBRANCH   1   2
BRANCH   1  15
ATOM     15  C   UNL     1       7.044   7.478  17.281  0.00  0.00    +0.000 C 
BRANCH  15  16
ATOM     16  O   UNL     1       7.335   6.097  17.076  0.00  0.00    +0.000 OA
BRANCH  16  17
ATOM     17  C   UNL     1       6.320   5.251  17.464  0.00  0.00    +0.000 A 
ATOM     18  C   UNL     1       6.047   4.956  18.804  0.00  0.00    +0.000 A 
ATOM     19  C   UNL     1       5.002   4.095  19.143  0.00  0.00    +0.000 A 
ATOM     20  C   UNL     1       4.208   3.521  18.153  0.00  0.00    +0.000 A 
ATOM     21  C   UNL     1       4.444   3.836  16.815  0.00  0.00    +0.000 A 
ATOM     22  C   UNL     1       5.494   4.702  16.474  0.00  0.00    +0.000 A 
ATOM     23 CL   UNL     1       5.743   5.046  14.797  0.00  0.00    +0.000 Cl
BRANCH  20  24
ATOM     24  O   UNL     1       3.215   2.708  18.621  0.00  0.00    +0.000 OA
BRANCH  24  25
ATOM     25  C   UNL     1       1.879   3.084  18.271  0.00  0.00    +0.000 C 
BRANCH  25  26
ATOM     26  C   UNL     1       1.331   3.941  19.409  0.00  0.00    +0.000 C 
BRANCH  26  27
ATOM     27  O   UNL     1       0.463   3.168  20.235  0.00  0.00    +0.000 OA
ATOM     28  H   UNL     1       0.146   2.431  19.680  0.00  0.00    +0.000 HD
ENDBRANCH  26  27
ENDBRANCH  25  26
ENDBRANCH  24  25
ENDBRANCH  20  24
ENDBRANCH  16  17
ENDBRANCH  15  16
ENDBRANCH   1  15
TORSDOF 16
ENDMDL
MODEL 4
REMARK VINA RESULT:      -5.9      2.064      2.697
REMARK  Name = 
REMARK  18 active torsions:
REMARK  status: ('A' for Active; 'I' for Inactive)
REMARK    1  A    between atoms: C_1  and  C_2
REMARK    2  A    between atoms: C_2  and  C_3
REMARK    3  A    between atoms: C_3  and  C_5
REMARK    4  A    between atoms: C_5  and  C_6
REMARK    5  A    between atoms: C_5  and  C_24
REMARK    6  A    between atoms: C_6  and  C_7
REMARK    7  A    between atoms: C_7  and  C_8
REMARK    8  A    between atoms: C_8  and  C_9
REMARK    9  A    between atoms: C_9  and  C_10
REMARK   10  A    between atoms: C_10  and  C_11
REMARK   11  A    between atoms: C_11  and  O_12
REMARK   12  A    between atoms: O_12  and  C_13
REMARK   13  A    between atoms: C_16  and  O_17
REMARK   14  A    between atoms: O_17  and  C_18
REMARK   15  A    between atoms: C_18  and  C_19
REMARK   16  A    between atoms: C_19  and  O_20
REMARK   17  A    between atoms: C_24  and  C_26
REMARK   18  A    between atoms: C_26  and  C_27
REMARK                            x       y       z     vdW  Elec       q    Type
REMARK                         _______ _______ _______ _____ _____    ______ ____
ROOT
ATOM      1  C   UNL     1       3.522   4.728  19.699  0.00  0.00    +0.000 C 
ENDROOT
BRANCH   1   2
ATOM      2  C   UNL     1       3.249   3.383  19.030  0.00  0.00    +0.000 C 
BRANCH   2   3
ATOM      3  C   UNL     1       3.871   3.248  17.643  0.00  0.00    +0.000 C 
BRANCH   3   4
ATOM      4  C   UNL     1       4.528   4.578  17.259  0.00  0.00    +0.000 C 
BRANCH   4   5
ATOM      5  C   UNL     1       4.943   4.619  15.786  0.00  0.00    +0.000 C 
BRANCH   5   6
ATOM      6  C   UNL     1       6.286   5.329  15.535  0.00  0.00    +0.000 C 
BRANCH   6   7
ATOM      7  C   UNL     1       6.922   4.942  14.201  0.00  0.00    +0.000 C 
ATOM      8  O   UNL     1       7.978   5.444  13.813  0.00  0.00    +0.000 OA
BRANCH   7  10
ATOM      9  C   UNL     1       6.860   3.685  12.026  0.00  0.00    +0.000 C 
ATOM     10  C   UNL     1       6.246   3.832  13.408  0.00  0.00    +0.000 C 
ENDBRANCH   7  10
ENDBRANCH   6   7
BRANCH   6  11
ATOM     11  C   UNL     1       7.226   5.164  16.719  0.00  0.00    +0.000 C 
ATOM     12  O   UNL     1       7.922   4.157  16.850  0.00  0.00    +0.000 OA
BRANCH  11  13
ATOM     13  C   UNL     1       7.275   6.310  17.719  0.00  0.00    +0.000 C 
ATOM     14  C   UNL     1       7.774   5.871  19.085  0.00  0.00    +0.000 C 
ENDBRANCH  11  13
ENDBRANCH   6  11
ENDBRANCH   5   6
ENDBRANCH   4   5
ENDBRANCH   3   4
ENDBRANCH   2   3
ENDBRANCH   1   2
BRANCH   1  15
ATOM     15  C   UNL     1       2.267   5.587  19.572  0.00  0.00    +0.000 C 
BRANCH  15  16
ATOM     16  O   UNL     1       2.347   6.739  20.408  0.00  0.00    +0.000 OA
BRANCH  16  17
ATOM     17  C   UNL     1       1.868   7.888  19.819  0.00  0.00    +0.000 A 
ATOM     18  C   UNL     1       2.059   8.183  18.464  0.00  0.00    +0.000 A 
ATOM     19  C   UNL     1       1.548   9.360  17.915  0.00  0.00    +0.000 A 
ATOM     20  C   UNL     1       0.835  10.258  18.705  0.00  0.00    +0.000 A 
ATOM     21  C   UNL     1       0.605   9.960  20.047  0.00  0.00    +0.000 A 
ATOM     22  C   UNL     1       1.117   8.776  20.599  0.00  0.00    +0.000 A 
ATOM     23 CL   UNL     1       0.806   8.466  22.273  0.00  0.00    +0.000 Cl
BRANCH  20  24
ATOM     24  O   UNL     1       0.382  11.364  18.042  0.00  0.00    +0.000 OA
BRANCH  24  25
ATOM     25  C   UNL     1      -0.779  11.994  18.592  0.00  0.00    +0.000 C 
BRANCH  25  26
ATOM     26  C   UNL     1      -1.933  11.757  17.622  0.00  0.00    +0.000 C 
BRANCH  26  27
ATOM     27  O   UNL     1      -3.168  12.147  18.220  0.00  0.00    +0.000 OA
ATOM     28  H   UNL     1      -3.798  11.425  18.037  0.00  0.00    +0.000 HD
ENDBRANCH  26  27
ENDBRANCH  25  26
ENDBRANCH  24  25
ENDBRANCH  20  24
ENDBRANCH  16  17
ENDBRANCH  15  16
ENDBRANCH   1  15
TORSDOF 16
ENDMDL
MODEL 5
REMARK VINA RESULT:      -5.8      1.673      2.971
REMARK  Name = 
REMARK  18 active torsions:
REMARK  status: ('A' for Active; 'I' for Inactive)
REMARK    1  A    between atoms: C_1  and  C_2
REMARK    2  A    between atoms: C_2  and  C_3
REMARK    3  A    between atoms: C_3  and  C_5
REMARK    4  A    between atoms: C_5  and  C_6
REMARK    5  A    between atoms: C_5  and  C_24
REMARK    6  A    between atoms: C_6  and  C_7
REMARK    7  A    between atoms: C_7  and  C_8
REMARK    8  A    between atoms: C_8  and  C_9
REMARK    9  A    between atoms: C_9  and  C_10
REMARK   10  A    between atoms: C_10  and  C_11
REMARK   11  A    between atoms: C_11  and  O_12
REMARK   12  A    between atoms: O_12  and  C_13
REMARK   13  A    between atoms: C_16  and  O_17
REMARK   14  A    between atoms: O_17  and  C_18
REMARK   15  A    between atoms: C_18  and  C_19
REMARK   16  A    between atoms: C_19  and  O_20
REMARK   17  A    between atoms: C_24  and  C_26
REMARK   18  A    between atoms: C_26  and  C_27
REMARK                            x       y       z     vdW  Elec       q    Type
REMARK                         _______ _______ _______ _____ _____    ______ ____
ROOT
ATOM      1  C   UNL     1       2.485   4.741  21.051  0.00  0.00    +0.000 C 
ENDROOT
BRANCH   1   2
ATOM      2  C   UNL     1       2.259   3.597  20.066  0.00  0.00    +0.000 C 
BRANCH   2   3
ATOM      3  C   UNL     1       2.065   4.056  18.624  0.00  0.00    +0.000 C 
BRANCH   3   4
ATOM      4  C   UNL     1       3.066   3.322  17.727  0.00  0.00    +0.000 C 
BRANCH   4   5
ATOM      5  C   UNL     1       3.674   4.238  16.660  0.00  0.00    +0.000 C 
BRANCH   5   6
ATOM      6  C   UNL     1       5.209   4.332  16.720  0.00  0.00    +0.000 C 
BRANCH   6   7
ATOM      7  C   UNL     1       5.727   4.713  18.107  0.00  0.00    +0.000 C 
ATOM      8  O   UNL     1       5.813   3.888  19.019  0.00  0.00    +0.000 OA
BRANCH   7  10
ATOM      9  C   UNL     1       7.692   6.163  18.699  0.00  0.00    +0.000 C 
ATOM     10  C   UNL     1       6.228   6.137  18.291  0.00  0.00    +0.000 C 
ENDBRANCH   7  10
ENDBRANCH   6   7
BRANCH   6  11
ATOM     11  C   UNL     1       5.751   5.223  15.612  0.00  0.00    +0.000 C 
ATOM     12  O   UNL     1       5.335   6.370  15.450  0.00  0.00    +0.000 OA
BRANCH  11  13
ATOM     13  C   UNL     1       6.840   4.630  14.730  0.00  0.00    +0.000 C 
ATOM     14  C   UNL     1       6.278   3.834  13.564  0.00  0.00    +0.000 C 
ENDBRANCH  11  13
ENDBRANCH   6  11
ENDBRANCH   5   6
ENDBRANCH   4   5
ENDBRANCH   3   4
ENDBRANCH   2   3
ENDBRANCH   1   2
BRANCH   1  15
ATOM     15  C   UNL     1       1.567   5.896  20.659  0.00  0.00    +0.000 C 
BRANCH  15  16
ATOM     16  O   UNL     1       2.293   7.119  20.565  0.00  0.00    +0.000 OA
BRANCH  16  17
ATOM     17  C   UNL     1       1.576   8.149  19.997  0.00  0.00    +0.000 A 
ATOM     18  C   UNL     1       0.630   8.898  20.705  0.00  0.00    +0.000 A 
ATOM     19  C   UNL     1      -0.065   9.935  20.081  0.00  0.00    +0.000 A 
ATOM     20  C   UNL     1       0.175  10.246  18.745  0.00  0.00    +0.000 A 
ATOM     21  C   UNL     1       1.141   9.532  18.037  0.00  0.00    +0.000 A 
ATOM     22  C   UNL     1       1.842   8.491  18.665  0.00  0.00    +0.000 A 
ATOM     23 CL   UNL     1       3.022   7.637  17.731  0.00  0.00    +0.000 Cl
BRANCH  20  24
ATOM     24  O   UNL     1      -0.565  11.288  18.262  0.00  0.00    +0.000 OA
BRANCH  24  25
ATOM     25  C   UNL     1      -1.712  10.934  17.482  0.00  0.00    +0.000 C 
BRANCH  25  26
ATOM     26  C   UNL     1      -2.940  11.506  18.186  0.00  0.00    +0.000 C 
BRANCH  26  27
ATOM     27  O   UNL     1      -3.876  11.993  17.226  0.00  0.00    +0.000 OA
ATOM     28  H   UNL     1      -4.432  11.230  16.979  0.00  0.00    +0.000 HD
ENDBRANCH  26  27
ENDBRANCH  25  26
ENDBRANCH  24  25
ENDBRANCH  20  24
ENDBRANCH  16  17
ENDBRANCH  15  16
ENDBRANCH   1  15
TORSDOF 16
ENDMDL
MODEL 6
REMARK VINA RESULT:      -5.7      3.183      4.156
REMARK  Name = 
REMARK  18 active torsions:
REMARK  status: ('A' for Active; 'I' for Inactive)
REMARK    1  A    between atoms: C_1  and  C_2
REMARK    2  A    between atoms: C_2  and  C_3
REMARK    3  A    between atoms: C_3  and  C_5
REMARK    4  A    between atoms: C_5  and  C_6
REMARK    5  A    between atoms: C_5  and  C_24
REMARK    6  A    between atoms: C_6  and  C_7
REMARK    7  A    between atoms: C_7  and  C_8
REMARK    8  A    between atoms: C_8  and  C_9
REMARK    9  A    between atoms: C_9  and  C_10
REMARK   10  A    between atoms: C_10  and  C_11
REMARK   11  A    between atoms: C_11  and  O_12
REMARK   12  A    between atoms: O_12  and  C_13
REMARK   13  A    between atoms: C_16  and  O_17
REMARK   14  A    between atoms: O_17  and  C_18
REMARK   15  A    between atoms: C_18  and  C_19
REMARK   16  A    between atoms: C_19  and  O_20
REMARK   17  A    between atoms: C_24  and  C_26
REMARK   18  A    between atoms: C_26  and  C_27
REMARK                            x       y       z     vdW  Elec       q    Type
REMARK                         _______ _______ _______ _____ _____    ______ ____
ROOT
ATOM      1  C   UNL     1       2.126   8.308  17.479  0.00  0.00    +0.000 C 
ENDROOT
BRANCH   1   2
ATOM      2  C   UNL     1       3.534   7.809  17.797  0.00  0.00    +0.000 C 
BRANCH   2   3
ATOM      3  C   UNL     1       3.563   6.430  18.450  0.00  0.00    +0.000 C 
BRANCH   3   4
ATOM      4  C   UNL     1       4.471   5.509  17.629  0.00  0.00    +0.000 C 
BRANCH   4   5
ATOM      5  C   UNL     1       4.929   6.156  16.319  0.00  0.00    +0.000 C 
BRANCH   5   6
ATOM      6  C   UNL     1       6.440   6.031  16.055  0.00  0.00    +0.000 C 
BRANCH   6   7
ATOM      7  C   UNL     1       6.760   5.192  14.819  0.00  0.00    +0.000 C 
ATOM      8  O   UNL     1       7.796   5.354  14.172  0.00  0.00    +0.000 OA
BRANCH   7  10
ATOM      9  C   UNL     1       5.956   3.622  13.030  0.00  0.00    +0.000 C 
ATOM     10  C   UNL     1       5.788   4.075  14.471  0.00  0.00    +0.000 C 
ENDBRANCH   7  10
ENDBRANCH   6   7
BRANCH   6  11
ATOM     11  C   UNL     1       7.181   5.569  17.301  0.00  0.00    +0.000 C 
ATOM     12  O   UNL     1       7.447   4.382  17.486  0.00  0.00    +0.000 OA
BRANCH  11  13
ATOM     13  C   UNL     1       7.588   6.648  18.294  0.00  0.00    +0.000 C 
ATOM     14  C   UNL     1       7.620   8.033  17.670  0.00  0.00    +0.000 C 
ENDBRANCH  11  13
ENDBRANCH   6  11
ENDBRANCH   5   6
ENDBRANCH   4   5
ENDBRANCH   3   4
ENDBRANCH   2   3
ENDBRANCH   1   2
BRANCH   1  15
ATOM     15  C   UNL     1       1.925   9.647  18.185  0.00  0.00    +0.000 C 
BRANCH  15  16
ATOM     16  O   UNL     1       1.000   9.524  19.262  0.00  0.00    +0.000 OA
BRANCH  16  17
ATOM     17  C   UNL     1      -0.198  10.167  19.042  0.00  0.00    +0.000 A 
ATOM     18  C   UNL     1      -1.099   9.775  18.045  0.00  0.00    +0.000 A 
ATOM     19  C   UNL     1      -2.303  10.459  17.867  0.00  0.00    +0.000 A 
ATOM     20  C   UNL     1      -2.631  11.539  18.683  0.00  0.00    +0.000 A 
ATOM     21  C   UNL     1      -1.761  11.917  19.705  0.00  0.00    +0.000 A 
ATOM     22  C   UNL     1      -0.551  11.229  19.885  0.00  0.00    +0.000 A 
ATOM     23 CL   UNL     1       0.491  11.751  21.163  0.00  0.00    +0.000 Cl
BRANCH  20  24
ATOM     24  O   UNL     1      -3.841  12.111  18.410  0.00  0.00    +0.000 OA
BRANCH  24  25
ATOM     25  C   UNL     1      -4.522  11.615  17.252  0.00  0.00    +0.000 C 
BRANCH  25  26
ATOM     26  C   UNL     1      -5.861  12.343  17.161  0.00  0.00    +0.000 C 
BRANCH  26  27
ATOM     27  O   UNL     1      -5.889  13.440  18.071  0.00  0.00    +0.000 OA
ATOM     28  H   UNL     1      -4.968  13.751  18.149  0.00  0.00    +0.000 HD
ENDBRANCH  26  27
ENDBRANCH  25  26
ENDBRANCH  24  25
ENDBRANCH  20  24
ENDBRANCH  16  17
ENDBRANCH  15  16
ENDBRANCH   1  15
TORSDOF 16
ENDMDL
MODEL 7
REMARK VINA RESULT:      -5.7      2.511      3.259
REMARK  Name = 
REMARK  18 active torsions:
REMARK  status: ('A' for Active; 'I' for Inactive)
REMARK    1  A    between atoms: C_1  and  C_2
REMARK    2  A    between atoms: C_2  and  C_3
REMARK    3  A    between atoms: C_3  and  C_5
REMARK    4  A    between atoms: C_5  and  C_6
REMARK    5  A    between atoms: C_5  and  C_24
REMARK    6  A    between atoms: C_6  and  C_7
REMARK    7  A    between atoms: C_7  and  C_8
REMARK    8  A    between atoms: C_8  and  C_9
REMARK    9  A    between atoms: C_9  and  C_10
REMARK   10  A    between atoms: C_10  and  C_11
REMARK   11  A    between atoms: C_11  and  O_12
REMARK   12  A    between atoms: O_12  and  C_13
REMARK   13  A    between atoms: C_16  and  O_17
REMARK   14  A    between atoms: O_17  and  C_18
REMARK   15  A    between atoms: C_18  and  C_19
REMARK   16  A    between atoms: C_19  and  O_20
REMARK   17  A    between atoms: C_24  and  C_26
REMARK   18  A    between atoms: C_26  and  C_27
REMARK                            x       y       z     vdW  Elec       q    Type
REMARK                         _______ _______ _______ _____ _____    ______ ____
ROOT
ATOM      1  C   UNL     1       2.246   7.152  18.404  0.00  0.00    +0.000 C 
ENDROOT
BRANCH   1   2
ATOM      2  C   UNL     1       3.222   6.029  18.061  0.00  0.00    +0.000 C 
BRANCH   2   3
ATOM      3  C   UNL     1       4.304   5.812  19.115  0.00  0.00    +0.000 C 
BRANCH   3   4
ATOM      4  C   UNL     1       4.882   4.402  18.954  0.00  0.00    +0.000 C 
BRANCH   4   5
ATOM      5  C   UNL     1       5.321   4.112  17.516  0.00  0.00    +0.000 C 
BRANCH   5   6
ATOM      6  C   UNL     1       6.394   5.080  16.983  0.00  0.00    +0.000 C 
BRANCH   6   7
ATOM      7  C   UNL     1       6.720   4.851  15.508  0.00  0.00    +0.000 C 
ATOM      8  O   UNL     1       7.546   5.542  14.909  0.00  0.00    +0.000 OA
BRANCH   7  10
ATOM      9  C   UNL     1       6.019   3.839  13.318  0.00  0.00    +0.000 C 
ATOM     10  C   UNL     1       6.051   3.666  14.827  0.00  0.00    +0.000 C 
ENDBRANCH   7  10
ENDBRANCH   6   7
BRANCH   6  11
ATOM     11  C   UNL     1       7.625   5.084  17.877  0.00  0.00    +0.000 C 
ATOM     12  O   UNL     1       8.399   4.128  17.907  0.00  0.00    +0.000 OA
BRANCH  11  13
ATOM     13  C   UNL     1       7.857   6.333  18.714  0.00  0.00    +0.000 C 
ATOM     14  C   UNL     1       7.835   7.605  17.883  0.00  0.00    +0.000 C 
ENDBRANCH  11  13
ENDBRANCH   6  11
ENDBRANCH   5   6
ENDBRANCH   4   5
ENDBRANCH   3   4
ENDBRANCH   2   3
ENDBRANCH   1   2
BRANCH   1  15
ATOM     15  C   UNL     1       1.885   7.035  19.883  0.00  0.00    +0.000 C 
BRANCH  15  16
ATOM     16  O   UNL     1       1.954   8.305  20.529  0.00  0.00    +0.000 OA
BRANCH  16  17
ATOM     17  C   UNL     1       1.072   9.234  20.023  0.00  0.00    +0.000 A 
ATOM     18  C   UNL     1       1.250   9.852  18.781  0.00  0.00    +0.000 A 
ATOM     19  C   UNL     1       0.322  10.785  18.313  0.00  0.00    +0.000 A 
ATOM     20  C   UNL     1      -0.800  11.110  19.071  0.00  0.00    +0.000 A 
ATOM     21  C   UNL     1      -1.009  10.473  20.294  0.00  0.00    +0.000 A 
ATOM     22  C   UNL     1      -0.078   9.535  20.764  0.00  0.00    +0.000 A 
ATOM     23 CL   UNL     1      -0.389   8.787  22.293  0.00  0.00    +0.000 Cl
BRANCH  20  24
ATOM     24  O   UNL     1      -1.631  12.026  18.493  0.00  0.00    +0.000 OA
BRANCH  24  25
ATOM     25  C   UNL     1      -3.027  11.870  18.770  0.00  0.00    +0.000 C 
BRANCH  25  26
ATOM     26  C   UNL     1      -3.665  11.210  17.551  0.00  0.00    +0.000 C 
BRANCH  26  27
ATOM     27  O   UNL     1      -4.471  12.151  16.845  0.00  0.00    +0.000 OA
ATOM     28  H   UNL     1      -4.098  12.205  15.945  0.00  0.00    +0.000 HD
ENDBRANCH  26  27
ENDBRANCH  25  26
ENDBRANCH  24  25
ENDBRANCH  20  24
ENDBRANCH  16  17
ENDBRANCH  15  16
ENDBRANCH   1  15
TORSDOF 16
ENDMDL
MODEL 8
REMARK VINA RESULT:      -5.6      2.014      3.373
REMARK  Name = 
REMARK  18 active torsions:
REMARK  status: ('A' for Active; 'I' for Inactive)
REMARK    1  A    between atoms: C_1  and  C_2
REMARK    2  A    between atoms: C_2  and  C_3
REMARK    3  A    between atoms: C_3  and  C_5
REMARK    4  A    between atoms: C_5  and  C_6
REMARK    5  A    between atoms: C_5  and  C_24
REMARK    6  A    between atoms: C_6  and  C_7
REMARK    7  A    between atoms: C_7  and  C_8
REMARK    8  A    between atoms: C_8  and  C_9
REMARK    9  A    between atoms: C_9  and  C_10
REMARK   10  A    between atoms: C_10  and  C_11
REMARK   11  A    between atoms: C_11  and  O_12
REMARK   12  A    between atoms: O_12  and  C_13
REMARK   13  A    between atoms: C_16  and  O_17
REMARK   14  A    between atoms: O_17  and  C_18
REMARK   15  A    between atoms: C_18  and  C_19
REMARK   16  A    between atoms: C_19  and  O_20
REMARK   17  A    between atoms: C_24  and  C_26
REMARK   18  A    between atoms: C_26  and  C_27
REMARK                            x       y       z     vdW  Elec       q    Type
REMARK                         _______ _______ _______ _____ _____    ______ ____
ROOT
ATOM      1  C   UNL     1       2.664   5.253  20.254  0.00  0.00    +0.000 C 
ENDROOT
BRANCH   1   2
ATOM      2  C   UNL     1       3.641   5.821  19.227  0.00  0.00    +0.000 C 
BRANCH   2   3
ATOM      3  C   UNL     1       3.311   5.439  17.788  0.00  0.00    +0.000 C 
BRANCH   3   4
ATOM      4  C   UNL     1       4.493   5.813  16.888  0.00  0.00    +0.000 C 
BRANCH   4   5
ATOM      5  C   UNL     1       4.916   4.662  15.971  0.00  0.00    +0.000 C 
BRANCH   5   6
ATOM      6  C   UNL     1       6.440   4.499  15.835  0.00  0.00    +0.000 C 
BRANCH   6   7
ATOM      7  C   UNL     1       7.221   5.421  16.769  0.00  0.00    +0.000 C 
ATOM      8  O   UNL     1       7.443   6.600  16.485  0.00  0.00    +0.000 OA
BRANCH   7  10
ATOM      9  C   UNL     1       7.834   5.952  19.148  0.00  0.00    +0.000 C 
ATOM     10  C   UNL     1       7.634   4.852  18.118  0.00  0.00    +0.000 C 
ENDBRANCH   7  10
ENDBRANCH   6   7
BRANCH   6  11
ATOM     11  C   UNL     1       6.879   4.605  14.382  0.00  0.00    +0.000 C 
ATOM     12  O   UNL     1       7.852   5.282  14.053  0.00  0.00    +0.000 OA
BRANCH  11  13
ATOM     13  C   UNL     1       6.065   3.820  13.363  0.00  0.00    +0.000 C 
ATOM     14  C   UNL     1       6.787   3.665  12.035  0.00  0.00    +0.000 C 
ENDBRANCH  11  13
ENDBRANCH   6  11
ENDBRANCH   5   6
ENDBRANCH   4   5
ENDBRANCH   3   4
ENDBRANCH   2   3
ENDBRANCH   1   2
BRANCH   1  15
ATOM     15  C   UNL     1       1.597   6.309  20.531  0.00  0.00    +0.000 C 
BRANCH  15  16
ATOM     16  O   UNL     1       2.176   7.608  20.633  0.00  0.00    +0.000 OA
BRANCH  16  17
ATOM     17  C   UNL     1       1.429   8.597  20.032  0.00  0.00    +0.000 A 
ATOM     18  C   UNL     1       1.503   8.880  18.664  0.00  0.00    +0.000 A 
ATOM     19  C   UNL     1       0.720   9.891  18.105  0.00  0.00    +0.000 A 
ATOM     20  C   UNL     1      -0.154  10.631  18.897  0.00  0.00    +0.000 A 
ATOM     21  C   UNL     1      -0.266  10.335  20.255  0.00  0.00    +0.000 A 
ATOM     22  C   UNL     1       0.520   9.318  20.818  0.00  0.00    +0.000 A 
ATOM     23 CL   UNL     1       0.342   9.005  22.510  0.00  0.00    +0.000 Cl
BRANCH  20  24
ATOM     24  O   UNL     1      -0.868  11.581  18.223  0.00  0.00    +0.000 OA
BRANCH  24  25
ATOM     25  C   UNL     1      -0.709  12.927  18.682  0.00  0.00    +0.000 C 
BRANCH  25  26
ATOM     26  C   UNL     1       0.744  13.327  18.440  0.00  0.00    +0.000 C 
BRANCH  26  27
ATOM     27  O   UNL     1       1.280  13.963  19.598  0.00  0.00    +0.000 OA
ATOM     28  H   UNL     1       1.975  13.367  19.936  0.00  0.00    +0.000 HD
ENDBRANCH  26  27
ENDBRANCH  25  26
ENDBRANCH  24  25
ENDBRANCH  20  24
ENDBRANCH  16  17
ENDBRANCH  15  16
ENDBRANCH   1  15
TORSDOF 16
ENDMDL
MODEL 9
REMARK VINA RESULT:      -5.6      2.327      3.145
REMARK  Name = 
REMARK  18 active torsions:
REMARK  status: ('A' for Active; 'I' for Inactive)
REMARK    1  A    between atoms: C_1  and  C_2
REMARK    2  A    between atoms: C_2  and  C_3
REMARK    3  A    between atoms: C_3  and  C_5
REMARK    4  A    between atoms: C_5  and  C_6
REMARK    5  A    between atoms: C_5  and  C_24
REMARK    6  A    between atoms: C_6  and  C_7
REMARK    7  A    between atoms: C_7  and  C_8
REMARK    8  A    between atoms: C_8  and  C_9
REMARK    9  A    between atoms: C_9  and  C_10
REMARK   10  A    between atoms: C_10  and  C_11
REMARK   11  A    between atoms: C_11  and  O_12
REMARK   12  A    between atoms: O_12  and  C_13
REMARK   13  A    between atoms: C_16  and  O_17
REMARK   14  A    between atoms: O_17  and  C_18
REMARK   15  A    between atoms: C_18  and  C_19
REMARK   16  A    between atoms: C_19  and  O_20
REMARK   17  A    between atoms: C_24  and  C_26
REMARK   18  A    between atoms: C_26  and  C_27
REMARK                            x       y       z     vdW  Elec       q    Type
REMARK                         _______ _______ _______ _____ _____    ______ ____
ROOT
ATOM      1  C   UNL     1       2.376   7.777  17.462  0.00  0.00    +0.000 C 
ENDROOT
BRANCH   1   2
ATOM      2  C   UNL     1       3.821   7.299  17.586  0.00  0.00    +0.000 C 
BRANCH   2   3
ATOM      3  C   UNL     1       3.966   5.959  18.301  0.00  0.00    +0.000 C 
BRANCH   3   4
ATOM      4  C   UNL     1       3.807   4.828  17.279  0.00  0.00    +0.000 C 
BRANCH   4   5
ATOM      5  C   UNL     1       5.141   4.160  16.937  0.00  0.00    +0.000 C 
BRANCH   5   6
ATOM      6  C   UNL     1       6.239   5.145  16.497  0.00  0.00    +0.000 C 
BRANCH   6   7
ATOM      7  C   UNL     1       6.629   4.982  15.029  0.00  0.00    +0.000 C 
ATOM      8  O   UNL     1       7.670   5.461  14.574  0.00  0.00    +0.000 OA
BRANCH   7  10
ATOM      9  C   UNL     1       6.404   3.733  12.860  0.00  0.00    +0.000 C 
ATOM     10  C   UNL     1       5.725   4.116  14.164  0.00  0.00    +0.000 C 
ENDBRANCH   7  10
ENDBRANCH   6   7
BRANCH   6  11
ATOM     11  C   UNL     1       7.429   5.103  17.443  0.00  0.00    +0.000 C 
ATOM     12  O   UNL     1       8.189   4.135  17.474  0.00  0.00    +0.000 OA
BRANCH  11  13
ATOM     13  C   UNL     1       7.641   6.320  18.331  0.00  0.00    +0.000 C 
ATOM     14  C   UNL     1       7.620   7.623  17.549  0.00  0.00    +0.000 C 
ENDBRANCH  11  13
ENDBRANCH   6  11
ENDBRANCH   5   6
ENDBRANCH   4   5
ENDBRANCH   3   4
ENDBRANCH   2   3
ENDBRANCH   1   2
BRANCH   1  15
ATOM     15  C   UNL     1       2.222   9.049  18.291  0.00  0.00    +0.000 C 
BRANCH  15  16
ATOM     16  O   UNL     1       1.134   8.937  19.205  0.00  0.00    +0.000 OA
BRANCH  16  17
ATOM     17  C   UNL     1       0.647  10.150  19.641  0.00  0.00    +0.000 A 
ATOM     18  C   UNL     1       0.782  11.331  18.904  0.00  0.00    +0.000 A 
ATOM     19  C   UNL     1       0.265  12.534  19.391  0.00  0.00    +0.000 A 
ATOM     20  C   UNL     1      -0.398  12.576  20.614  0.00  0.00    +0.000 A 
ATOM     21  C   UNL     1      -0.573  11.400  21.342  0.00  0.00    +0.000 A 
ATOM     22  C   UNL     1      -0.055  10.191  20.853  0.00  0.00    +0.000 A 
ATOM     23 CL   UNL     1      -0.296   8.767  21.805  0.00  0.00    +0.000 Cl
BRANCH  20  24
ATOM     24  O   UNL     1      -0.863  13.812  20.967  0.00  0.00    +0.000 OA
BRANCH  24  25
ATOM     25  C   UNL     1      -0.726  14.163  22.347  0.00  0.00    +0.000 C 
BRANCH  25  26
ATOM     26  C   UNL     1       0.321  15.270  22.438  0.00  0.00    +0.000 C 
BRANCH  26  27
ATOM     27  O   UNL     1      -0.218  16.499  21.955  0.00  0.00    +0.000 OA
ATOM     28  H   UNL     1      -0.547  16.315  21.055  0.00  0.00    +0.000 HD
ENDBRANCH  26  27
ENDBRANCH  25  26
ENDBRANCH  24  25
ENDBRANCH  20  24
ENDBRANCH  16  17
ENDBRANCH  15  16
ENDBRANCH   1  15
TORSDOF 16
ENDMDL
