MODEL 1
REMARK VINA RESULT:      -8.2      0.000      0.000
REMARK  Name = 
REMARK  10 active torsions:
REMARK  status: ('A' for Active; 'I' for Inactive)
REMARK    1  A    between atoms: C_1  and  C_2
REMARK    2  A    between atoms: C_3  and  C_4
REMARK    3  A    between atoms: C_4  and  C_5
REMARK    4  A    between atoms: C_4  and  C_9
REMARK    5  A    between atoms: C_5  and  C_6
REMARK    6  A    between atoms: C_6  and  O_8
REMARK    7  A    between atoms: C_12  and  O_13
REMARK    8  A    between atoms: O_13  and  C_14
REMARK    9  A    between atoms: C_14  and  C_15
REMARK   10  A    between atoms: C_21  and  C_22
REMARK                            x       y       z     vdW  Elec       q    Type
REMARK                         _______ _______ _______ _____ _____    ______ ____
ROOT
ATOM      1  C   UNL     1       1.366   9.072  18.636  0.00  0.00    +0.000 C 
ENDROOT
BRANCH   1   2
ATOM      2  C   UNL     1       0.845  10.278  19.414  0.00  0.00    +0.000 C 
ATOM      3  C   UNL     1       1.192  10.251  20.899  0.00  0.00    +0.000 C 
ATOM      4  O   UNL     1       0.709  11.422  21.583  0.00  0.00    +0.000 OA
ATOM      5  C   UNL     1       0.762  12.557  20.820  0.00  0.00    +0.000 A 
ATOM      6  C   UNL     1       0.394  13.753  21.424  0.00  0.00    +0.000 A 
ATOM      7  C   UNL     1       0.362  14.935  20.671  0.00  0.00    +0.000 A 
ATOM      8  C   UNL     1       0.729  14.961  19.310  0.00  0.00    +0.000 A 
ATOM      9  C   UNL     1       1.141  13.747  18.740  0.00  0.00    +0.000 A 
ATOM     10  C   UNL     1       1.121  12.562  19.476  0.00  0.00    +0.000 A 
ATOM     11  O   UNL     1       1.446  11.426  18.792  0.00  0.00    +0.000 OA
BRANCH   8  12
ATOM     12  C   UNL     1       0.652  16.202  18.502  0.00  0.00    +0.000 A 
ATOM     13  C   UNL     1       1.803  16.789  17.953  0.00  0.00    +0.000 A 
ATOM     14  C   UNL     1       1.740  17.984  17.227  0.00  0.00    +0.000 A 
ATOM     15  C   UNL     1       0.516  18.607  17.015  0.00  0.00    +0.000 A 
ATOM     16  C   UNL     1      -0.644  18.039  17.528  0.00  0.00    +0.000 A 
ATOM     17  C   UNL     1      -0.575  16.854  18.269  0.00  0.00    +0.000 A 
ENDBRANCH   8  12
ENDBRANCH   1   2
BRANCH   1  18
ATOM     18  O   UNL     1       1.714   7.985  19.494  0.00  0.00    +0.000 OA
BRANCH  18  22
ATOM     19  C   UNL     1       4.876   5.711  17.896  0.00  0.00    +0.000 A 
ATOM     20  C   UNL     1       4.407   6.882  17.279  0.00  0.00    +0.000 A 
ATOM     21  C   UNL     1       3.349   7.618  17.841  0.00  0.00    +0.000 A 
ATOM     22  C   UNL     1       2.719   7.185  19.008  0.00  0.00    +0.000 A 
ATOM     23  C   UNL     1       3.165   6.014  19.616  0.00  0.00    +0.000 A 
ATOM     24  C   UNL     1       4.211   5.278  19.056  0.00  0.00    +0.000 A 
BRANCH  19  25
ATOM     25  C   UNL     1       6.097   4.962  17.353  0.00  0.00    +0.000 C 
BRANCH  25  28
ATOM     26  C   UNL     1       5.620   3.816  13.389  0.00  0.00    +0.000 C 
ATOM     27  C   UNL     1       5.740   4.173  14.802  0.00  0.00    +0.000 C 
ATOM     28  C   UNL     1       5.868   4.508  15.955  0.00  0.00    +0.000 C 
ENDBRANCH  25  28
BRANCH  25  29
ATOM     29  C   UNL     1       7.361   5.822  17.441  0.00  0.00    +0.000 C 
BRANCH  29  30
ATOM     30  C   UNL     1       7.820   5.992  18.869  0.00  0.00    +0.000 C 
ATOM     31  O   UNL     1       7.626   5.167  19.749  0.00  0.00    +0.000 OA
BRANCH  30  32
ATOM     32  O   UNL     1       8.480   7.151  19.099  0.00  0.00    +0.000 OA
ATOM     33  H   UNL     1       9.427   7.122  18.865  0.00  0.00    +0.000 HD
ENDBRANCH  30  32
ENDBRANCH  29  30
ENDBRANCH  25  29
ENDBRANCH  19  25
ENDBRANCH  18  22
ENDBRANCH   1  18
TORSDOF 9
ENDMDL
MODEL 2
REMARK VINA RESULT:      -8.0      3.337      4.226
REMARK  Name = 
REMARK  10 active torsions:
REMARK  status: ('A' for Active; 'I' for Inactive)
REMARK    1  A    between atoms: C_1  and  C_2
REMARK    2  A    between atoms: C_3  and  C_4
REMARK    3  A    between atoms: C_4  and  C_5
REMARK    4  A    between atoms: C_4  and  C_9
REMARK    5  A    between atoms: C_5  and  C_6
REMARK    6  A    between atoms: C_6  and  O_8
REMARK    7  A    between atoms: C_12  and  O_13
REMARK    8  A    between atoms: O_13  and  C_14
REMARK    9  A    between atoms: C_14  and  C_15
REMARK   10  A    between atoms: C_21  and  C_22
REMARK                            x       y       z     vdW  Elec       q    Type
REMARK                         _______ _______ _______ _____ _____    ______ ____
ROOT
ATOM      1  C   UNL     1       1.784   8.840  17.895  0.00  0.00    +0.000 C 
ENDROOT
BRANCH   1   2
ATOM      2  C   UNL     1       1.099   9.960  18.674  0.00  0.00    +0.000 C 
ATOM      3  C   UNL     1       1.852  11.287  18.636  0.00  0.00    +0.000 C 
ATOM      4  O   UNL     1       1.154  12.319  19.357  0.00  0.00    +0.000 OA
ATOM      5  C   UNL     1      -0.208  12.226  19.256  0.00  0.00    +0.000 A 
ATOM      6  C   UNL     1      -0.965  13.228  19.849  0.00  0.00    +0.000 A 
ATOM      7  C   UNL     1      -2.364  13.146  19.838  0.00  0.00    +0.000 A 
ATOM      8  C   UNL     1      -3.043  12.084  19.204  0.00  0.00    +0.000 A 
ATOM      9  C   UNL     1      -2.253  11.112  18.573  0.00  0.00    +0.000 A 
ATOM     10  C   UNL     1      -0.860  11.167  18.632  0.00  0.00    +0.000 A 
ATOM     11  O   UNL     1      -0.195  10.115  18.069  0.00  0.00    +0.000 OA
BRANCH   8  12
ATOM     12  C   UNL     1      -4.522  11.974  19.231  0.00  0.00    +0.000 A 
ATOM     13  C   UNL     1      -5.231  11.402  18.164  0.00  0.00    +0.000 A 
ATOM     14  C   UNL     1      -6.629  11.335  18.165  0.00  0.00    +0.000 A 
ATOM     15  C   UNL     1      -7.348  11.822  19.251  0.00  0.00    +0.000 A 
ATOM     16  C   UNL     1      -6.673  12.374  20.333  0.00  0.00    +0.000 A 
ATOM     17  C   UNL     1      -5.277  12.455  20.320  0.00  0.00    +0.000 A 
ENDBRANCH   8  12
ENDBRANCH   1   2
BRANCH   1  18
ATOM     18  O   UNL     1       1.931   7.653  18.672  0.00  0.00    +0.000 OA
BRANCH  18  22
ATOM     19  C   UNL     1       4.997   5.178  17.189  0.00  0.00    +0.000 A 
ATOM     20  C   UNL     1       4.878   6.527  16.821  0.00  0.00    +0.000 A 
ATOM     21  C   UNL     1       3.841   7.326  17.336  0.00  0.00    +0.000 A 
ATOM     22  C   UNL     1       2.888   6.787  18.202  0.00  0.00    +0.000 A 
ATOM     23  C   UNL     1       2.988   5.444  18.557  0.00  0.00    +0.000 A 
ATOM     24  C   UNL     1       4.012   4.648  18.040  0.00  0.00    +0.000 A 
BRANCH  19  25
ATOM     25  C   UNL     1       6.183   4.329  16.720  0.00  0.00    +0.000 C 
BRANCH  25  28
ATOM     26  C   UNL     1       5.865   3.630  12.638  0.00  0.00    +0.000 C 
ATOM     27  C   UNL     1       5.985   3.808  14.084  0.00  0.00    +0.000 C 
ATOM     28  C   UNL     1       6.069   4.004  15.273  0.00  0.00    +0.000 C 
ENDBRANCH  25  28
BRANCH  25  29
ATOM     29  C   UNL     1       7.516   5.024  17.014  0.00  0.00    +0.000 C 
BRANCH  29  30
ATOM     30  C   UNL     1       7.559   5.569  18.421  0.00  0.00    +0.000 C 
ATOM     31  O   UNL     1       7.299   4.908  19.416  0.00  0.00    +0.000 OA
BRANCH  30  32
ATOM     32  O   UNL     1       7.922   6.871  18.494  0.00  0.00    +0.000 OA
ATOM     33  H   UNL     1       8.230   7.245  17.647  0.00  0.00    +0.000 HD
ENDBRANCH  30  32
ENDBRANCH  29  30
ENDBRANCH  25  29
ENDBRANCH  19  25
ENDBRANCH  18  22
ENDBRANCH   1  18
TORSDOF 9
ENDMDL
MODEL 3
REMARK VINA RESULT:      -8.0      2.392      3.138
REMARK  Name = 
REMARK  10 active torsions:
REMARK  status: ('A' for Active; 'I' for Inactive)
REMARK    1  A    between atoms: C_1  and  C_2
REMARK    2  A    between atoms: C_3  and  C_4
REMARK    3  A    between atoms: C_4  and  C_5
REMARK    4  A    between atoms: C_4  and  C_9
REMARK    5  A    between atoms: C_5  and  C_6
REMARK    6  A    between atoms: C_6  and  O_8
REMARK    7  A    between atoms: C_12  and  O_13
REMARK    8  A    between atoms: O_13  and  C_14
REMARK    9  A    between atoms: C_14  and  C_15
REMARK   10  A    between atoms: C_21  and  C_22
REMARK                            x       y       z     vdW  Elec       q    Type
REMARK                         _______ _______ _______ _____ _____    ______ ____
ROOT
ATOM      1  C   UNL     1       1.417   8.748  21.352  0.00  0.00    +0.000 C 
ENDROOT
BRANCH   1   2
ATOM      2  C   UNL     1       0.290   9.709  21.721  0.00  0.00    +0.000 C 
ATOM      3  C   UNL     1      -0.036   9.733  23.212  0.00  0.00    +0.000 C 
ATOM      4  O   UNL     1      -1.081  10.675  23.516  0.00  0.00    +0.000 OA
ATOM      5  C   UNL     1      -1.042  11.800  22.737  0.00  0.00    +0.000 A 
ATOM      6  C   UNL     1      -1.961  12.804  23.014  0.00  0.00    +0.000 A 
ATOM      7  C   UNL     1      -2.012  13.947  22.205  0.00  0.00    +0.000 A 
ATOM      8  C   UNL     1      -1.126  14.135  21.124  0.00  0.00    +0.000 A 
ATOM      9  C   UNL     1      -0.178  13.126  20.898  0.00  0.00    +0.000 A 
ATOM     10  C   UNL     1      -0.164  11.965  21.670  0.00  0.00    +0.000 A 
ATOM     11  O   UNL     1       0.735  11.007  21.297  0.00  0.00    +0.000 OA
BRANCH   8  12
ATOM     12  C   UNL     1      -1.210  15.323  20.240  0.00  0.00    +0.000 A 
ATOM     13  C   UNL     1      -0.348  15.481  19.144  0.00  0.00    +0.000 A 
ATOM     14  C   UNL     1      -0.394  16.621  18.334  0.00  0.00    +0.000 A 
ATOM     15  C   UNL     1      -1.324  17.621  18.592  0.00  0.00    +0.000 A 
ATOM     16  C   UNL     1      -2.207  17.484  19.657  0.00  0.00    +0.000 A 
ATOM     17  C   UNL     1      -2.145  16.351  20.475  0.00  0.00    +0.000 A 
ENDBRANCH   8  12
ENDBRANCH   1   2
BRANCH   1  18
ATOM     18  O   UNL     1       1.754   8.817  19.967  0.00  0.00    +0.000 OA
BRANCH  18  22
ATOM     19  C   UNL     1       3.079   5.248  18.169  0.00  0.00    +0.000 A 
ATOM     20  C   UNL     1       3.234   6.501  17.554  0.00  0.00    +0.000 A 
ATOM     21  C   UNL     1       2.779   7.673  18.183  0.00  0.00    +0.000 A 
ATOM     22  C   UNL     1       2.137   7.616  19.421  0.00  0.00    +0.000 A 
ATOM     23  C   UNL     1       1.963   6.375  20.029  0.00  0.00    +0.000 A 
ATOM     24  C   UNL     1       2.406   5.209  19.402  0.00  0.00    +0.000 A 
BRANCH  19  25
ATOM     25  C   UNL     1       3.666   3.979  17.544  0.00  0.00    +0.000 C 
BRANCH  25  28
ATOM     26  C   UNL     1       6.779   4.700  14.890  0.00  0.00    +0.000 C 
ATOM     27  C   UNL     1       5.661   4.510  15.812  0.00  0.00    +0.000 C 
ATOM     28  C   UNL     1       4.759   4.309  16.589  0.00  0.00    +0.000 C 
ENDBRANCH  25  28
BRANCH  25  29
ATOM     29  C   UNL     1       4.165   3.008  18.618  0.00  0.00    +0.000 C 
BRANCH  29  30
ATOM     30  C   UNL     1       3.352   1.737  18.638  0.00  0.00    +0.000 C 
ATOM     31  O   UNL     1       2.172   1.688  18.951  0.00  0.00    +0.000 OA
BRANCH  30  32
ATOM     32  O   UNL     1       4.047   0.635  18.271  0.00  0.00    +0.000 OA
ATOM     33  H   UNL     1       3.573   0.058  17.642  0.00  0.00    +0.000 HD
ENDBRANCH  30  32
ENDBRANCH  29  30
ENDBRANCH  25  29
ENDBRANCH  19  25
ENDBRANCH  18  22
ENDBRANCH   1  18
TORSDOF 9
ENDMDL
MODEL 4
REMARK VINA RESULT:      -7.9      0.799      1.213
REMARK  Name = 
REMARK  10 active torsions:
REMARK  status: ('A' for Active; 'I' for Inactive)
REMARK    1  A    between atoms: C_1  and  C_2
REMARK    2  A    between atoms: C_3  and  C_4
REMARK    3  A    between atoms: C_4  and  C_5
REMARK    4  A    between atoms: C_4  and  C_9
REMARK    5  A    between atoms: C_5  and  C_6
REMARK    6  A    between atoms: C_6  and  O_8
REMARK    7  A    between atoms: C_12  and  O_13
REMARK    8  A    between atoms: O_13  and  C_14
REMARK    9  A    between atoms: C_14  and  C_15
REMARK   10  A    between atoms: C_21  and  C_22
REMARK                            x       y       z     vdW  Elec       q    Type
REMARK                         _______ _______ _______ _____ _____    ______ ____
ROOT
ATOM      1  C   UNL     1       1.700   8.753  17.969  0.00  0.00    +0.000 C 
ENDROOT
BRANCH   1   2
ATOM      2  C   UNL     1       0.992   9.826  18.792  0.00  0.00    +0.000 C 
ATOM      3  C   UNL     1       1.076   9.601  20.299  0.00  0.00    +0.000 C 
ATOM      4  O   UNL     1       0.423  10.653  21.034  0.00  0.00    +0.000 OA
ATOM      5  C   UNL     1       0.551  11.884  20.450  0.00  0.00    +0.000 A 
ATOM      6  C   UNL     1       0.025  12.974  21.131  0.00  0.00    +0.000 A 
ATOM      7  C   UNL     1       0.066  14.248  20.548  0.00  0.00    +0.000 A 
ATOM      8  C   UNL     1       0.664  14.473  19.290  0.00  0.00    +0.000 A 
ATOM      9  C   UNL     1       1.229  13.361  18.649  0.00  0.00    +0.000 A 
ATOM     10  C   UNL     1       1.139  12.085  19.205  0.00  0.00    +0.000 A 
ATOM     11  O   UNL     1       1.634  11.063  18.446  0.00  0.00    +0.000 OA
BRANCH   8  12
ATOM     12  C   UNL     1       0.667  15.812  18.653  0.00  0.00    +0.000 A 
ATOM     13  C   UNL     1      -0.521  16.534  18.464  0.00  0.00    +0.000 A 
ATOM     14  C   UNL     1      -0.528  17.779  17.824  0.00  0.00    +0.000 A 
ATOM     15  C   UNL     1       0.664  18.340  17.380  0.00  0.00    +0.000 A 
ATOM     16  C   UNL     1       1.860  17.659  17.573  0.00  0.00    +0.000 A 
ATOM     17  C   UNL     1       1.861  16.407  18.196  0.00  0.00    +0.000 A 
ENDBRANCH   8  12
ENDBRANCH   1   2
BRANCH   1  18
ATOM     18  O   UNL     1       1.955   7.570  18.726  0.00  0.00    +0.000 OA
BRANCH  18  22
ATOM     19  C   UNL     1       4.945   5.189  16.962  0.00  0.00    +0.000 A 
ATOM     20  C   UNL     1       4.770   6.542  16.629  0.00  0.00    +0.000 A 
ATOM     21  C   UNL     1       3.760   7.308  17.239  0.00  0.00    +0.000 A 
ATOM     22  C   UNL     1       2.890   6.734  18.166  0.00  0.00    +0.000 A 
ATOM     23  C   UNL     1       3.045   5.388  18.488  0.00  0.00    +0.000 A 
ATOM     24  C   UNL     1       4.042   4.624  17.878  0.00  0.00    +0.000 A 
BRANCH  19  25
ATOM     25  C   UNL     1       6.108   4.375  16.387  0.00  0.00    +0.000 C 
BRANCH  25  28
ATOM     26  C   UNL     1       5.312   3.594  12.386  0.00  0.00    +0.000 C 
ATOM     27  C   UNL     1       5.659   3.870  13.779  0.00  0.00    +0.000 C 
ATOM     28  C   UNL     1       5.897   4.089  14.942  0.00  0.00    +0.000 C 
ENDBRANCH  25  28
BRANCH  25  29
ATOM     29  C   UNL     1       7.447   5.085  16.606  0.00  0.00    +0.000 C 
BRANCH  29  30
ATOM     30  C   UNL     1       7.631   5.492  18.047  0.00  0.00    +0.000 C 
ATOM     31  O   UNL     1       7.587   4.712  18.987  0.00  0.00    +0.000 OA
BRANCH  30  32
ATOM     32  O   UNL     1       7.857   6.816  18.219  0.00  0.00    +0.000 OA
ATOM     33  H   UNL     1       7.043   7.353  18.280  0.00  0.00    +0.000 HD
ENDBRANCH  30  32
ENDBRANCH  29  30
ENDBRANCH  25  29
ENDBRANCH  19  25
ENDBRANCH  18  22
ENDBRANCH   1  18
TORSDOF 9
ENDMDL
MODEL 5
REMARK VINA RESULT:      -7.9      1.819      2.161
REMARK  Name = 
REMARK  10 active torsions:
REMARK  status: ('A' for Active; 'I' for Inactive)
REMARK    1  A    between atoms: C_1  and  C_2
REMARK    2  A    between atoms: C_3  and  C_4
REMARK    3  A    between atoms: C_4  and  C_5
REMARK    4  A    between atoms: C_4  and  C_9
REMARK    5  A    between atoms: C_5  and  C_6
REMARK    6  A    between atoms: C_6  and  O_8
REMARK    7  A    between atoms: C_12  and  O_13
REMARK    8  A    between atoms: O_13  and  C_14
REMARK    9  A    between atoms: C_14  and  C_15
REMARK   10  A    between atoms: C_21  and  C_22
REMARK                            x       y       z     vdW  Elec       q    Type
REMARK                         _______ _______ _______ _____ _____    ______ ____
ROOT
ATOM      1  C   UNL     1       0.603   9.227  19.177  0.00  0.00    +0.000 C 
ENDROOT
BRANCH   1   2
ATOM      2  C   UNL     1       0.290  10.545  19.880  0.00  0.00    +0.000 C 
ATOM      3  C   UNL     1       0.781  10.605  21.323  0.00  0.00    +0.000 C 
ATOM      4  O   UNL     1       0.493  11.877  21.934  0.00  0.00    +0.000 OA
ATOM      5  C   UNL     1       0.585  12.930  21.065  0.00  0.00    +0.000 A 
ATOM      6  C   UNL     1       0.405  14.207  21.583  0.00  0.00    +0.000 A 
ATOM      7  C   UNL     1       0.419  15.316  20.727  0.00  0.00    +0.000 A 
ATOM      8  C   UNL     1       0.648  15.185  19.341  0.00  0.00    +0.000 A 
ATOM      9  C   UNL     1       0.873  13.889  18.855  0.00  0.00    +0.000 A 
ATOM     10  C   UNL     1       0.805  12.781  19.699  0.00  0.00    +0.000 A 
ATOM     11  O   UNL     1       0.940  11.561  19.100  0.00  0.00    +0.000 OA
BRANCH   8  12
ATOM     12  C   UNL     1       0.618  16.355  18.430  0.00  0.00    +0.000 A 
ATOM     13  C   UNL     1       1.792  16.859  17.850  0.00  0.00    +0.000 A 
ATOM     14  C   UNL     1       1.774  17.988  17.023  0.00  0.00    +0.000 A 
ATOM     15  C   UNL     1       0.572  18.625  16.740  0.00  0.00    +0.000 A 
ATOM     16  C   UNL     1      -0.611  18.136  17.282  0.00  0.00    +0.000 A 
ATOM     17  C   UNL     1      -0.587  17.018  18.122  0.00  0.00    +0.000 A 
ENDBRANCH   8  12
ENDBRANCH   1   2
BRANCH   1  18
ATOM     18  O   UNL     1       1.805   9.294  18.411  0.00  0.00    +0.000 OA
BRANCH  18  22
ATOM     19  C   UNL     1       3.605   5.505  18.058  0.00  0.00    +0.000 A 
ATOM     20  C   UNL     1       2.495   5.734  18.887  0.00  0.00    +0.000 A 
ATOM     21  C   UNL     1       1.918   7.013  18.981  0.00  0.00    +0.000 A 
ATOM     22  C   UNL     1       2.454   8.092  18.276  0.00  0.00    +0.000 A 
ATOM     23  C   UNL     1       3.567   7.877  17.466  0.00  0.00    +0.000 A 
ATOM     24  C   UNL     1       4.146   6.609  17.378  0.00  0.00    +0.000 A 
BRANCH  19  25
ATOM     25  C   UNL     1       4.174   4.096  17.865  0.00  0.00    +0.000 C 
BRANCH  25  28
ATOM     26  C   UNL     1       6.355   4.036  14.330  0.00  0.00    +0.000 C 
ATOM     27  C   UNL     1       5.586   3.988  15.573  0.00  0.00    +0.000 C 
ATOM     28  C   UNL     1       4.945   3.999  16.595  0.00  0.00    +0.000 C 
ENDBRANCH  25  28
BRANCH  25  29
ATOM     29  C   UNL     1       5.042   3.677  19.055  0.00  0.00    +0.000 C 
BRANCH  29  30
ATOM     30  C   UNL     1       4.404   2.557  19.840  0.00  0.00    +0.000 C 
ATOM     31  O   UNL     1       3.344   2.662  20.440  0.00  0.00    +0.000 OA
BRANCH  30  32
ATOM     32  O   UNL     1       5.111   1.403  19.823  0.00  0.00    +0.000 OA
ATOM     33  H   UNL     1       4.891   0.792  20.553  0.00  0.00    +0.000 HD
ENDBRANCH  30  32
ENDBRANCH  29  30
ENDBRANCH  25  29
ENDBRANCH  19  25
ENDBRANCH  18  22
ENDBRANCH   1  18
TORSDOF 9
ENDMDL
MODEL 6
REMARK VINA RESULT:      -7.8      4.351     11.065
REMARK  Name = 
REMARK  10 active torsions:
REMARK  status: ('A' for Active; 'I' for Inactive)
REMARK    1  A    between atoms: C_1  and  C_2
REMARK    2  A    between atoms: C_3  and  C_4
REMARK    3  A    between atoms: C_4  and  C_5
REMARK    4  A    between atoms: C_4  and  C_9
REMARK    5  A    between atoms: C_5  and  C_6
REMARK    6  A    between atoms: C_6  and  O_8
REMARK    7  A    between atoms: C_12  and  O_13
REMARK    8  A    between atoms: O_13  and  C_14
REMARK    9  A    between atoms: C_14  and  C_15
REMARK   10  A    between atoms: C_21  and  C_22
REMARK                            x       y       z     vdW  Elec       q    Type
REMARK                         _______ _______ _______ _____ _____    ______ ____
ROOT
ATOM      1  C   UNL     1       0.727  10.275  19.997  0.00  0.00    +0.000 C 
ENDROOT
BRANCH   1   2
ATOM      2  C   UNL     1       1.408   8.947  20.316  0.00  0.00    +0.000 C 
ATOM      3  C   UNL     1       0.501   7.942  21.018  0.00  0.00    +0.000 C 
ATOM      4  O   UNL     1       1.176   6.695  21.270  0.00  0.00    +0.000 OA
ATOM      5  C   UNL     1       2.059   6.348  20.283  0.00  0.00    +0.000 A 
ATOM      6  C   UNL     1       2.697   5.119  20.398  0.00  0.00    +0.000 A 
ATOM      7  C   UNL     1       3.663   4.743  19.454  0.00  0.00    +0.000 A 
ATOM      8  C   UNL     1       3.991   5.565  18.356  0.00  0.00    +0.000 A 
ATOM      9  C   UNL     1       3.296   6.778  18.241  0.00  0.00    +0.000 A 
ATOM     10  C   UNL     1       2.375   7.175  19.210  0.00  0.00    +0.000 A 
ATOM     11  O   UNL     1       1.834   8.419  19.049  0.00  0.00    +0.000 OA
BRANCH   8  12
ATOM     12  C   UNL     1       5.045   5.187  17.383  0.00  0.00    +0.000 A 
ATOM     13  C   UNL     1       6.347   4.875  17.801  0.00  0.00    +0.000 A 
ATOM     14  C   UNL     1       7.356   4.560  16.884  0.00  0.00    +0.000 A 
ATOM     15  C   UNL     1       7.074   4.529  15.523  0.00  0.00    +0.000 A 
ATOM     16  C   UNL     1       5.788   4.812  15.079  0.00  0.00    +0.000 A 
ATOM     17  C   UNL     1       4.787   5.144  15.998  0.00  0.00    +0.000 A 
ENDBRANCH   8  12
ENDBRANCH   1   2
BRANCH   1  18
ATOM     18  O   UNL     1       0.283  10.344  18.643  0.00  0.00    +0.000 OA
BRANCH  18  22
ATOM     19  C   UNL     1      -3.811  11.181  18.128  0.00  0.00    +0.000 A 
ATOM     20  C   UNL     1      -3.149  10.190  17.386  0.00  0.00    +0.000 A 
ATOM     21  C   UNL     1      -1.780   9.936  17.584  0.00  0.00    +0.000 A 
ATOM     22  C   UNL     1      -1.041  10.684  18.501  0.00  0.00    +0.000 A 
ATOM     23  C   UNL     1      -1.686  11.682  19.228  0.00  0.00    +0.000 A 
ATOM     24  C   UNL     1      -3.043  11.941  19.027  0.00  0.00    +0.000 A 
BRANCH  19  25
ATOM     25  C   UNL     1      -5.323  11.392  17.998  0.00  0.00    +0.000 C 
BRANCH  25  28
ATOM     26  C   UNL     1      -7.558   8.644  20.167  0.00  0.00    +0.000 C 
ATOM     27  C   UNL     1      -6.723   9.608  19.453  0.00  0.00    +0.000 C 
ATOM     28  C   UNL     1      -6.073  10.413  18.831  0.00  0.00    +0.000 C 
ENDBRANCH  25  28
BRANCH  25  29
ATOM     29  C   UNL     1      -5.718  12.826  18.365  0.00  0.00    +0.000 C 
BRANCH  29  30
ATOM     30  C   UNL     1      -7.043  13.210  17.752  0.00  0.00    +0.000 C 
ATOM     31  O   UNL     1      -7.913  13.832  18.344  0.00  0.00    +0.000 OA
BRANCH  30  32
ATOM     32  O   UNL     1      -7.192  12.807  16.468  0.00  0.00    +0.000 OA
ATOM     33  H   UNL     1      -6.373  12.459  16.064  0.00  0.00    +0.000 HD
ENDBRANCH  30  32
ENDBRANCH  29  30
ENDBRANCH  25  29
ENDBRANCH  19  25
ENDBRANCH  18  22
ENDBRANCH   1  18
TORSDOF 9
ENDMDL
MODEL 7
REMARK VINA RESULT:      -7.8      4.364      5.843
REMARK  Name = 
REMARK  10 active torsions:
REMARK  status: ('A' for Active; 'I' for Inactive)
REMARK    1  A    between atoms: C_1  and  C_2
REMARK    2  A    between atoms: C_3  and  C_4
REMARK    3  A    between atoms: C_4  and  C_5
REMARK    4  A    between atoms: C_4  and  C_9
REMARK    5  A    between atoms: C_5  and  C_6
REMARK    6  A    between atoms: C_6  and  O_8
REMARK    7  A    between atoms: C_12  and  O_13
REMARK    8  A    between atoms: O_13  and  C_14
REMARK    9  A    between atoms: C_14  and  C_15
REMARK   10  A    between atoms: C_21  and  C_22
REMARK                            x       y       z     vdW  Elec       q    Type
REMARK                         _______ _______ _______ _____ _____    ______ ____
ROOT
ATOM      1  C   UNL     1       0.071  11.195  18.260  0.00  0.00    +0.000 C 
ENDROOT
BRANCH   1   2
ATOM      2  C   UNL     1      -1.379  11.629  18.065  0.00  0.00    +0.000 C 
ATOM      3  C   UNL     1      -2.175  10.720  17.134  0.00  0.00    +0.000 C 
ATOM      4  O   UNL     1      -3.543  11.150  17.006  0.00  0.00    +0.000 OA
ATOM      5  C   UNL     1      -4.057  11.677  18.160  0.00  0.00    +0.000 A 
ATOM      6  C   UNL     1      -5.397  12.043  18.156  0.00  0.00    +0.000 A 
ATOM      7  C   UNL     1      -5.957  12.653  19.287  0.00  0.00    +0.000 A 
ATOM      8  C   UNL     1      -5.207  12.880  20.460  0.00  0.00    +0.000 A 
ATOM      9  C   UNL     1      -3.870  12.457  20.450  0.00  0.00    +0.000 A 
ATOM     10  C   UNL     1      -3.299  11.900  19.305  0.00  0.00    +0.000 A 
ATOM     11  O   UNL     1      -1.965  11.618  19.377  0.00  0.00    +0.000 OA
BRANCH   8  12
ATOM     12  C   UNL     1      -5.788  13.566  21.640  0.00  0.00    +0.000 A 
ATOM     13  C   UNL     1      -6.830  12.988  22.381  0.00  0.00    +0.000 A 
ATOM     14  C   UNL     1      -7.410  13.650  23.469  0.00  0.00    +0.000 A 
ATOM     15  C   UNL     1      -6.941  14.901  23.853  0.00  0.00    +0.000 A 
ATOM     16  C   UNL     1      -5.896  15.491  23.152  0.00  0.00    +0.000 A 
ATOM     17  C   UNL     1      -5.331  14.833  22.054  0.00  0.00    +0.000 A 
ENDBRANCH   8  12
ENDBRANCH   1   2
BRANCH   1  18
ATOM     18  O   UNL     1       0.287  10.589  19.534  0.00  0.00    +0.000 OA
BRANCH  18  22
ATOM     19  C   UNL     1       2.474   6.992  19.567  0.00  0.00    +0.000 A 
ATOM     20  C   UNL     1       1.756   7.444  20.686  0.00  0.00    +0.000 A 
ATOM     21  C   UNL     1       1.035   8.651  20.640  0.00  0.00    +0.000 A 
ATOM     22  C   UNL     1       1.042   9.443  19.491  0.00  0.00    +0.000 A 
ATOM     23  C   UNL     1       1.768   9.011  18.383  0.00  0.00    +0.000 A 
ATOM     24  C   UNL     1       2.490   7.817  18.430  0.00  0.00    +0.000 A 
BRANCH  19  25
ATOM     25  C   UNL     1       3.172   5.628  19.570  0.00  0.00    +0.000 C 
BRANCH  25  28
ATOM     26  C   UNL     1       0.634   2.439  18.773  0.00  0.00    +0.000 C 
ATOM     27  C   UNL     1       1.476   3.604  19.037  0.00  0.00    +0.000 C 
ATOM     28  C   UNL     1       2.212   4.535  19.259  0.00  0.00    +0.000 C 
ENDBRANCH  25  28
BRANCH  25  29
ATOM     29  C   UNL     1       4.352   5.604  18.593  0.00  0.00    +0.000 C 
BRANCH  29  30
ATOM     30  C   UNL     1       5.534   4.862  19.168  0.00  0.00    +0.000 C 
ATOM     31  O   UNL     1       6.459   5.405  19.753  0.00  0.00    +0.000 OA
BRANCH  30  32
ATOM     32  O   UNL     1       5.483   3.522  18.984  0.00  0.00    +0.000 OA
ATOM     33  H   UNL     1       5.621   3.004  19.800  0.00  0.00    +0.000 HD
ENDBRANCH  30  32
ENDBRANCH  29  30
ENDBRANCH  25  29
ENDBRANCH  19  25
ENDBRANCH  18  22
ENDBRANCH   1  18
TORSDOF 9
ENDMDL
MODEL 8
REMARK VINA RESULT:      -7.8      3.750      5.253
REMARK  Name = 
REMARK  10 active torsions:
REMARK  status: ('A' for Active; 'I' for Inactive)
REMARK    1  A    between atoms: C_1  and  C_2
REMARK    2  A    between atoms: C_3  and  C_4
REMARK    3  A    between atoms: C_4  and  C_5
REMARK    4  A    between atoms: C_4  and  C_9
REMARK    5  A    between atoms: C_5  and  C_6
REMARK    6  A    between atoms: C_6  and  O_8
REMARK    7  A    between atoms: C_12  and  O_13
REMARK    8  A    between atoms: O_13  and  C_14
REMARK    9  A    between atoms: C_14  and  C_15
REMARK   10  A    between atoms: C_21  and  C_22
REMARK                            x       y       z     vdW  Elec       q    Type
REMARK                         _______ _______ _______ _____ _____    ______ ____
ROOT
ATOM      1  C   UNL     1      -0.867  10.534  18.132  0.00  0.00    +0.000 C 
ENDROOT
BRANCH   1   2
ATOM      2  C   UNL     1      -1.957  11.515  18.555  0.00  0.00    +0.000 C 
ATOM      3  C   UNL     1      -3.370  11.049  18.218  0.00  0.00    +0.000 C 
ATOM      4  O   UNL     1      -4.364  11.990  18.665  0.00  0.00    +0.000 OA
ATOM      5  C   UNL     1      -4.038  12.607  19.842  0.00  0.00    +0.000 A 
ATOM      6  C   UNL     1      -4.975  13.471  20.395  0.00  0.00    +0.000 A 
ATOM      7  C   UNL     1      -4.666  14.183  21.561  0.00  0.00    +0.000 A 
ATOM      8  C   UNL     1      -3.432  14.026  22.226  0.00  0.00    +0.000 A 
ATOM      9  C   UNL     1      -2.524  13.112  21.670  0.00  0.00    +0.000 A 
ATOM     10  C   UNL     1      -2.812  12.445  20.480  0.00  0.00    +0.000 A 
ATOM     11  O   UNL     1      -1.815  11.657  19.978  0.00  0.00    +0.000 OA
BRANCH   8  12
ATOM     12  C   UNL     1      -3.088  14.813  23.435  0.00  0.00    +0.000 A 
ATOM     13  C   UNL     1      -3.945  15.810  23.926  0.00  0.00    +0.000 A 
ATOM     14  C   UNL     1      -3.605  16.584  25.041  0.00  0.00    +0.000 A 
ATOM     15  C   UNL     1      -2.404  16.361  25.704  0.00  0.00    +0.000 A 
ATOM     16  C   UNL     1      -1.544  15.366  25.255  0.00  0.00    +0.000 A 
ATOM     17  C   UNL     1      -1.879  14.606  24.129  0.00  0.00    +0.000 A 
ENDBRANCH   8  12
ENDBRANCH   1   2
BRANCH   1  18
ATOM     18  O   UNL     1       0.305  10.645  18.939  0.00  0.00    +0.000 OA
BRANCH  18  22
ATOM     19  C   UNL     1       2.528   7.085  19.265  0.00  0.00    +0.000 A 
ATOM     20  C   UNL     1       1.899   7.681  20.370  0.00  0.00    +0.000 A 
ATOM     21  C   UNL     1       1.163   8.871  20.225  0.00  0.00    +0.000 A 
ATOM     22  C   UNL     1       1.067   9.503  18.985  0.00  0.00    +0.000 A 
ATOM     23  C   UNL     1       1.704   8.929  17.888  0.00  0.00    +0.000 A 
ATOM     24  C   UNL     1       2.441   7.752  18.032  0.00  0.00    +0.000 A 
BRANCH  19  25
ATOM     25  C   UNL     1       3.239   5.734  19.390  0.00  0.00    +0.000 C 
BRANCH  25  28
ATOM     26  C   UNL     1       0.711   2.494  18.790  0.00  0.00    +0.000 C 
ATOM     27  C   UNL     1       1.567   3.668  18.951  0.00  0.00    +0.000 C 
ATOM     28  C   UNL     1       2.304   4.610  19.116  0.00  0.00    +0.000 C 
ENDBRANCH  25  28
BRANCH  25  29
ATOM     29  C   UNL     1       4.458   5.659  18.466  0.00  0.00    +0.000 C 
BRANCH  29  30
ATOM     30  C   UNL     1       5.556   4.812  19.063  0.00  0.00    +0.000 C 
ATOM     31  O   UNL     1       6.431   5.249  19.796  0.00  0.00    +0.000 OA
BRANCH  30  32
ATOM     32  O   UNL     1       5.489   3.505  18.719  0.00  0.00    +0.000 OA
ATOM     33  H   UNL     1       5.066   3.343  17.854  0.00  0.00    +0.000 HD
ENDBRANCH  30  32
ENDBRANCH  29  30
ENDBRANCH  25  29
ENDBRANCH  19  25
ENDBRANCH  18  22
ENDBRANCH   1  18
TORSDOF 9
ENDMDL
MODEL 9
REMARK VINA RESULT:      -7.7      4.762      6.345
REMARK  Name = 
REMARK  10 active torsions:
REMARK  status: ('A' for Active; 'I' for Inactive)
REMARK    1  A    between atoms: C_1  and  C_2
REMARK    2  A    between atoms: C_3  and  C_4
REMARK    3  A    between atoms: C_4  and  C_5
REMARK    4  A    between atoms: C_4  and  C_9
REMARK    5  A    between atoms: C_5  and  C_6
REMARK    6  A    between atoms: C_6  and  O_8
REMARK    7  A    between atoms: C_12  and  O_13
REMARK    8  A    between atoms: O_13  and  C_14
REMARK    9  A    between atoms: C_14  and  C_15
REMARK   10  A    between atoms: C_21  and  C_22
REMARK                            x       y       z     vdW  Elec       q    Type
REMARK                         _______ _______ _______ _____ _____    ______ ____
ROOT
ATOM      1  C   UNL     1      -0.299  11.533  18.280  0.00  0.00    +0.000 C 
ENDROOT
BRANCH   1   2
ATOM      2  C   UNL     1      -1.759  11.907  18.036  0.00  0.00    +0.000 C 
ATOM      3  C   UNL     1      -2.446  11.049  16.977  0.00  0.00    +0.000 C 
ATOM      4  O   UNL     1      -3.827  11.417  16.804  0.00  0.00    +0.000 OA
ATOM      5  C   UNL     1      -4.436  11.804  17.967  0.00  0.00    +0.000 A 
ATOM      6  C   UNL     1      -5.793  12.098  17.914  0.00  0.00    +0.000 A 
ATOM      7  C   UNL     1      -6.451  12.567  19.058  0.00  0.00    +0.000 A 
ATOM      8  C   UNL     1      -5.784  12.721  20.292  0.00  0.00    +0.000 A 
ATOM      9  C   UNL     1      -4.426  12.372  20.326  0.00  0.00    +0.000 A 
ATOM     10  C   UNL     1      -3.759  11.956  19.174  0.00  0.00    +0.000 A 
ATOM     11  O   UNL     1      -2.417  11.740  19.302  0.00  0.00    +0.000 OA
BRANCH   8  12
ATOM     12  C   UNL     1      -6.470  13.260  21.491  0.00  0.00    +0.000 A 
ATOM     13  C   UNL     1      -6.408  14.623  21.818  0.00  0.00    +0.000 A 
ATOM     14  C   UNL     1      -7.018  15.128  22.971  0.00  0.00    +0.000 A 
ATOM     15  C   UNL     1      -7.725  14.279  23.814  0.00  0.00    +0.000 A 
ATOM     16  C   UNL     1      -7.823  12.927  23.507  0.00  0.00    +0.000 A 
ATOM     17  C   UNL     1      -7.197  12.423  22.362  0.00  0.00    +0.000 A 
ENDBRANCH   8  12
ENDBRANCH   1   2
BRANCH   1  18
ATOM     18  O   UNL     1      -0.126  10.790  19.487  0.00  0.00    +0.000 OA
BRANCH  18  22
ATOM     19  C   UNL     1       2.334   7.380  19.296  0.00  0.00    +0.000 A 
ATOM     20  C   UNL     1       1.707   7.787  20.484  0.00  0.00    +0.000 A 
ATOM     21  C   UNL     1       0.891   8.932  20.512  0.00  0.00    +0.000 A 
ATOM     22  C   UNL     1       0.710   9.707  19.367  0.00  0.00    +0.000 A 
ATOM     23  C   UNL     1       1.344   9.321  18.188  0.00  0.00    +0.000 A 
ATOM     24  C   UNL     1       2.161   8.189  18.160  0.00  0.00    +0.000 A 
BRANCH  19  25
ATOM     25  C   UNL     1       3.136   6.076  19.228  0.00  0.00    +0.000 C 
BRANCH  25  28
ATOM     26  C   UNL     1       1.461   3.054  21.533  0.00  0.00    +0.000 C 
ATOM     27  C   UNL     1       1.989   4.126  20.691  0.00  0.00    +0.000 C 
ATOM     28  C   UNL     1       2.473   4.999  20.012  0.00  0.00    +0.000 C 
ENDBRANCH  25  28
BRANCH  25  29
ATOM     29  C   UNL     1       3.354   5.632  17.779  0.00  0.00    +0.000 C 
BRANCH  29  30
ATOM     30  C   UNL     1       4.800   5.770  17.367  0.00  0.00    +0.000 C 
ATOM     31  O   UNL     1       5.162   6.039  16.231  0.00  0.00    +0.000 OA
BRANCH  30  32
ATOM     32  O   UNL     1       5.679   5.573  18.377  0.00  0.00    +0.000 OA
ATOM     33  H   UNL     1       6.107   4.696  18.366  0.00  0.00    +0.000 HD
ENDBRANCH  30  32
ENDBRANCH  29  30
ENDBRANCH  25  29
ENDBRANCH  19  25
ENDBRANCH  18  22
ENDBRANCH   1  18
TORSDOF 9
ENDMDL
