MODEL 1
REMARK VINA RESULT:      -7.0      0.000      0.000
REMARK  Name = 
REMARK  7 active torsions:
REMARK  status: ('A' for Active; 'I' for Inactive)
REMARK    1  A    between atoms: C_1  and  N_2
REMARK    2  A    between atoms: N_5  and  C_6
REMARK    3  A    between atoms: C_10  and  C_11
REMARK    4  A    between atoms: C_22  and  C_23
REMARK    5  A    between atoms: C_26  and  C_27
REMARK    6  A    between atoms: C_30  and  S_31
REMARK    7  A    between atoms: S_31  and  C_32
REMARK                            x       y       z     vdW  Elec       q    Type
REMARK                         _______ _______ _______ _____ _____    ______ ____
ROOT
ATOM      1  C   UNL     1      -0.766  11.695  22.957  0.00  0.00    +0.000 C 
ATOM      2  N   UNL     1      -0.848  11.349  21.538  0.00  0.00    +0.000 N 
ATOM      3  C   UNL     1       0.133  10.508  21.010  0.00  0.00    +0.000 C 
ATOM      4  O   UNL     1       1.093  10.144  21.694  0.00  0.00    +0.000 OA
ATOM      5  N   UNL     1       0.002  10.149  19.644  0.00  0.00    +0.000 N 
ATOM      6  C   UNL     1      -1.085  10.542  18.890  0.00  0.00    +0.000 C 
ATOM      7  C   UNL     1      -2.055  11.254  19.448  0.00  0.00    +0.000 C 
ATOM      8  C   UNL     1      -3.070  11.460  18.418  0.00  0.00    +0.000 C 
ATOM      9  O   UNL     1      -4.074  12.132  18.586  0.00  0.00    +0.000 OA
ATOM     10  C   UNL     1      -2.709  10.769  17.142  0.00  0.00    +0.000 C 
ATOM     11  C   UNL     1      -1.354  10.145  17.469  0.00  0.00    +0.000 C 
ATOM     12  C   UNL     1      -2.088  11.730  20.839  0.00  0.00    +0.000 C 
ENDROOT
BRANCH   5  13
ATOM     13  C   UNL     1       1.045   9.352  19.087  0.00  0.00    +0.000 A 
ATOM     14  C   UNL     1       1.787   9.792  17.996  0.00  0.00    +0.000 A 
ATOM     15  N   UNL     1       2.808   9.090  17.446  0.00  0.00    +0.000 NA
ATOM     16  C   UNL     1       3.069   7.874  17.976  0.00  0.00    +0.000 A 
ATOM     17  C   UNL     1       2.374   7.329  19.046  0.00  0.00    +0.000 A 
ATOM     18  C   UNL     1       1.348   8.094  19.613  0.00  0.00    +0.000 A 
BRANCH  17  19
ATOM     19  C   UNL     1       2.706   5.967  19.564  0.00  0.00    +0.000 C 
ATOM     20  F   UNL     1       2.347   4.957  18.727  0.00  0.00    +0.000 F 
ATOM     21  F   UNL     1       4.042   5.815  19.782  0.00  0.00    +0.000 F 
ATOM     22  F   UNL     1       2.105   5.700  20.756  0.00  0.00    +0.000 F 
ENDBRANCH  17  19
ENDBRANCH   5  13
BRANCH  12  23
ATOM     23  C   UNL     1      -2.320  13.235  20.884  0.00  0.00    +0.000 A 
ATOM     24  C   UNL     1      -1.367  14.055  20.226  0.00  0.00    +0.000 A 
ATOM     25  C   UNL     1      -1.523  15.436  20.135  0.00  0.00    +0.000 A 
ATOM     26  C   UNL     1      -2.627  16.045  20.724  0.00  0.00    +0.000 A 
ATOM     27  C   UNL     1      -3.574  15.267  21.394  0.00  0.00    +0.000 A 
ATOM     28  C   UNL     1      -3.440  13.865  21.465  0.00  0.00    +0.000 A 
BRANCH  28  29
ATOM     29  S   UNL     1      -4.741  13.008  22.353  0.00  0.00    +0.000 S 
ATOM     30  C   UNL     1      -5.774  14.306  22.975  0.00  0.00    +0.000 C 
ATOM     31  O   UNL     1      -5.498  12.204  21.417  0.00  0.00    +0.000 OA
ATOM     32  O   UNL     1      -4.110  12.364  23.495  0.00  0.00    +0.000 OA
ENDBRANCH  28  29
BRANCH  26  33
ATOM     33  C   UNL     1      -2.791  17.466  20.642  0.00  0.00    +0.000 C 
ATOM     34  N   UNL     1      -2.914  18.618  20.592  0.00  0.00    +0.000 NA
ENDBRANCH  26  33
ENDBRANCH  12  23
TORSDOF 5
ENDMDL
MODEL 2
REMARK VINA RESULT:      -6.5      6.850      8.245
REMARK  Name = 
REMARK  7 active torsions:
REMARK  status: ('A' for Active; 'I' for Inactive)
REMARK    1  A    between atoms: C_1  and  N_2
REMARK    2  A    between atoms: N_5  and  C_6
REMARK    3  A    between atoms: C_10  and  C_11
REMARK    4  A    between atoms: C_22  and  C_23
REMARK    5  A    between atoms: C_26  and  C_27
REMARK    6  A    between atoms: C_30  and  S_31
REMARK    7  A    between atoms: S_31  and  C_32
REMARK                            x       y       z     vdW  Elec       q    Type
REMARK                         _______ _______ _______ _____ _____    ______ ____
ROOT
ATOM      1  C   UNL     1       4.423  16.416  17.407  0.00  0.00    +0.000 C 
ATOM      2  N   UNL     1       4.954  15.741  18.592  0.00  0.00    +0.000 N 
ATOM      3  C   UNL     1       6.317  15.436  18.616  0.00  0.00    +0.000 C 
ATOM      4  O   UNL     1       7.032  15.642  17.633  0.00  0.00    +0.000 OA
ATOM      5  N   UNL     1       6.815  14.828  19.796  0.00  0.00    +0.000 N 
ATOM      6  C   UNL     1       6.015  14.618  20.901  0.00  0.00    +0.000 C 
ATOM      7  C   UNL     1       4.749  15.015  20.886  0.00  0.00    +0.000 C 
ATOM      8  C   UNL     1       4.196  14.705  22.201  0.00  0.00    +0.000 C 
ATOM      9  O   UNL     1       3.027  14.888  22.502  0.00  0.00    +0.000 OA
ATOM     10  C   UNL     1       5.229  14.119  23.109  0.00  0.00    +0.000 C 
ATOM     11  C   UNL     1       6.467  14.061  22.217  0.00  0.00    +0.000 C 
ATOM     12  C   UNL     1       4.054  15.649  19.754  0.00  0.00    +0.000 C 
ENDROOT
BRANCH   5  13
ATOM     13  C   UNL     1       8.189  14.448  19.791  0.00  0.00    +0.000 A 
ATOM     14  C   UNL     1       9.180  15.313  20.245  0.00  0.00    +0.000 A 
ATOM     15  N   UNL     1      10.496  14.994  20.291  0.00  0.00    +0.000 NA
ATOM     16  C   UNL     1      10.848  13.777  19.817  0.00  0.00    +0.000 A 
ATOM     17  C   UNL     1       9.944  12.850  19.319  0.00  0.00    +0.000 A 
ATOM     18  C   UNL     1       8.588  13.197  19.317  0.00  0.00    +0.000 A 
BRANCH  17  19
ATOM     19  C   UNL     1      10.411  11.530  18.793  0.00  0.00    +0.000 C 
ATOM     20  F   UNL     1      10.640  11.522  17.452  0.00  0.00    +0.000 F 
ATOM     21  F   UNL     1      11.576  11.131  19.374  0.00  0.00    +0.000 F 
ATOM     22  F   UNL     1       9.518  10.529  19.028  0.00  0.00    +0.000 F 
ENDBRANCH  17  19
ENDBRANCH   5  13
BRANCH  12  23
ATOM     23  C   UNL     1       2.776  14.889  19.418  0.00  0.00    +0.000 A 
ATOM     24  C   UNL     1       2.907  13.510  19.110  0.00  0.00    +0.000 A 
ATOM     25  C   UNL     1       1.798  12.703  18.868  0.00  0.00    +0.000 A 
ATOM     26  C   UNL     1       0.522  13.257  18.899  0.00  0.00    +0.000 A 
ATOM     27  C   UNL     1       0.362  14.616  19.182  0.00  0.00    +0.000 A 
ATOM     28  C   UNL     1       1.476  15.434  19.459  0.00  0.00    +0.000 A 
BRANCH  28  29
ATOM     29  S   UNL     1       1.106  17.153  19.810  0.00  0.00    +0.000 S 
ATOM     30  C   UNL     1      -0.644  17.282  19.564  0.00  0.00    +0.000 C 
ATOM     31  O   UNL     1       1.412  17.426  21.199  0.00  0.00    +0.000 OA
ATOM     32  O   UNL     1       1.754  17.939  18.771  0.00  0.00    +0.000 OA
ENDBRANCH  28  29
BRANCH  26  33
ATOM     33  C   UNL     1      -0.624  12.436  18.643  0.00  0.00    +0.000 C 
ATOM     34  N   UNL     1      -1.562  11.785  18.444  0.00  0.00    +0.000 NA
ENDBRANCH  26  33
ENDBRANCH  12  23
TORSDOF 5
ENDMDL
MODEL 3
REMARK VINA RESULT:      -6.5      3.171      5.005
REMARK  Name = 
REMARK  7 active torsions:
REMARK  status: ('A' for Active; 'I' for Inactive)
REMARK    1  A    between atoms: C_1  and  N_2
REMARK    2  A    between atoms: N_5  and  C_6
REMARK    3  A    between atoms: C_10  and  C_11
REMARK    4  A    between atoms: C_22  and  C_23
REMARK    5  A    between atoms: C_26  and  C_27
REMARK    6  A    between atoms: C_30  and  S_31
REMARK    7  A    between atoms: S_31  and  C_32
REMARK                            x       y       z     vdW  Elec       q    Type
REMARK                         _______ _______ _______ _____ _____    ______ ____
ROOT
ATOM      1  C   UNL     1       2.273  10.754  17.195  0.00  0.00    +0.000 C 
ATOM      2  N   UNL     1       1.916   9.756  18.203  0.00  0.00    +0.000 N 
ATOM      3  C   UNL     1       2.578   8.526  18.172  0.00  0.00    +0.000 C 
ATOM      4  O   UNL     1       3.370   8.254  17.267  0.00  0.00    +0.000 OA
ATOM      5  N   UNL     1       2.248   7.596  19.190  0.00  0.00    +0.000 N 
ATOM      6  C   UNL     1       1.377   7.914  20.212  0.00  0.00    +0.000 C 
ATOM      7  C   UNL     1       0.844   9.127  20.274  0.00  0.00    +0.000 C 
ATOM      8  C   UNL     1       0.023   9.164  21.481  0.00  0.00    +0.000 C 
ATOM      9  O   UNL     1      -0.658  10.124  21.804  0.00  0.00    +0.000 OA
ATOM     10  C   UNL     1       0.109   7.882  22.245  0.00  0.00    +0.000 C 
ATOM     11  C   UNL     1       1.032   7.032  21.374  0.00  0.00    +0.000 C 
ATOM     12  C   UNL     1       1.055  10.215  19.307  0.00  0.00    +0.000 C 
ENDROOT
BRANCH   5  13
ATOM     13  C   UNL     1       2.869   6.315  19.113  0.00  0.00    +0.000 A 
ATOM     14  C   UNL     1       4.238   6.161  19.307  0.00  0.00    +0.000 A 
ATOM     15  N   UNL     1       4.874   4.965  19.276  0.00  0.00    +0.000 NA
ATOM     16  C   UNL     1       4.122   3.879  18.989  0.00  0.00    +0.000 A 
ATOM     17  C   UNL     1       2.755   3.924  18.753  0.00  0.00    +0.000 A 
ATOM     18  C   UNL     1       2.122   5.170  18.827  0.00  0.00    +0.000 A 
BRANCH  17  19
ATOM     19  C   UNL     1       1.992   2.682  18.421  0.00  0.00    +0.000 C 
ATOM     20  F   UNL     1       2.048   1.727  19.388  0.00  0.00    +0.000 F 
ATOM     21  F   UNL     1       0.669   2.933  18.219  0.00  0.00    +0.000 F 
ATOM     22  F   UNL     1       2.434   2.087  17.279  0.00  0.00    +0.000 F 
ENDBRANCH  17  19
ENDBRANCH   5  13
BRANCH  12  23
ATOM     23  C   UNL     1      -0.280  10.744  18.796  0.00  0.00    +0.000 A 
ATOM     24  C   UNL     1      -1.143   9.813  18.163  0.00  0.00    +0.000 A 
ATOM     25  C   UNL     1      -2.419  10.169  17.731  0.00  0.00    +0.000 A 
ATOM     26  C   UNL     1      -2.863  11.478  17.898  0.00  0.00    +0.000 A 
ATOM     27  C   UNL     1      -2.029  12.421  18.503  0.00  0.00    +0.000 A 
ATOM     28  C   UNL     1      -0.748  12.063  18.969  0.00  0.00    +0.000 A 
BRANCH  28  29
ATOM     29  S   UNL     1       0.197  13.385  19.729  0.00  0.00    +0.000 S 
ATOM     30  C   UNL     1      -0.971  14.705  19.915  0.00  0.00    +0.000 C 
ATOM     31  O   UNL     1       0.641  12.954  21.037  0.00  0.00    +0.000 OA
ATOM     32  O   UNL     1       1.183  13.807  18.746  0.00  0.00    +0.000 OA
ENDBRANCH  28  29
BRANCH  26  33
ATOM     33  C   UNL     1      -4.171  11.854  17.451  0.00  0.00    +0.000 C 
ATOM     34  N   UNL     1      -5.229  12.143  17.076  0.00  0.00    +0.000 NA
ENDBRANCH  26  33
ENDBRANCH  12  23
TORSDOF 5
ENDMDL
MODEL 4
REMARK VINA RESULT:      -6.5      5.262      8.463
REMARK  Name = 
REMARK  7 active torsions:
REMARK  status: ('A' for Active; 'I' for Inactive)
REMARK    1  A    between atoms: C_1  and  N_2
REMARK    2  A    between atoms: N_5  and  C_6
REMARK    3  A    between atoms: C_10  and  C_11
REMARK    4  A    between atoms: C_22  and  C_23
REMARK    5  A    between atoms: C_26  and  C_27
REMARK    6  A    between atoms: C_30  and  S_31
REMARK    7  A    between atoms: S_31  and  C_32
REMARK                            x       y       z     vdW  Elec       q    Type
REMARK                         _______ _______ _______ _____ _____    ______ ____
ROOT
ATOM      1  C   UNL     1      -2.324  11.176  17.166  0.00  0.00    +0.000 C 
ATOM      2  N   UNL     1      -2.545  11.631  18.538  0.00  0.00    +0.000 N 
ATOM      3  C   UNL     1      -3.827  12.064  18.887  0.00  0.00    +0.000 C 
ATOM      4  O   UNL     1      -4.720  12.149  18.041  0.00  0.00    +0.000 OA
ATOM      5  N   UNL     1      -4.026  12.453  20.235  0.00  0.00    +0.000 N 
ATOM      6  C   UNL     1      -3.029  12.335  21.182  0.00  0.00    +0.000 C 
ATOM      7  C   UNL     1      -1.853  11.822  20.844  0.00  0.00    +0.000 C 
ATOM      8  C   UNL     1      -1.046  11.783  22.061  0.00  0.00    +0.000 C 
ATOM      9  O   UNL     1       0.119  11.419  22.086  0.00  0.00    +0.000 OA
ATOM     10  C   UNL     1      -1.817  12.263  23.248  0.00  0.00    +0.000 C 
ATOM     11  C   UNL     1      -3.167  12.640  22.643  0.00  0.00    +0.000 C 
ATOM     12  C   UNL     1      -1.457  11.378  19.498  0.00  0.00    +0.000 C 
ENDROOT
BRANCH   5  13
ATOM     13  C   UNL     1      -5.314  12.965  20.572  0.00  0.00    +0.000 A 
ATOM     14  C   UNL     1      -6.373  12.116  20.876  0.00  0.00    +0.000 A 
ATOM     15  N   UNL     1      -7.607  12.547  21.231  0.00  0.00    +0.000 NA
ATOM     16  C   UNL     1      -7.810  13.884  21.236  0.00  0.00    +0.000 A 
ATOM     17  C   UNL     1      -6.831  14.817  20.924  0.00  0.00    +0.000 A 
ATOM     18  C   UNL     1      -5.557  14.340  20.595  0.00  0.00    +0.000 A 
BRANCH  17  19
ATOM     19  C   UNL     1      -7.136  16.281  20.931  0.00  0.00    +0.000 C 
ATOM     20  F   UNL     1      -7.799  16.699  22.042  0.00  0.00    +0.000 F 
ATOM     21  F   UNL     1      -6.006  17.039  20.861  0.00  0.00    +0.000 F 
ATOM     22  F   UNL     1      -7.901  16.660  19.870  0.00  0.00    +0.000 F 
ENDBRANCH  17  19
ENDBRANCH   5  13
BRANCH  12  23
ATOM     23  C   UNL     1      -0.160  12.055  19.071  0.00  0.00    +0.000 A 
ATOM     24  C   UNL     1      -0.132  13.473  19.104  0.00  0.00    +0.000 A 
ATOM     25  C   UNL     1       1.026  14.192  18.812  0.00  0.00    +0.000 A 
ATOM     26  C   UNL     1       2.186  13.513  18.452  0.00  0.00    +0.000 A 
ATOM     27  C   UNL     1       2.184  12.117  18.394  0.00  0.00    +0.000 A 
ATOM     28  C   UNL     1       1.026  11.381  18.717  0.00  0.00    +0.000 A 
BRANCH  28  29
ATOM     29  S   UNL     1       1.186   9.598  18.602  0.00  0.00    +0.000 S 
ATOM     30  C   UNL     1       2.767   9.350  17.840  0.00  0.00    +0.000 C 
ATOM     31  O   UNL     1       1.209   9.041  19.937  0.00  0.00    +0.000 OA
ATOM     32  O   UNL     1       0.171   9.150  17.661  0.00  0.00    +0.000 OA
ENDBRANCH  28  29
BRANCH  26  33
ATOM     33  C   UNL     1       3.378  14.245  18.143  0.00  0.00    +0.000 C 
ATOM     34  N   UNL     1       4.332  14.853  17.888  0.00  0.00    +0.000 NA
ENDBRANCH  26  33
ENDBRANCH  12  23
TORSDOF 5
ENDMDL
MODEL 5
REMARK VINA RESULT:      -6.4      2.413      3.394
REMARK  Name = 
REMARK  7 active torsions:
REMARK  status: ('A' for Active; 'I' for Inactive)
REMARK    1  A    between atoms: C_1  and  N_2
REMARK    2  A    between atoms: N_5  and  C_6
REMARK    3  A    between atoms: C_10  and  C_11
REMARK    4  A    between atoms: C_22  and  C_23
REMARK    5  A    between atoms: C_26  and  C_27
REMARK    6  A    between atoms: C_30  and  S_31
REMARK    7  A    between atoms: S_31  and  C_32
REMARK                            x       y       z     vdW  Elec       q    Type
REMARK                         _______ _______ _______ _____ _____    ______ ____
ROOT
ATOM      1  C   UNL     1       0.688  13.813  19.090  0.00  0.00    +0.000 C 
ATOM      2  N   UNL     1       0.523  12.505  19.725  0.00  0.00    +0.000 N 
ATOM      3  C   UNL     1       1.191  11.415  19.165  0.00  0.00    +0.000 C 
ATOM      4  O   UNL     1       1.825  11.530  18.114  0.00  0.00    +0.000 OA
ATOM      5  N   UNL     1       1.053  10.170  19.829  0.00  0.00    +0.000 N 
ATOM      6  C   UNL     1       0.360  10.051  21.017  0.00  0.00    +0.000 C 
ATOM      7  C   UNL     1      -0.176  11.126  21.580  0.00  0.00    +0.000 C 
ATOM      8  C   UNL     1      -0.784  10.684  22.833  0.00  0.00    +0.000 C 
ATOM      9  O   UNL     1      -1.418  11.421  23.571  0.00  0.00    +0.000 OA
ATOM     10  C   UNL     1      -0.549   9.228  23.076  0.00  0.00    +0.000 C 
ATOM     11  C   UNL     1       0.230   8.801  21.834  0.00  0.00    +0.000 C 
ATOM     12  C   UNL     1      -0.149  12.493  21.036  0.00  0.00    +0.000 C 
ENDROOT
BRANCH   5  13
ATOM     13  C   UNL     1       1.674   9.043  19.215  0.00  0.00    +0.000 A 
ATOM     14  C   UNL     1       2.145   9.100  17.906  0.00  0.00    +0.000 A 
ATOM     15  N   UNL     1       2.769   8.071  17.284  0.00  0.00    +0.000 NA
ATOM     16  C   UNL     1       2.886   6.916  17.979  0.00  0.00    +0.000 A 
ATOM     17  C   UNL     1       2.429   6.744  19.277  0.00  0.00    +0.000 A 
ATOM     18  C   UNL     1       1.820   7.837  19.904  0.00  0.00    +0.000 A 
BRANCH  17  19
ATOM     19  C   UNL     1       2.575   5.429  19.974  0.00  0.00    +0.000 C 
ATOM     20  F   UNL     1       3.852   4.961  20.002  0.00  0.00    +0.000 F 
ATOM     21  F   UNL     1       2.171   5.492  21.274  0.00  0.00    +0.000 F 
ATOM     22  F   UNL     1       1.826   4.448  19.401  0.00  0.00    +0.000 F 
ENDBRANCH  17  19
ENDBRANCH   5  13
BRANCH  12  23
ATOM     23  C   UNL     1      -1.560  13.062  20.952  0.00  0.00    +0.000 A 
ATOM     24  C   UNL     1      -2.496  12.352  20.157  0.00  0.00    +0.000 A 
ATOM     25  C   UNL     1      -3.833  12.738  20.075  0.00  0.00    +0.000 A 
ATOM     26  C   UNL     1      -4.268  13.865  20.765  0.00  0.00    +0.000 A 
ATOM     27  C   UNL     1      -3.366  14.595  21.542  0.00  0.00    +0.000 A 
ATOM     28  C   UNL     1      -2.019  14.195  21.656  0.00  0.00    +0.000 A 
BRANCH  28  29
ATOM     29  S   UNL     1      -0.989  15.232  22.695  0.00  0.00    +0.000 S 
ATOM     30  C   UNL     1      -2.012  16.629  23.069  0.00  0.00    +0.000 C 
ATOM     31  O   UNL     1      -0.689  14.520  23.919  0.00  0.00    +0.000 OA
ATOM     32  O   UNL     1       0.105  15.701  21.859  0.00  0.00    +0.000 OA
ENDBRANCH  28  29
BRANCH  26  33
ATOM     33  C   UNL     1      -5.639  14.273  20.680  0.00  0.00    +0.000 C 
ATOM     34  N   UNL     1      -6.742  14.622  20.609  0.00  0.00    +0.000 NA
ENDBRANCH  26  33
ENDBRANCH  12  23
TORSDOF 5
ENDMDL
MODEL 6
REMARK VINA RESULT:      -6.3      2.521      3.631
REMARK  Name = 
REMARK  7 active torsions:
REMARK  status: ('A' for Active; 'I' for Inactive)
REMARK    1  A    between atoms: C_1  and  N_2
REMARK    2  A    between atoms: N_5  and  C_6
REMARK    3  A    between atoms: C_10  and  C_11
REMARK    4  A    between atoms: C_22  and  C_23
REMARK    5  A    between atoms: C_26  and  C_27
REMARK    6  A    between atoms: C_30  and  S_31
REMARK    7  A    between atoms: S_31  and  C_32
REMARK                            x       y       z     vdW  Elec       q    Type
REMARK                         _______ _______ _______ _____ _____    ______ ____
ROOT
ATOM      1  C   UNL     1       0.924  13.094  18.490  0.00  0.00    +0.000 C 
ATOM      2  N   UNL     1       0.755  11.917  19.343  0.00  0.00    +0.000 N 
ATOM      3  C   UNL     1       1.374  10.728  18.950  0.00  0.00    +0.000 C 
ATOM      4  O   UNL     1       1.965  10.647  17.871  0.00  0.00    +0.000 OA
ATOM      5  N   UNL     1       1.235   9.617  19.820  0.00  0.00    +0.000 N 
ATOM      6  C   UNL     1       0.590   9.720  21.035  0.00  0.00    +0.000 C 
ATOM      7  C   UNL     1       0.103  10.890  21.429  0.00  0.00    +0.000 C 
ATOM      8  C   UNL     1      -0.461  10.683  22.760  0.00  0.00    +0.000 C 
ATOM      9  O   UNL     1      -1.046  11.552  23.386  0.00  0.00    +0.000 OA
ATOM     10  C   UNL     1      -0.250   9.282  23.236  0.00  0.00    +0.000 C 
ATOM     11  C   UNL     1       0.465   8.629  22.056  0.00  0.00    +0.000 C 
ATOM     12  C   UNL     1       0.139  12.145  20.662  0.00  0.00    +0.000 C 
ENDROOT
BRANCH   5  13
ATOM     13  C   UNL     1       1.803   8.385  19.381  0.00  0.00    +0.000 A 
ATOM     14  C   UNL     1       2.540   8.306  18.203  0.00  0.00    +0.000 A 
ATOM     15  N   UNL     1       3.127   7.171  17.756  0.00  0.00    +0.000 NA
ATOM     16  C   UNL     1       2.930   6.051  18.487  0.00  0.00    +0.000 A 
ATOM     17  C   UNL     1       2.192   6.012  19.661  0.00  0.00    +0.000 A 
ATOM     18  C   UNL     1       1.627   7.210  20.116  0.00  0.00    +0.000 A 
BRANCH  17  19
ATOM     19  C   UNL     1       2.000   4.731  20.407  0.00  0.00    +0.000 C 
ATOM     20  F   UNL     1       0.702   4.332  20.490  0.00  0.00    +0.000 F 
ATOM     21  F   UNL     1       2.673   3.697  19.828  0.00  0.00    +0.000 F 
ATOM     22  F   UNL     1       2.456   4.798  21.688  0.00  0.00    +0.000 F 
ENDBRANCH  17  19
ENDBRANCH   5  13
BRANCH  12  23
ATOM     23  C   UNL     1      -1.260  12.734  20.535  0.00  0.00    +0.000 A 
ATOM     24  C   UNL     1      -2.238  11.942  19.879  0.00  0.00    +0.000 A 
ATOM     25  C   UNL     1      -3.567  12.348  19.779  0.00  0.00    +0.000 A 
ATOM     26  C   UNL     1      -3.955  13.575  20.311  0.00  0.00    +0.000 A 
ATOM     27  C   UNL     1      -3.011  14.384  20.948  0.00  0.00    +0.000 A 
ATOM     28  C   UNL     1      -1.671  13.968  21.080  0.00  0.00    +0.000 A 
BRANCH  28  29
ATOM     29  S   UNL     1      -0.585  15.116  21.929  0.00  0.00    +0.000 S 
ATOM     30  C   UNL     1       0.280  15.945  20.623  0.00  0.00    +0.000 C 
ATOM     31  O   UNL     1      -1.390  16.077  22.652  0.00  0.00    +0.000 OA
ATOM     32  O   UNL     1       0.385  14.310  22.655  0.00  0.00    +0.000 OA
ENDBRANCH  28  29
BRANCH  26  33
ATOM     33  C   UNL     1      -5.318  14.003  20.206  0.00  0.00    +0.000 C 
ATOM     34  N   UNL     1      -6.419  14.359  20.139  0.00  0.00    +0.000 NA
ENDBRANCH  26  33
ENDBRANCH  12  23
TORSDOF 5
ENDMDL
MODEL 7
REMARK VINA RESULT:      -6.2      0.751      1.074
REMARK  Name = 
REMARK  7 active torsions:
REMARK  status: ('A' for Active; 'I' for Inactive)
REMARK    1  A    between atoms: C_1  and  N_2
REMARK    2  A    between atoms: N_5  and  C_6
REMARK    3  A    between atoms: C_10  and  C_11
REMARK    4  A    between atoms: C_22  and  C_23
REMARK    5  A    between atoms: C_26  and  C_27
REMARK    6  A    between atoms: C_30  and  S_31
REMARK    7  A    between atoms: S_31  and  C_32
REMARK                            x       y       z     vdW  Elec       q    Type
REMARK                         _______ _______ _______ _____ _____    ______ ____
ROOT
ATOM      1  C   UNL     1      -0.543  11.671  22.827  0.00  0.00    +0.000 C 
ATOM      2  N   UNL     1      -0.642  11.291  21.418  0.00  0.00    +0.000 N 
ATOM      3  C   UNL     1       0.309  10.403  20.910  0.00  0.00    +0.000 C 
ATOM      4  O   UNL     1       1.256  10.024  21.602  0.00  0.00    +0.000 OA
ATOM      5  N   UNL     1       0.161  10.013  19.555  0.00  0.00    +0.000 N 
ATOM      6  C   UNL     1      -0.914  10.424  18.792  0.00  0.00    +0.000 C 
ATOM      7  C   UNL     1      -1.857  11.184  19.333  0.00  0.00    +0.000 C 
ATOM      8  C   UNL     1      -2.867  11.398  18.300  0.00  0.00    +0.000 C 
ATOM      9  O   UNL     1      -3.847  12.110  18.453  0.00  0.00    +0.000 OA
ATOM     10  C   UNL     1      -2.534  10.662  17.043  0.00  0.00    +0.000 C 
ATOM     11  C   UNL     1      -1.201  10.000  17.383  0.00  0.00    +0.000 C 
ATOM     12  C   UNL     1      -1.870  11.697  20.712  0.00  0.00    +0.000 C 
ENDROOT
BRANCH   5  13
ATOM     13  C   UNL     1       1.174   9.166  19.017  0.00  0.00    +0.000 A 
ATOM     14  C   UNL     1       2.002   9.594  17.984  0.00  0.00    +0.000 A 
ATOM     15  N   UNL     1       2.999   8.844  17.456  0.00  0.00    +0.000 NA
ATOM     16  C   UNL     1       3.146   7.592  17.945  0.00  0.00    +0.000 A 
ATOM     17  C   UNL     1       2.359   7.057  18.955  0.00  0.00    +0.000 A 
ATOM     18  C   UNL     1       1.360   7.870  19.503  0.00  0.00    +0.000 A 
BRANCH  17  19
ATOM     19  C   UNL     1       2.568   5.655  19.430  0.00  0.00    +0.000 C 
ATOM     20  F   UNL     1       2.784   5.554  20.769  0.00  0.00    +0.000 F 
ATOM     21  F   UNL     1       1.495   4.858  19.163  0.00  0.00    +0.000 F 
ATOM     22  F   UNL     1       3.632   5.053  18.831  0.00  0.00    +0.000 F 
ENDBRANCH  17  19
ENDBRANCH   5  13
BRANCH  12  23
ATOM     23  C   UNL     1      -2.049  13.210  20.718  0.00  0.00    +0.000 A 
ATOM     24  C   UNL     1      -1.118  13.973  19.966  0.00  0.00    +0.000 A 
ATOM     25  C   UNL     1      -1.235  15.355  19.836  0.00  0.00    +0.000 A 
ATOM     26  C   UNL     1      -2.275  16.022  20.477  0.00  0.00    +0.000 A 
ATOM     27  C   UNL     1      -3.198  15.300  21.239  0.00  0.00    +0.000 A 
ATOM     28  C   UNL     1      -3.104  13.898  21.351  0.00  0.00    +0.000 A 
BRANCH  28  29
ATOM     29  S   UNL     1      -4.367  13.117  22.357  0.00  0.00    +0.000 S 
ATOM     30  C   UNL     1      -5.484  12.405  21.180  0.00  0.00    +0.000 C 
ATOM     31  O   UNL     1      -3.759  12.060  23.137  0.00  0.00    +0.000 OA
ATOM     32  O   UNL     1      -5.075  14.188  23.041  0.00  0.00    +0.000 OA
ENDBRANCH  28  29
BRANCH  26  33
ATOM     33  C   UNL     1      -2.398  17.444  20.355  0.00  0.00    +0.000 C 
ATOM     34  N   UNL     1      -2.497  18.597  20.276  0.00  0.00    +0.000 NA
ENDBRANCH  26  33
ENDBRANCH  12  23
TORSDOF 5
ENDMDL
MODEL 8
REMARK VINA RESULT:      -6.2      6.927      8.313
REMARK  Name = 
REMARK  7 active torsions:
REMARK  status: ('A' for Active; 'I' for Inactive)
REMARK    1  A    between atoms: C_1  and  N_2
REMARK    2  A    between atoms: N_5  and  C_6
REMARK    3  A    between atoms: C_10  and  C_11
REMARK    4  A    between atoms: C_22  and  C_23
REMARK    5  A    between atoms: C_26  and  C_27
REMARK    6  A    between atoms: C_30  and  S_31
REMARK    7  A    between atoms: S_31  and  C_32
REMARK                            x       y       z     vdW  Elec       q    Type
REMARK                         _______ _______ _______ _____ _____    ______ ____
ROOT
ATOM      1  C   UNL     1       4.195  16.443  18.001  0.00  0.00    +0.000 C 
ATOM      2  N   UNL     1       4.899  15.802  19.112  0.00  0.00    +0.000 N 
ATOM      3  C   UNL     1       6.249  15.489  18.940  0.00  0.00    +0.000 C 
ATOM      4  O   UNL     1       6.807  15.660  17.854  0.00  0.00    +0.000 OA
ATOM      5  N   UNL     1       6.920  14.915  20.049  0.00  0.00    +0.000 N 
ATOM      6  C   UNL     1       6.296  14.745  21.269  0.00  0.00    +0.000 C 
ATOM      7  C   UNL     1       5.044  15.149  21.433  0.00  0.00    +0.000 C 
ATOM      8  C   UNL     1       4.696  14.884  22.827  0.00  0.00    +0.000 C 
ATOM      9  O   UNL     1       3.587  15.085  23.295  0.00  0.00    +0.000 OA
ATOM     10  C   UNL     1       5.854  14.321  23.586  0.00  0.00    +0.000 C 
ATOM     11  C   UNL     1       6.942  14.227  22.518  0.00  0.00    +0.000 C 
ATOM     12  C   UNL     1       4.186  15.752  20.400  0.00  0.00    +0.000 C 
ENDROOT
BRANCH   5  13
ATOM     13  C   UNL     1       8.277  14.526  19.848  0.00  0.00    +0.000 A 
ATOM     14  C   UNL     1       9.322  15.425  20.039  0.00  0.00    +0.000 A 
ATOM     15  N   UNL     1      10.630  15.102  19.892  0.00  0.00    +0.000 NA
ATOM     16  C   UNL     1      10.907  13.842  19.487  0.00  0.00    +0.000 A 
ATOM     17  C   UNL     1       9.941  12.876  19.243  0.00  0.00    +0.000 A 
ATOM     18  C   UNL     1       8.601  13.232  19.438  0.00  0.00    +0.000 A 
BRANCH  17  19
ATOM     19  C   UNL     1      10.324  11.508  18.778  0.00  0.00    +0.000 C 
ATOM     20  F   UNL     1       9.428  10.542  19.116  0.00  0.00    +0.000 F 
ATOM     21  F   UNL     1      10.449  11.445  17.423  0.00  0.00    +0.000 F 
ATOM     22  F   UNL     1      11.523  11.102  19.279  0.00  0.00    +0.000 F 
ENDBRANCH  17  19
ENDBRANCH   5  13
BRANCH  12  23
ATOM     23  C   UNL     1       2.871  14.991  20.286  0.00  0.00    +0.000 A 
ATOM     24  C   UNL     1       2.950  13.607  19.981  0.00  0.00    +0.000 A 
ATOM     25  C   UNL     1       1.816  12.799  19.933  0.00  0.00    +0.000 A 
ATOM     26  C   UNL     1       0.562  13.357  20.163  0.00  0.00    +0.000 A 
ATOM     27  C   UNL     1       0.450  14.720  20.449  0.00  0.00    +0.000 A 
ATOM     28  C   UNL     1       1.595  15.539  20.530  0.00  0.00    +0.000 A 
BRANCH  28  29
ATOM     29  S   UNL     1       1.286  17.264  20.912  0.00  0.00    +0.000 S 
ATOM     30  C   UNL     1      -0.469  17.351  21.147  0.00  0.00    +0.000 C 
ATOM     31  O   UNL     1       1.949  17.596  22.155  0.00  0.00    +0.000 OA
ATOM     32  O   UNL     1       1.605  18.019  19.711  0.00  0.00    +0.000 OA
ENDBRANCH  28  29
BRANCH  26  33
ATOM     33  C   UNL     1      -0.610  12.534  20.107  0.00  0.00    +0.000 C 
ATOM     34  N   UNL     1      -1.547  11.853  20.070  0.00  0.00    +0.000 NA
ENDBRANCH  26  33
ENDBRANCH  12  23
TORSDOF 5
ENDMDL
MODEL 9
REMARK VINA RESULT:      -6.1      1.341      1.459
REMARK  Name = 
REMARK  7 active torsions:
REMARK  status: ('A' for Active; 'I' for Inactive)
REMARK    1  A    between atoms: C_1  and  N_2
REMARK    2  A    between atoms: N_5  and  C_6
REMARK    3  A    between atoms: C_10  and  C_11
REMARK    4  A    between atoms: C_22  and  C_23
REMARK    5  A    between atoms: C_26  and  C_27
REMARK    6  A    between atoms: C_30  and  S_31
REMARK    7  A    between atoms: S_31  and  C_32
REMARK                            x       y       z     vdW  Elec       q    Type
REMARK                         _______ _______ _______ _____ _____    ______ ____
ROOT
ATOM      1  C   UNL     1      -0.387  10.489  23.449  0.00  0.00    +0.000 C 
ATOM      2  N   UNL     1      -0.341  10.406  21.989  0.00  0.00    +0.000 N 
ATOM      3  C   UNL     1       0.516   9.465  21.412  0.00  0.00    +0.000 C 
ATOM      4  O   UNL     1       1.279   8.791  22.108  0.00  0.00    +0.000 OA
ATOM      5  N   UNL     1       0.504   9.371  19.998  0.00  0.00    +0.000 N 
ATOM      6  C   UNL     1      -0.367  10.113  19.226  0.00  0.00    +0.000 C 
ATOM      7  C   UNL     1      -1.243  10.922  19.809  0.00  0.00    +0.000 C 
ATOM      8  C   UNL     1      -2.044  11.514  18.740  0.00  0.00    +0.000 C 
ATOM      9  O   UNL     1      -2.907  12.355  18.932  0.00  0.00    +0.000 OA
ATOM     10  C   UNL     1      -1.657  10.976  17.400  0.00  0.00    +0.000 C 
ATOM     11  C   UNL     1      -0.512  10.023  17.737  0.00  0.00    +0.000 C 
ATOM     12  C   UNL     1      -1.371  11.160  21.255  0.00  0.00    +0.000 C 
ENDROOT
BRANCH   5  13
ATOM     13  C   UNL     1       1.432   8.464  19.407  0.00  0.00    +0.000 A 
ATOM     14  C   UNL     1       2.199   8.830  18.305  0.00  0.00    +0.000 A 
ATOM     15  N   UNL     1       3.117   8.020  17.723  0.00  0.00    +0.000 NA
ATOM     16  C   UNL     1       3.242   6.773  18.231  0.00  0.00    +0.000 A 
ATOM     17  C   UNL     1       2.509   6.299  19.310  0.00  0.00    +0.000 A 
ATOM     18  C   UNL     1       1.594   7.172  19.910  0.00  0.00    +0.000 A 
BRANCH  17  19
ATOM     19  C   UNL     1       2.688   4.899  19.804  0.00  0.00    +0.000 C 
ATOM     20  F   UNL     1       3.883   4.345  19.466  0.00  0.00    +0.000 F 
ATOM     21  F   UNL     1       2.610   4.822  21.161  0.00  0.00    +0.000 F 
ATOM     22  F   UNL     1       1.733   4.052  19.330  0.00  0.00    +0.000 F 
ENDBRANCH  17  19
ENDBRANCH   5  13
BRANCH  12  23
ATOM     23  C   UNL     1      -1.300  12.652  21.559  0.00  0.00    +0.000 A 
ATOM     24  C   UNL     1      -0.137  13.343  21.131  0.00  0.00    +0.000 A 
ATOM     25  C   UNL     1      -0.003  14.722  21.285  0.00  0.00    +0.000 A 
ATOM     26  C   UNL     1      -1.019  15.449  21.898  0.00  0.00    +0.000 A 
ATOM     27  C   UNL     1      -2.169  14.794  22.345  0.00  0.00    +0.000 A 
ATOM     28  C   UNL     1      -2.326  13.404  22.167  0.00  0.00    +0.000 A 
BRANCH  28  29
ATOM     29  S   UNL     1      -3.860  12.713  22.789  0.00  0.00    +0.000 S 
ATOM     30  C   UNL     1      -4.698  14.095  23.517  0.00  0.00    +0.000 C 
ATOM     31  O   UNL     1      -4.639  12.218  21.674  0.00  0.00    +0.000 OA
ATOM     32  O   UNL     1      -3.499  11.803  23.865  0.00  0.00    +0.000 OA
ENDBRANCH  28  29
BRANCH  26  33
ATOM     33  C   UNL     1      -0.886  16.866  22.067  0.00  0.00    +0.000 C 
ATOM     34  N   UNL     1      -0.773  18.009  22.222  0.00  0.00    +0.000 NA
ENDBRANCH  26  33
ENDBRANCH  12  23
TORSDOF 5
ENDMDL
