MODEL 1
REMARK VINA RESULT:      -8.4      0.000      0.000
REMARK  Name = 
REMARK  6 active torsions:
REMARK  status: ('A' for Active; 'I' for Inactive)
REMARK    1  A    between atoms: C_2  and  C_19
REMARK    2  A    between atoms: N_3  and  C_4
REMARK    3  A    between atoms: C_4  and  C_5
REMARK    4  A    between atoms: C_5  and  C_6
REMARK    5  A    between atoms: N_9  and  C_10
REMARK    6  A    between atoms: C_10  and  C_11
REMARK                            x       y       z     vdW  Elec       q    Type
REMARK                         _______ _______ _______ _____ _____    ______ ____
ROOT
ATOM      1  C   UNL     1       1.536   2.483  19.269  0.00  0.00    +0.000 C 
ATOM      2  C   UNL     1       1.320   3.585  18.225  0.00  0.00    +0.000 C 
ATOM      3  C   UNL     1       2.021   4.897  18.590  0.00  0.00    +0.000 C 
ATOM      4  N   UNL     1       1.647   5.383  19.929  0.00  0.00    +0.000 NA
ATOM      5  C   UNL     1       1.876   4.352  20.959  0.00  0.00    +0.000 C 
ATOM      6  C   UNL     1       1.134   3.053  20.637  0.00  0.00    +0.000 C 
ENDROOT
BRANCH   1   7
ATOM      7  C   UNL     1       2.978   1.926  19.233  0.00  0.00    +0.000 C 
BRANCH   7   8
ATOM      8  C   UNL     1       3.719   2.312  17.950  0.00  0.00    +0.000 C 
BRANCH   8  11
ATOM      9  O   UNL     1       4.624   4.282  16.163  0.00  0.00    +0.000 OA
ATOM     10  C   UNL     1       5.142   4.195  17.271  0.00  0.00    +0.000 C 
ATOM     11  N   UNL     1       4.801   3.233  18.197  0.00  0.00    +0.000 N 
ATOM     12  H   UNL     1       5.290   3.249  19.087  0.00  0.00    +0.000 HD
BRANCH  10  13
ATOM     13  C   UNL     1       6.186   5.169  17.709  0.00  0.00    +0.000 A 
ATOM     14  C   UNL     1       6.308   6.375  17.027  0.00  0.00    +0.000 A 
ATOM     15  C   UNL     1       7.279   7.275  17.447  0.00  0.00    +0.000 A 
ATOM     16  C   UNL     1       8.093   6.939  18.524  0.00  0.00    +0.000 A 
ATOM     17  C   UNL     1       7.897   5.714  19.147  0.00  0.00    +0.000 A 
ATOM     18  N   UNL     1       6.961   4.814  18.772  0.00  0.00    +0.000 NA
ENDBRANCH  10  13
ENDBRANCH   8  11
ENDBRANCH   7   8
ENDBRANCH   1   7
BRANCH   4  19
ATOM     19  C   UNL     1       2.416   6.595  20.283  0.00  0.00    +0.000 C 
BRANCH  19  20
ATOM     20  C   UNL     1       1.851   7.886  19.724  0.00  0.00    +0.000 A 
ATOM     21  C   UNL     1       1.059   8.729  20.516  0.00  0.00    +0.000 A 
ATOM     22  C   UNL     1       0.579   9.938  20.004  0.00  0.00    +0.000 A 
ATOM     23  C   UNL     1       0.890  10.318  18.700  0.00  0.00    +0.000 A 
ATOM     24  C   UNL     1       1.667   9.484  17.899  0.00  0.00    +0.000 A 
ATOM     25  C   UNL     1       2.141   8.272  18.406  0.00  0.00    +0.000 A 
ENDBRANCH  19  20
ENDBRANCH   4  19
TORSDOF 6
ENDMDL
MODEL 2
REMARK VINA RESULT:      -8.4      4.227      6.614
REMARK  Name = 
REMARK  6 active torsions:
REMARK  status: ('A' for Active; 'I' for Inactive)
REMARK    1  A    between atoms: C_2  and  C_19
REMARK    2  A    between atoms: N_3  and  C_4
REMARK    3  A    between atoms: C_4  and  C_5
REMARK    4  A    between atoms: C_5  and  C_6
REMARK    5  A    between atoms: N_9  and  C_10
REMARK    6  A    between atoms: C_10  and  C_11
REMARK                            x       y       z     vdW  Elec       q    Type
REMARK                         _______ _______ _______ _____ _____    ______ ____
ROOT
ATOM      1  C   UNL     1       7.368   6.150  17.509  0.00  0.00    +0.000 C 
ATOM      2  C   UNL     1       6.647   5.512  16.315  0.00  0.00    +0.000 C 
ATOM      3  C   UNL     1       5.127   5.697  16.370  0.00  0.00    +0.000 C 
ATOM      4  N   UNL     1       4.546   5.214  17.635  0.00  0.00    +0.000 NA
ATOM      5  C   UNL     1       5.200   5.838  18.800  0.00  0.00    +0.000 C 
ATOM      6  C   UNL     1       6.714   5.611  18.789  0.00  0.00    +0.000 C 
ENDROOT
BRANCH   1   7
ATOM      7  C   UNL     1       7.376   7.694  17.423  0.00  0.00    +0.000 C 
BRANCH   7   8
ATOM      8  C   UNL     1       8.338   8.327  18.432  0.00  0.00    +0.000 C 
BRANCH   8  11
ATOM      9  O   UNL     1       9.322  10.310  20.163  0.00  0.00    +0.000 OA
ATOM     10  C   UNL     1       9.263  10.542  18.961  0.00  0.00    +0.000 C 
ATOM     11  N   UNL     1       8.751   9.653  18.040  0.00  0.00    +0.000 N 
ATOM     12  H   UNL     1       8.750   9.941  17.066  0.00  0.00    +0.000 HD
BRANCH  10  13
ATOM     13  C   UNL     1       9.779  11.825  18.399  0.00  0.00    +0.000 A 
ATOM     14  C   UNL     1      10.940  11.803  17.633  0.00  0.00    +0.000 A 
ATOM     15  C   UNL     1      11.408  13.003  17.112  0.00  0.00    +0.000 A 
ATOM     16  C   UNL     1      10.708  14.175  17.375  0.00  0.00    +0.000 A 
ATOM     17  C   UNL     1       9.555  14.100  18.146  0.00  0.00    +0.000 A 
ATOM     18  N   UNL     1       9.066  12.954  18.668  0.00  0.00    +0.000 NA
ENDBRANCH  10  13
ENDBRANCH   8  11
ENDBRANCH   7   8
ENDBRANCH   1   7
BRANCH   4  19
ATOM     19  C   UNL     1       3.096   5.499  17.689  0.00  0.00    +0.000 C 
BRANCH  19  20
ATOM     20  C   UNL     1       2.299   4.548  18.561  0.00  0.00    +0.000 A 
ATOM     21  C   UNL     1       1.997   4.871  19.891  0.00  0.00    +0.000 A 
ATOM     22  C   UNL     1       1.225   4.007  20.673  0.00  0.00    +0.000 A 
ATOM     23  C   UNL     1       0.742   2.817  20.132  0.00  0.00    +0.000 A 
ATOM     24  C   UNL     1       1.044   2.479  18.814  0.00  0.00    +0.000 A 
ATOM     25  C   UNL     1       1.822   3.338  18.034  0.00  0.00    +0.000 A 
ENDBRANCH  19  20
ENDBRANCH   4  19
TORSDOF 6
ENDMDL
MODEL 3
REMARK VINA RESULT:      -8.2      4.199      6.637
REMARK  Name = 
REMARK  6 active torsions:
REMARK  status: ('A' for Active; 'I' for Inactive)
REMARK    1  A    between atoms: C_2  and  C_19
REMARK    2  A    between atoms: N_3  and  C_4
REMARK    3  A    between atoms: C_4  and  C_5
REMARK    4  A    between atoms: C_5  and  C_6
REMARK    5  A    between atoms: N_9  and  C_10
REMARK    6  A    between atoms: C_10  and  C_11
REMARK                            x       y       z     vdW  Elec       q    Type
REMARK                         _______ _______ _______ _____ _____    ______ ____
ROOT
ATOM      1  C   UNL     1       7.596   5.977  17.735  0.00  0.00    +0.000 C 
ATOM      2  C   UNL     1       7.028   5.209  16.535  0.00  0.00    +0.000 C 
ATOM      3  C   UNL     1       5.505   5.329  16.418  0.00  0.00    +0.000 C 
ATOM      4  N   UNL     1       4.812   4.928  17.655  0.00  0.00    +0.000 NA
ATOM      5  C   UNL     1       5.316   5.677  18.820  0.00  0.00    +0.000 C 
ATOM      6  C   UNL     1       6.830   5.519  18.984  0.00  0.00    +0.000 C 
ENDROOT
BRANCH   1   7
ATOM      7  C   UNL     1       7.557   7.507  17.514  0.00  0.00    +0.000 C 
BRANCH   7   8
ATOM      8  C   UNL     1       8.357   8.268  18.574  0.00  0.00    +0.000 C 
BRANCH   8  11
ATOM      9  O   UNL     1       9.436  10.286  20.205  0.00  0.00    +0.000 OA
ATOM     10  C   UNL     1       9.298  10.497  19.005  0.00  0.00    +0.000 C 
ATOM     11  N   UNL     1       8.734   9.589  18.134  0.00  0.00    +0.000 N 
ATOM     12  H   UNL     1       8.669   9.860  17.158  0.00  0.00    +0.000 HD
BRANCH  10  13
ATOM     13  C   UNL     1       9.768  11.773  18.390  0.00  0.00    +0.000 A 
ATOM     14  C   UNL     1       8.996  12.920  18.549  0.00  0.00    +0.000 A 
ATOM     15  C   UNL     1       9.446  14.102  17.976  0.00  0.00    +0.000 A 
ATOM     16  C   UNL     1      10.641  14.098  17.265  0.00  0.00    +0.000 A 
ATOM     17  C   UNL     1      11.348  12.908  17.162  0.00  0.00    +0.000 A 
ATOM     18  N   UNL     1      10.947  11.738  17.708  0.00  0.00    +0.000 NA
ENDBRANCH  10  13
ENDBRANCH   8  11
ENDBRANCH   7   8
ENDBRANCH   1   7
BRANCH   4  19
ATOM     19  C   UNL     1       3.354   5.150  17.535  0.00  0.00    +0.000 C 
BRANCH  19  20
ATOM     20  C   UNL     1       2.509   4.302  18.465  0.00  0.00    +0.000 A 
ATOM     21  C   UNL     1       1.883   4.866  19.586  0.00  0.00    +0.000 A 
ATOM     22  C   UNL     1       1.071   4.085  20.412  0.00  0.00    +0.000 A 
ATOM     23  C   UNL     1       0.871   2.736  20.124  0.00  0.00    +0.000 A 
ATOM     24  C   UNL     1       1.496   2.161  19.019  0.00  0.00    +0.000 A 
ATOM     25  C   UNL     1       2.314   2.938  18.197  0.00  0.00    +0.000 A 
ENDBRANCH  19  20
ENDBRANCH   4  19
TORSDOF 6
ENDMDL
MODEL 4
REMARK VINA RESULT:      -8.0      0.558      1.123
REMARK  Name = 
REMARK  6 active torsions:
REMARK  status: ('A' for Active; 'I' for Inactive)
REMARK    1  A    between atoms: C_2  and  C_19
REMARK    2  A    between atoms: N_3  and  C_4
REMARK    3  A    between atoms: C_4  and  C_5
REMARK    4  A    between atoms: C_5  and  C_6
REMARK    5  A    between atoms: N_9  and  C_10
REMARK    6  A    between atoms: C_10  and  C_11
REMARK                            x       y       z     vdW  Elec       q    Type
REMARK                         _______ _______ _______ _____ _____    ______ ____
ROOT
ATOM      1  C   UNL     1       1.785   2.184  19.123  0.00  0.00    +0.000 C 
ATOM      2  C   UNL     1       1.306   3.285  18.168  0.00  0.00    +0.000 C 
ATOM      3  C   UNL     1       2.034   4.616  18.381  0.00  0.00    +0.000 C 
ATOM      4  N   UNL     1       1.960   5.082  19.777  0.00  0.00    +0.000 NA
ATOM      5  C   UNL     1       2.446   4.054  20.714  0.00  0.00    +0.000 C 
ATOM      6  C   UNL     1       1.687   2.734  20.553  0.00  0.00    +0.000 C 
ENDROOT
BRANCH   1   7
ATOM      7  C   UNL     1       3.196   1.672  18.755  0.00  0.00    +0.000 C 
BRANCH   7   8
ATOM      8  C   UNL     1       3.798   2.427  17.567  0.00  0.00    +0.000 C 
BRANCH   8  11
ATOM      9  O   UNL     1       5.795   3.529  15.926  0.00  0.00    +0.000 OA
ATOM     10  C   UNL     1       5.687   3.922  17.082  0.00  0.00    +0.000 C 
ATOM     11  N   UNL     1       4.772   3.410  17.976  0.00  0.00    +0.000 N 
ATOM     12  H   UNL     1       4.761   3.807  18.911  0.00  0.00    +0.000 HD
BRANCH  10  13
ATOM     13  C   UNL     1       6.544   5.029  17.601  0.00  0.00    +0.000 A 
ATOM     14  C   UNL     1       6.605   6.222  16.887  0.00  0.00    +0.000 A 
ATOM     15  C   UNL     1       7.402   7.246  17.383  0.00  0.00    +0.000 A 
ATOM     16  C   UNL     1       8.109   7.043  18.563  0.00  0.00    +0.000 A 
ATOM     17  C   UNL     1       7.984   5.821  19.210  0.00  0.00    +0.000 A 
ATOM     18  N   UNL     1       7.217   4.802  18.763  0.00  0.00    +0.000 NA
ENDBRANCH  10  13
ENDBRANCH   8  11
ENDBRANCH   7   8
ENDBRANCH   1   7
BRANCH   4  19
ATOM     19  C   UNL     1       2.755   6.316  19.961  0.00  0.00    +0.000 C 
BRANCH  19  20
ATOM     20  C   UNL     1       1.974   7.602  19.774  0.00  0.00    +0.000 A 
ATOM     21  C   UNL     1       1.971   8.271  18.542  0.00  0.00    +0.000 A 
ATOM     22  C   UNL     1       1.213   9.432  18.367  0.00  0.00    +0.000 A 
ATOM     23  C   UNL     1       0.447   9.932  19.419  0.00  0.00    +0.000 A 
ATOM     24  C   UNL     1       0.450   9.283  20.651  0.00  0.00    +0.000 A 
ATOM     25  C   UNL     1       1.213   8.127  20.830  0.00  0.00    +0.000 A 
ENDBRANCH  19  20
ENDBRANCH   4  19
TORSDOF 6
ENDMDL
MODEL 5
REMARK VINA RESULT:      -7.9      4.381      6.914
REMARK  Name = 
REMARK  6 active torsions:
REMARK  status: ('A' for Active; 'I' for Inactive)
REMARK    1  A    between atoms: C_2  and  C_19
REMARK    2  A    between atoms: N_3  and  C_4
REMARK    3  A    between atoms: C_4  and  C_5
REMARK    4  A    between atoms: C_5  and  C_6
REMARK    5  A    between atoms: N_9  and  C_10
REMARK    6  A    between atoms: C_10  and  C_11
REMARK                            x       y       z     vdW  Elec       q    Type
REMARK                         _______ _______ _______ _____ _____    ______ ____
ROOT
ATOM      1  C   UNL     1       7.570   6.594  17.493  0.00  0.00    +0.000 C 
ATOM      2  C   UNL     1       6.219   6.910  16.840  0.00  0.00    +0.000 C 
ATOM      3  C   UNL     1       5.047   6.817  17.822  0.00  0.00    +0.000 C 
ATOM      4  N   UNL     1       4.989   5.516  18.509  0.00  0.00    +0.000 NA
ATOM      5  C   UNL     1       6.267   5.202  19.175  0.00  0.00    +0.000 C 
ATOM      6  C   UNL     1       7.441   5.234  18.194  0.00  0.00    +0.000 C 
ENDROOT
BRANCH   1   7
ATOM      7  C   UNL     1       8.039   7.729  18.433  0.00  0.00    +0.000 C 
BRANCH   7   8
ATOM      8  C   UNL     1       7.946   9.107  17.772  0.00  0.00    +0.000 C 
BRANCH   8  11
ATOM      9  O   UNL     1       8.028  11.891  17.403  0.00  0.00    +0.000 OA
ATOM     10  C   UNL     1       8.966  11.334  17.962  0.00  0.00    +0.000 C 
ATOM     11  N   UNL     1       9.040   9.970  18.145  0.00  0.00    +0.000 N 
ATOM     12  H   UNL     1       9.860   9.608  18.624  0.00  0.00    +0.000 HD
BRANCH  10  13
ATOM     13  C   UNL     1      10.107  12.121  18.518  0.00  0.00    +0.000 A 
ATOM     14  C   UNL     1       9.976  12.694  19.779  0.00  0.00    +0.000 A 
ATOM     15  C   UNL     1      11.046  13.420  20.287  0.00  0.00    +0.000 A 
ATOM     16  C   UNL     1      12.199  13.551  19.523  0.00  0.00    +0.000 A 
ATOM     17  C   UNL     1      12.242  12.941  18.276  0.00  0.00    +0.000 A 
ATOM     18  N   UNL     1      11.225  12.224  17.748  0.00  0.00    +0.000 NA
ENDBRANCH  10  13
ENDBRANCH   8  11
ENDBRANCH   7   8
ENDBRANCH   1   7
BRANCH   4  19
ATOM     19  C   UNL     1       3.906   5.501  19.516  0.00  0.00    +0.000 C 
BRANCH  19  20
ATOM     20  C   UNL     1       2.837   4.453  19.277  0.00  0.00    +0.000 A 
ATOM     21  C   UNL     1       2.916   3.579  18.184  0.00  0.00    +0.000 A 
ATOM     22  C   UNL     1       1.948   2.588  17.997  0.00  0.00    +0.000 A 
ATOM     23  C   UNL     1       0.898   2.456  18.904  0.00  0.00    +0.000 A 
ATOM     24  C   UNL     1       0.802   3.325  19.988  0.00  0.00    +0.000 A 
ATOM     25  C   UNL     1       1.764   4.321  20.172  0.00  0.00    +0.000 A 
ENDBRANCH  19  20
ENDBRANCH   4  19
TORSDOF 6
ENDMDL
MODEL 6
REMARK VINA RESULT:      -7.8      3.989      6.363
REMARK  Name = 
REMARK  6 active torsions:
REMARK  status: ('A' for Active; 'I' for Inactive)
REMARK    1  A    between atoms: C_2  and  C_19
REMARK    2  A    between atoms: N_3  and  C_4
REMARK    3  A    between atoms: C_4  and  C_5
REMARK    4  A    between atoms: C_5  and  C_6
REMARK    5  A    between atoms: N_9  and  C_10
REMARK    6  A    between atoms: C_10  and  C_11
REMARK                            x       y       z     vdW  Elec       q    Type
REMARK                         _______ _______ _______ _____ _____    ______ ____
ROOT
ATOM      1  C   UNL     1       7.467   5.914  17.601  0.00  0.00    +0.000 C 
ATOM      2  C   UNL     1       6.589   6.364  16.427  0.00  0.00    +0.000 C 
ATOM      3  C   UNL     1       5.166   6.738  16.857  0.00  0.00    +0.000 C 
ATOM      4  N   UNL     1       4.502   5.658  17.607  0.00  0.00    +0.000 NA
ATOM      5  C   UNL     1       5.311   5.229  18.762  0.00  0.00    +0.000 C 
ATOM      6  C   UNL     1       6.718   4.797  18.341  0.00  0.00    +0.000 C 
ENDROOT
BRANCH   1   7
ATOM      7  C   UNL     1       7.865   7.098  18.513  0.00  0.00    +0.000 C 
BRANCH   7   8
ATOM      8  C   UNL     1       7.918   8.426  17.753  0.00  0.00    +0.000 C 
BRANCH   8  11
ATOM      9  O   UNL     1       7.889  11.201  17.309  0.00  0.00    +0.000 OA
ATOM     10  C   UNL     1       8.672  10.734  18.129  0.00  0.00    +0.000 C 
ATOM     11  N   UNL     1       8.795   9.384  18.381  0.00  0.00    +0.000 N 
ATOM     12  H   UNL     1       9.472   9.101  19.082  0.00  0.00    +0.000 HD
BRANCH  10  13
ATOM     13  C   UNL     1       9.548  11.623  18.948  0.00  0.00    +0.000 A 
ATOM     14  C   UNL     1      10.898  11.308  19.071  0.00  0.00    +0.000 A 
ATOM     15  C   UNL     1      11.704  12.146  19.831  0.00  0.00    +0.000 A 
ATOM     16  C   UNL     1      11.138  13.259  20.442  0.00  0.00    +0.000 A 
ATOM     17  C   UNL     1       9.782  13.498  20.261  0.00  0.00    +0.000 A 
ATOM     18  N   UNL     1       8.965  12.710  19.526  0.00  0.00    +0.000 NA
ENDBRANCH  10  13
ENDBRANCH   8  11
ENDBRANCH   7   8
ENDBRANCH   1   7
BRANCH   4  19
ATOM     19  C   UNL     1       3.172   6.093  18.086  0.00  0.00    +0.000 C 
BRANCH  19  20
ATOM     20  C   UNL     1       2.357   5.004  18.756  0.00  0.00    +0.000 A 
ATOM     21  C   UNL     1       2.043   5.073  20.120  0.00  0.00    +0.000 A 
ATOM     22  C   UNL     1       1.254   4.087  20.718  0.00  0.00    +0.000 A 
ATOM     23  C   UNL     1       0.765   3.027  19.957  0.00  0.00    +0.000 A 
ATOM     24  C   UNL     1       1.078   2.940  18.602  0.00  0.00    +0.000 A 
ATOM     25  C   UNL     1       1.873   3.921  18.005  0.00  0.00    +0.000 A 
ENDBRANCH  19  20
ENDBRANCH   4  19
TORSDOF 6
ENDMDL
MODEL 7
REMARK VINA RESULT:      -7.8      4.437      6.927
REMARK  Name = 
REMARK  6 active torsions:
REMARK  status: ('A' for Active; 'I' for Inactive)
REMARK    1  A    between atoms: C_2  and  C_19
REMARK    2  A    between atoms: N_3  and  C_4
REMARK    3  A    between atoms: C_4  and  C_5
REMARK    4  A    between atoms: C_5  and  C_6
REMARK    5  A    between atoms: N_9  and  C_10
REMARK    6  A    between atoms: C_10  and  C_11
REMARK                            x       y       z     vdW  Elec       q    Type
REMARK                         _______ _______ _______ _____ _____    ______ ____
ROOT
ATOM      1  C   UNL     1       7.320   6.686  17.142  0.00  0.00    +0.000 C 
ATOM      2  C   UNL     1       6.033   6.182  16.476  0.00  0.00    +0.000 C 
ATOM      3  C   UNL     1       4.870   6.037  17.463  0.00  0.00    +0.000 C 
ATOM      4  N   UNL     1       5.213   5.191  18.619  0.00  0.00    +0.000 NA
ATOM      5  C   UNL     1       6.430   5.674  19.298  0.00  0.00    +0.000 C 
ATOM      6  C   UNL     1       7.617   5.768  18.336  0.00  0.00    +0.000 C 
ENDROOT
BRANCH   1   7
ATOM      7  C   UNL     1       7.227   8.182  17.522  0.00  0.00    +0.000 C 
BRANCH   7   8
ATOM      8  C   UNL     1       8.446   8.657  18.317  0.00  0.00    +0.000 C 
BRANCH   8  11
ATOM      9  O   UNL     1       9.513  10.429  20.219  0.00  0.00    +0.000 OA
ATOM     10  C   UNL     1       9.304  10.830  19.080  0.00  0.00    +0.000 C 
ATOM     11  N   UNL     1       8.739  10.052  18.092  0.00  0.00    +0.000 N 
ATOM     12  H   UNL     1       8.610  10.479  17.180  0.00  0.00    +0.000 HD
BRANCH  10  13
ATOM     13  C   UNL     1       9.681  12.215  18.672  0.00  0.00    +0.000 A 
ATOM     14  C   UNL     1       8.673  13.122  18.359  0.00  0.00    +0.000 A 
ATOM     15  C   UNL     1       9.036  14.409  17.985  0.00  0.00    +0.000 A 
ATOM     16  C   UNL     1      10.385  14.744  17.932  0.00  0.00    +0.000 A 
ATOM     17  C   UNL     1      11.323  13.775  18.265  0.00  0.00    +0.000 A 
ATOM     18  N   UNL     1      11.010  12.514  18.638  0.00  0.00    +0.000 NA
ENDBRANCH  10  13
ENDBRANCH   8  11
ENDBRANCH   7   8
ENDBRANCH   1   7
BRANCH   4  19
ATOM     19  C   UNL     1       4.101   5.156  19.593  0.00  0.00    +0.000 C 
BRANCH  19  20
ATOM     20  C   UNL     1       3.065   4.081  19.328  0.00  0.00    +0.000 A 
ATOM     21  C   UNL     1       1.795   4.142  19.917  0.00  0.00    +0.000 A 
ATOM     22  C   UNL     1       0.833   3.170  19.632  0.00  0.00    +0.000 A 
ATOM     23  C   UNL     1       1.128   2.131  18.751  0.00  0.00    +0.000 A 
ATOM     24  C   UNL     1       2.390   2.052  18.167  0.00  0.00    +0.000 A 
ATOM     25  C   UNL     1       3.355   3.019  18.457  0.00  0.00    +0.000 A 
ENDBRANCH  19  20
ENDBRANCH   4  19
TORSDOF 6
ENDMDL
MODEL 8
REMARK VINA RESULT:      -7.8      4.108      6.528
REMARK  Name = 
REMARK  6 active torsions:
REMARK  status: ('A' for Active; 'I' for Inactive)
REMARK    1  A    between atoms: C_2  and  C_19
REMARK    2  A    between atoms: N_3  and  C_4
REMARK    3  A    between atoms: C_4  and  C_5
REMARK    4  A    between atoms: C_5  and  C_6
REMARK    5  A    between atoms: N_9  and  C_10
REMARK    6  A    between atoms: C_10  and  C_11
REMARK                            x       y       z     vdW  Elec       q    Type
REMARK                         _______ _______ _______ _____ _____    ______ ____
ROOT
ATOM      1  C   UNL     1       7.487   6.072  17.639  0.00  0.00    +0.000 C 
ATOM      2  C   UNL     1       6.558   6.531  16.508  0.00  0.00    +0.000 C 
ATOM      3  C   UNL     1       5.153   6.893  17.001  0.00  0.00    +0.000 C 
ATOM      4  N   UNL     1       4.525   5.801  17.765  0.00  0.00    +0.000 NA
ATOM      5  C   UNL     1       5.384   5.364  18.881  0.00  0.00    +0.000 C 
ATOM      6  C   UNL     1       6.774   4.943  18.396  0.00  0.00    +0.000 C 
ENDROOT
BRANCH   1   7
ATOM      7  C   UNL     1       7.917   7.248  18.548  0.00  0.00    +0.000 C 
BRANCH   7   8
ATOM      8  C   UNL     1       8.104   8.550  17.765  0.00  0.00    +0.000 C 
BRANCH   8  11
ATOM      9  O   UNL     1       8.011  11.319  17.296  0.00  0.00    +0.000 OA
ATOM     10  C   UNL     1       8.662  10.894  18.245  0.00  0.00    +0.000 C 
ATOM     11  N   UNL     1       8.807   9.553  18.527  0.00  0.00    +0.000 N 
ATOM     12  H   UNL     1       9.366   9.306  19.338  0.00  0.00    +0.000 HD
BRANCH  10  13
ATOM     13  C   UNL     1       9.334  11.828  19.195  0.00  0.00    +0.000 A 
ATOM     14  C   UNL     1       9.390  11.490  20.544  0.00  0.00    +0.000 A 
ATOM     15  C   UNL     1      10.022  12.365  21.417  0.00  0.00    +0.000 A 
ATOM     16  C   UNL     1      10.570  13.542  20.919  0.00  0.00    +0.000 A 
ATOM     17  C   UNL     1      10.471  13.795  19.557  0.00  0.00    +0.000 A 
ATOM     18  N   UNL     1       9.868  12.968  18.674  0.00  0.00    +0.000 NA
ENDBRANCH  10  13
ENDBRANCH   8  11
ENDBRANCH   7   8
ENDBRANCH   1   7
BRANCH   4  19
ATOM     19  C   UNL     1       3.215   6.224  18.304  0.00  0.00    +0.000 C 
BRANCH  19  20
ATOM     20  C   UNL     1       2.338   5.088  18.792  0.00  0.00    +0.000 A 
ATOM     21  C   UNL     1       1.915   4.077  17.919  0.00  0.00    +0.000 A 
ATOM     22  C   UNL     1       1.143   3.010  18.389  0.00  0.00    +0.000 A 
ATOM     23  C   UNL     1       0.793   2.941  19.736  0.00  0.00    +0.000 A 
ATOM     24  C   UNL     1       1.198   3.944  20.613  0.00  0.00    +0.000 A 
ATOM     25  C   UNL     1       1.963   5.015  20.143  0.00  0.00    +0.000 A 
ENDBRANCH  19  20
ENDBRANCH   4  19
TORSDOF 6
ENDMDL
MODEL 9
REMARK VINA RESULT:      -7.8      4.304      6.740
REMARK  Name = 
REMARK  6 active torsions:
REMARK  status: ('A' for Active; 'I' for Inactive)
REMARK    1  A    between atoms: C_2  and  C_19
REMARK    2  A    between atoms: N_3  and  C_4
REMARK    3  A    between atoms: C_4  and  C_5
REMARK    4  A    between atoms: C_5  and  C_6
REMARK    5  A    between atoms: N_9  and  C_10
REMARK    6  A    between atoms: C_10  and  C_11
REMARK                            x       y       z     vdW  Elec       q    Type
REMARK                         _______ _______ _______ _____ _____    ______ ____
ROOT
ATOM      1  C   UNL     1       7.525   6.410  17.502  0.00  0.00    +0.000 C 
ATOM      2  C   UNL     1       6.245   6.911  16.820  0.00  0.00    +0.000 C 
ATOM      3  C   UNL     1       5.039   6.938  17.765  0.00  0.00    +0.000 C 
ATOM      4  N   UNL     1       4.798   5.636  18.410  0.00  0.00    +0.000 NA
ATOM      5  C   UNL     1       6.005   5.147  19.102  0.00  0.00    +0.000 C 
ATOM      6  C   UNL     1       7.205   5.058  18.156  0.00  0.00    +0.000 C 
ENDROOT
BRANCH   1   7
ATOM      7  C   UNL     1       8.100   7.452  18.490  0.00  0.00    +0.000 C 
BRANCH   7   8
ATOM      8  C   UNL     1       8.259   8.834  17.851  0.00  0.00    +0.000 C 
BRANCH   8  11
ATOM      9  O   UNL     1      10.073  10.957  17.538  0.00  0.00    +0.000 OA
ATOM     10  C   UNL     1       9.400  10.891  18.560  0.00  0.00    +0.000 C 
ATOM     11  N   UNL     1       8.521   9.864  18.827  0.00  0.00    +0.000 N 
ATOM     12  H   UNL     1       8.009   9.905  19.703  0.00  0.00    +0.000 HD
BRANCH  10  13
ATOM     13  C   UNL     1       9.473  11.961  19.598  0.00  0.00    +0.000 A 
ATOM     14  C   UNL     1       9.504  11.595  20.940  0.00  0.00    +0.000 A 
ATOM     15  C   UNL     1       9.576  12.600  21.896  0.00  0.00    +0.000 A 
ATOM     16  C   UNL     1       9.611  13.927  21.483  0.00  0.00    +0.000 A 
ATOM     17  C   UNL     1       9.580  14.199  20.121  0.00  0.00    +0.000 A 
ATOM     18  N   UNL     1       9.514  13.251  19.160  0.00  0.00    +0.000 NA
ENDBRANCH  10  13
ENDBRANCH   8  11
ENDBRANCH   7   8
ENDBRANCH   1   7
BRANCH   4  19
ATOM     19  C   UNL     1       3.690   5.730  19.384  0.00  0.00    +0.000 C 
BRANCH  19  20
ATOM     20  C   UNL     1       2.687   4.595  19.309  0.00  0.00    +0.000 A 
ATOM     21  C   UNL     1       1.744   4.397  20.327  0.00  0.00    +0.000 A 
ATOM     22  C   UNL     1       0.797   3.374  20.228  0.00  0.00    +0.000 A 
ATOM     23  C   UNL     1       0.778   2.546  19.107  0.00  0.00    +0.000 A 
ATOM     24  C   UNL     1       1.716   2.725  18.093  0.00  0.00    +0.000 A 
ATOM     25  C   UNL     1       2.669   3.741  18.195  0.00  0.00    +0.000 A 
ENDBRANCH  19  20
ENDBRANCH   4  19
TORSDOF 6
ENDMDL
