MODEL 1
REMARK VINA RESULT:      -6.6      0.000      0.000
REMARK  Name = 
REMARK  3 active torsions:
REMARK  status: ('A' for Active; 'I' for Inactive)
REMARK    1  A    between atoms: C_1  and  O_2
REMARK    2  A    between atoms: O_2  and  C_3
REMARK    3  A    between atoms: C_3  and  C_5
REMARK                            x       y       z     vdW  Elec       q    Type
REMARK                         _______ _______ _______ _____ _____    ______ ____
ROOT
ATOM      1  C   UNL     1       5.800   4.518  16.965  0.00  0.00    +0.000 A 
ATOM      2  C   UNL     1       4.818   5.447  17.265  0.00  0.00    +0.000 A 
ATOM      3  C   UNL     1       3.627   4.751  17.596  0.00  0.00    +0.000 A 
ATOM      4  C   UNL     1       2.335   5.158  17.975  0.00  0.00    +0.000 A 
ATOM      5  C   UNL     1       1.365   4.188  18.246  0.00  0.00    +0.000 A 
ATOM      6  C   UNL     1       1.670   2.832  18.145  0.00  0.00    +0.000 A 
ATOM      7  C   UNL     1       2.948   2.405  17.767  0.00  0.00    +0.000 A 
ATOM      8  C   UNL     1       3.906   3.389  17.496  0.00  0.00    +0.000 A 
ATOM      9  N   UNL     1       5.222   3.276  17.103  0.00  0.00    +0.000 N 
ATOM     10  H   UNL     1       5.707   2.403  16.945  0.00  0.00    +0.000 HD
ENDROOT
BRANCH   1  11
ATOM     11  C   UNL     1       7.175   4.705  16.577  0.00  0.00    +0.000 C 
ATOM     12  O   UNL     1       8.138   4.241  17.171  0.00  0.00    +0.000 OA
BRANCH  11  14
ATOM     13  C   UNL     1       6.909   4.818  14.245  0.00  0.00    +0.000 C 
ATOM     14  O   UNL     1       7.233   5.484  15.463  0.00  0.00    +0.000 OA
ENDBRANCH  11  14
ENDBRANCH   1  11
TORSDOF 2
ENDMDL
MODEL 2
REMARK VINA RESULT:      -6.6      1.402      1.993
REMARK  Name = 
REMARK  3 active torsions:
REMARK  status: ('A' for Active; 'I' for Inactive)
REMARK    1  A    between atoms: C_1  and  O_2
REMARK    2  A    between atoms: O_2  and  C_3
REMARK    3  A    between atoms: C_3  and  C_5
REMARK                            x       y       z     vdW  Elec       q    Type
REMARK                         _______ _______ _______ _____ _____    ______ ____
ROOT
ATOM      1  C   UNL     1       5.760   4.244  17.642  0.00  0.00    +0.000 A 
ATOM      2  C   UNL     1       4.578   4.614  17.022  0.00  0.00    +0.000 A 
ATOM      3  C   UNL     1       3.498   4.021  17.724  0.00  0.00    +0.000 A 
ATOM      4  C   UNL     1       2.101   4.041  17.557  0.00  0.00    +0.000 A 
ATOM      5  C   UNL     1       1.295   3.334  18.456  0.00  0.00    +0.000 A 
ATOM      6  C   UNL     1       1.865   2.619  19.507  0.00  0.00    +0.000 A 
ATOM      7  C   UNL     1       3.252   2.583  19.689  0.00  0.00    +0.000 A 
ATOM      8  C   UNL     1       4.044   3.293  18.779  0.00  0.00    +0.000 A 
ATOM      9  N   UNL     1       5.411   3.435  18.700  0.00  0.00    +0.000 N 
ATOM     10  H   UNL     1       6.076   3.014  19.336  0.00  0.00    +0.000 HD
ENDROOT
BRANCH   1  11
ATOM     11  C   UNL     1       7.125   4.581  17.327  0.00  0.00    +0.000 C 
ATOM     12  O   UNL     1       7.567   4.719  16.195  0.00  0.00    +0.000 OA
BRANCH  11  14
ATOM     13  C   UNL     1       7.852   6.020  19.037  0.00  0.00    +0.000 C 
ATOM     14  O   UNL     1       7.841   4.709  18.477  0.00  0.00    +0.000 OA
ENDBRANCH  11  14
ENDBRANCH   1  11
TORSDOF 2
ENDMDL
MODEL 3
REMARK VINA RESULT:      -6.5      0.626      1.507
REMARK  Name = 
REMARK  3 active torsions:
REMARK  status: ('A' for Active; 'I' for Inactive)
REMARK    1  A    between atoms: C_1  and  O_2
REMARK    2  A    between atoms: O_2  and  C_3
REMARK    3  A    between atoms: C_3  and  C_5
REMARK                            x       y       z     vdW  Elec       q    Type
REMARK                         _______ _______ _______ _____ _____    ______ ____
ROOT
ATOM      1  C   UNL     1       5.669   4.530  16.660  0.00  0.00    +0.000 A 
ATOM      2  C   UNL     1       4.597   5.363  16.935  0.00  0.00    +0.000 A 
ATOM      3  C   UNL     1       3.518   4.568  17.399  0.00  0.00    +0.000 A 
ATOM      4  C   UNL     1       2.206   4.857  17.818  0.00  0.00    +0.000 A 
ATOM      5  C   UNL     1       1.375   3.812  18.234  0.00  0.00    +0.000 A 
ATOM      6  C   UNL     1       1.838   2.497  18.237  0.00  0.00    +0.000 A 
ATOM      7  C   UNL     1       3.138   2.187  17.821  0.00  0.00    +0.000 A 
ATOM      8  C   UNL     1       3.955   3.245  17.405  0.00  0.00    +0.000 A 
ATOM      9  N   UNL     1       5.252   3.249  16.944  0.00  0.00    +0.000 N 
ATOM     10  H   UNL     1       5.832   2.426  16.836  0.00  0.00    +0.000 HD
ENDROOT
BRANCH   1  11
ATOM     11  C   UNL     1       6.990   4.838  16.174  0.00  0.00    +0.000 C 
ATOM     12  O   UNL     1       7.232   5.394  15.113  0.00  0.00    +0.000 OA
BRANCH  11  14
ATOM     13  C   UNL     1       7.863   5.035  18.348  0.00  0.00    +0.000 C 
ATOM     14  O   UNL     1       7.918   4.405  17.070  0.00  0.00    +0.000 OA
ENDBRANCH  11  14
ENDBRANCH   1  11
TORSDOF 2
ENDMDL
MODEL 4
REMARK VINA RESULT:      -6.4      1.977      2.115
REMARK  Name = 
REMARK  3 active torsions:
REMARK  status: ('A' for Active; 'I' for Inactive)
REMARK    1  A    between atoms: C_1  and  O_2
REMARK    2  A    between atoms: O_2  and  C_3
REMARK    3  A    between atoms: C_3  and  C_5
REMARK                            x       y       z     vdW  Elec       q    Type
REMARK                         _______ _______ _______ _____ _____    ______ ____
ROOT
ATOM      1  C   UNL     1       5.713   4.902  18.900  0.00  0.00    +0.000 A 
ATOM      2  C   UNL     1       4.515   5.556  18.669  0.00  0.00    +0.000 A 
ATOM      3  C   UNL     1       3.492   4.584  18.522  0.00  0.00    +0.000 A 
ATOM      4  C   UNL     1       2.109   4.656  18.277  0.00  0.00    +0.000 A 
ATOM      5  C   UNL     1       1.367   3.474  18.194  0.00  0.00    +0.000 A 
ATOM      6  C   UNL     1       1.987   2.235  18.354  0.00  0.00    +0.000 A 
ATOM      7  C   UNL     1       3.362   2.141  18.595  0.00  0.00    +0.000 A 
ATOM      8  C   UNL     1       4.090   3.335  18.671  0.00  0.00    +0.000 A 
ATOM      9  N   UNL     1       5.432   3.554  18.887  0.00  0.00    +0.000 N 
ATOM     10  H   UNL     1       6.123   2.829  19.029  0.00  0.00    +0.000 HD
ENDROOT
BRANCH   1  11
ATOM     11  C   UNL     1       7.036   5.427  19.120  0.00  0.00    +0.000 C 
ATOM     12  O   UNL     1       7.603   5.463  20.203  0.00  0.00    +0.000 OA
BRANCH  11  14
ATOM     13  C   UNL     1       7.693   7.298  17.857  0.00  0.00    +0.000 C 
ATOM     14  O   UNL     1       7.548   5.882  17.944  0.00  0.00    +0.000 OA
ENDBRANCH  11  14
ENDBRANCH   1  11
TORSDOF 2
ENDMDL
MODEL 5
REMARK VINA RESULT:      -6.4      1.098      1.395
REMARK  Name = 
REMARK  3 active torsions:
REMARK  status: ('A' for Active; 'I' for Inactive)
REMARK    1  A    between atoms: C_1  and  O_2
REMARK    2  A    between atoms: O_2  and  C_3
REMARK    3  A    between atoms: C_3  and  C_5
REMARK                            x       y       z     vdW  Elec       q    Type
REMARK                         _______ _______ _______ _____ _____    ______ ____
ROOT
ATOM      1  C   UNL     1       5.495   4.902  16.914  0.00  0.00    +0.000 A 
ATOM      2  C   UNL     1       4.291   5.547  17.146  0.00  0.00    +0.000 A 
ATOM      3  C   UNL     1       3.334   4.580  17.547  0.00  0.00    +0.000 A 
ATOM      4  C   UNL     1       1.975   4.647  17.904  0.00  0.00    +0.000 A 
ATOM      5  C   UNL     1       1.305   3.473  18.266  0.00  0.00    +0.000 A 
ATOM      6  C   UNL     1       1.973   2.250  18.276  0.00  0.00    +0.000 A 
ATOM      7  C   UNL     1       3.324   2.161  17.921  0.00  0.00    +0.000 A 
ATOM      8  C   UNL     1       3.977   3.345  17.557  0.00  0.00    +0.000 A 
ATOM      9  N   UNL     1       5.278   3.566  17.161  0.00  0.00    +0.000 N 
ATOM     10  H   UNL     1       5.987   2.849  17.071  0.00  0.00    +0.000 HD
ENDROOT
BRANCH   1  11
ATOM     11  C   UNL     1       6.770   5.428  16.497  0.00  0.00    +0.000 C 
ATOM     12  O   UNL     1       7.735   4.748  16.177  0.00  0.00    +0.000 OA
BRANCH  11  14
ATOM     13  C   UNL     1       7.558   7.391  17.522  0.00  0.00    +0.000 C 
ATOM     14  O   UNL     1       6.735   6.788  16.526  0.00  0.00    +0.000 OA
ENDBRANCH  11  14
ENDBRANCH   1  11
TORSDOF 2
ENDMDL
MODEL 6
REMARK VINA RESULT:      -6.3      1.686      1.686
REMARK  Name = 
REMARK  3 active torsions:
REMARK  status: ('A' for Active; 'I' for Inactive)
REMARK    1  A    between atoms: C_1  and  O_2
REMARK    2  A    between atoms: O_2  and  C_3
REMARK    3  A    between atoms: C_3  and  C_5
REMARK                            x       y       z     vdW  Elec       q    Type
REMARK                         _______ _______ _______ _____ _____    ______ ____
ROOT
ATOM      1  C   UNL     1       6.132   4.709  18.099  0.00  0.00    +0.000 A 
ATOM      2  C   UNL     1       5.245   5.750  18.318  0.00  0.00    +0.000 A 
ATOM      3  C   UNL     1       4.154   5.258  19.079  0.00  0.00    +0.000 A 
ATOM      4  C   UNL     1       2.980   5.842  19.588  0.00  0.00    +0.000 A 
ATOM      5  C   UNL     1       2.090   5.056  20.327  0.00  0.00    +0.000 A 
ATOM      6  C   UNL     1       2.359   3.709  20.560  0.00  0.00    +0.000 A 
ATOM      7  C   UNL     1       3.520   3.107  20.061  0.00  0.00    +0.000 A 
ATOM      8  C   UNL     1       4.398   3.907  19.321  0.00  0.00    +0.000 A 
ATOM      9  N   UNL     1       5.593   3.599  18.709  0.00  0.00    +0.000 N 
ATOM     10  H   UNL     1       6.027   2.685  18.712  0.00  0.00    +0.000 HD
ENDROOT
BRANCH   1  11
ATOM     11  C   UNL     1       7.388   4.686  17.393  0.00  0.00    +0.000 C 
ATOM     12  O   UNL     1       8.385   4.080  17.760  0.00  0.00    +0.000 OA
BRANCH  11  14
ATOM     13  C   UNL     1       6.994   4.727  15.076  0.00  0.00    +0.000 C 
ATOM     14  O   UNL     1       7.294   5.447  16.269  0.00  0.00    +0.000 OA
ENDBRANCH  11  14
ENDBRANCH   1  11
TORSDOF 2
ENDMDL
MODEL 7
REMARK VINA RESULT:      -6.2      1.297      1.386
REMARK  Name = 
REMARK  3 active torsions:
REMARK  status: ('A' for Active; 'I' for Inactive)
REMARK    1  A    between atoms: C_1  and  O_2
REMARK    2  A    between atoms: O_2  and  C_3
REMARK    3  A    between atoms: C_3  and  C_5
REMARK                            x       y       z     vdW  Elec       q    Type
REMARK                         _______ _______ _______ _____ _____    ______ ____
ROOT
ATOM      1  C   UNL     1       5.489   4.272  17.810  0.00  0.00    +0.000 A 
ATOM      2  C   UNL     1       4.257   4.510  17.225  0.00  0.00    +0.000 A 
ATOM      3  C   UNL     1       3.257   3.885  18.012  0.00  0.00    +0.000 A 
ATOM      4  C   UNL     1       1.857   3.789  17.911  0.00  0.00    +0.000 A 
ATOM      5  C   UNL     1       1.147   3.084  18.889  0.00  0.00    +0.000 A 
ATOM      6  C   UNL     1       1.815   2.483  19.954  0.00  0.00    +0.000 A 
ATOM      7  C   UNL     1       3.208   2.564  20.072  0.00  0.00    +0.000 A 
ATOM      8  C   UNL     1       3.902   3.270  19.083  0.00  0.00    +0.000 A 
ATOM      9  N   UNL     1       5.250   3.509  18.931  0.00  0.00    +0.000 N 
ATOM     10  H   UNL     1       5.972   3.182  19.560  0.00  0.00    +0.000 HD
ENDROOT
BRANCH   1  11
ATOM     11  C   UNL     1       6.809   4.689  17.411  0.00  0.00    +0.000 C 
ATOM     12  O   UNL     1       7.841   4.409  18.005  0.00  0.00    +0.000 OA
BRANCH  11  14
ATOM     13  C   UNL     1       7.100   4.777  15.080  0.00  0.00    +0.000 C 
ATOM     14  O   UNL     1       6.727   5.445  16.282  0.00  0.00    +0.000 OA
ENDBRANCH  11  14
ENDBRANCH   1  11
TORSDOF 2
ENDMDL
MODEL 8
REMARK VINA RESULT:      -6.2      1.670      2.168
REMARK  Name = 
REMARK  3 active torsions:
REMARK  status: ('A' for Active; 'I' for Inactive)
REMARK    1  A    between atoms: C_1  and  O_2
REMARK    2  A    between atoms: O_2  and  C_3
REMARK    3  A    between atoms: C_3  and  C_5
REMARK                            x       y       z     vdW  Elec       q    Type
REMARK                         _______ _______ _______ _____ _____    ______ ____
ROOT
ATOM      1  C   UNL     1       5.940   4.707  18.023  0.00  0.00    +0.000 A 
ATOM      2  C   UNL     1       4.987   4.195  17.159  0.00  0.00    +0.000 A 
ATOM      3  C   UNL     1       3.743   4.149  17.839  0.00  0.00    +0.000 A 
ATOM      4  C   UNL     1       2.450   3.731  17.474  0.00  0.00    +0.000 A 
ATOM      5  C   UNL     1       1.412   3.829  18.407  0.00  0.00    +0.000 A 
ATOM      6  C   UNL     1       1.651   4.335  19.683  0.00  0.00    +0.000 A 
ATOM      7  C   UNL     1       2.930   4.753  20.067  0.00  0.00    +0.000 A 
ATOM      8  C   UNL     1       3.958   4.645  19.122  0.00  0.00    +0.000 A 
ATOM      9  N   UNL     1       5.295   4.965  19.211  0.00  0.00    +0.000 N 
ATOM     10  H   UNL     1       5.746   5.347  20.032  0.00  0.00    +0.000 HD
ENDROOT
BRANCH   1  11
ATOM     11  C   UNL     1       7.344   4.959  17.821  0.00  0.00    +0.000 C 
ATOM     12  O   UNL     1       8.109   4.215  17.224  0.00  0.00    +0.000 OA
BRANCH  11  14
ATOM     13  C   UNL     1       7.525   7.290  17.575  0.00  0.00    +0.000 C 
ATOM     14  O   UNL     1       7.685   6.141  18.404  0.00  0.00    +0.000 OA
ENDBRANCH  11  14
ENDBRANCH   1  11
TORSDOF 2
ENDMDL
MODEL 9
REMARK VINA RESULT:      -6.1      1.952      2.215
REMARK  Name = 
REMARK  3 active torsions:
REMARK  status: ('A' for Active; 'I' for Inactive)
REMARK    1  A    between atoms: C_1  and  O_2
REMARK    2  A    between atoms: O_2  and  C_3
REMARK    3  A    between atoms: C_3  and  C_5
REMARK                            x       y       z     vdW  Elec       q    Type
REMARK                         _______ _______ _______ _____ _____    ______ ____
ROOT
ATOM      1  C   UNL     1       5.365   4.789  19.240  0.00  0.00    +0.000 A 
ATOM      2  C   UNL     1       4.153   5.415  19.479  0.00  0.00    +0.000 A 
ATOM      3  C   UNL     1       3.131   4.431  19.473  0.00  0.00    +0.000 A 
ATOM      4  C   UNL     1       1.736   4.476  19.654  0.00  0.00    +0.000 A 
ATOM      5  C   UNL     1       1.000   3.288  19.591  0.00  0.00    +0.000 A 
ATOM      6  C   UNL     1       1.638   2.071  19.354  0.00  0.00    +0.000 A 
ATOM      7  C   UNL     1       3.023   2.005  19.169  0.00  0.00    +0.000 A 
ATOM      8  C   UNL     1       3.744   3.204  19.231  0.00  0.00    +0.000 A 
ATOM      9  N   UNL     1       5.091   3.449  19.083  0.00  0.00    +0.000 N 
ATOM     10  H   UNL     1       5.792   2.745  18.896  0.00  0.00    +0.000 HD
ENDROOT
BRANCH   1  11
ATOM     11  C   UNL     1       6.696   5.335  19.153  0.00  0.00    +0.000 C 
ATOM     12  O   UNL     1       7.475   5.430  20.091  0.00  0.00    +0.000 OA
BRANCH  11  14
ATOM     13  C   UNL     1       7.426   4.712  17.008  0.00  0.00    +0.000 C 
ATOM     14  O   UNL     1       6.943   5.734  17.876  0.00  0.00    +0.000 OA
ENDBRANCH  11  14
ENDBRANCH   1  11
TORSDOF 2
ENDMDL
