MODEL 1
REMARK VINA RESULT:      -7.0      0.000      0.000
REMARK  Name = 
REMARK  2 active torsions:
REMARK  status: ('A' for Active; 'I' for Inactive)
REMARK    1  A    between atoms: C_1  and  N_2
REMARK    2  A    between atoms: C_6  and  C_7
REMARK                            x       y       z     vdW  Elec       q    Type
REMARK                         _______ _______ _______ _____ _____    ______ ____
ROOT
ATOM      1  C   UNL     1      -1.136  14.756  21.944  0.00  0.00    +0.000 C 
ATOM      2  N   UNL     1      -0.368  13.663  21.192  0.00  0.00    +0.000 N 
ATOM      3  C   UNL     1       1.016  14.329  20.950  0.00  0.00    +0.000 C 
ATOM      4  C   UNL     1       1.700  13.245  20.254  0.00  0.00    +0.000 C 
ATOM      5  C   UNL     1       0.910  12.138  20.929  0.00  0.00    +0.000 C 
ATOM      6  C   UNL     1      -1.179  12.008  21.008  0.00  0.00    +0.000 C 
ATOM      7  C   UNL     1      -0.338  11.837  22.059  0.00  0.00    +0.000 C 
ATOM      8  C   UNL     1      -0.168  10.285  21.020  0.00  0.00    +0.000 A 
ATOM      9  N   UNL     1       0.440   9.081  21.303  0.00  0.00    +0.000 N 
ATOM     10  C   UNL     1       1.110   8.611  20.162  0.00  0.00    +0.000 A 
ATOM     11  C   UNL     1       2.035   7.559  20.034  0.00  0.00    +0.000 A 
ATOM     12  C   UNL     1       2.728   7.413  18.819  0.00  0.00    +0.000 A 
ATOM     13  C   UNL     1       2.502   8.276  17.753  0.00  0.00    +0.000 A 
ATOM     14  C   UNL     1       1.543   9.283  17.863  0.00  0.00    +0.000 A 
ATOM     15  C   UNL     1       0.821   9.441  19.069  0.00  0.00    +0.000 A 
ATOM     16  C   UNL     1      -0.082  10.446  19.523  0.00  0.00    +0.000 A 
ATOM     17  C   UNL     1      -0.430  11.856  18.662  0.00  0.00    +0.000 C 
ATOM     18  C   UNL     1      -0.841  13.400  19.382  0.00  0.00    +0.000 C 
ATOM     19  H   UNL     1       0.595   8.689  22.221  0.00  0.00    +0.000 HD
ENDROOT
BRANCH   6  20
ATOM     20  C   UNL     1      -2.547  12.346  21.917  0.00  0.00    +0.000 A 
ATOM     21  C   UNL     1      -3.713  12.825  21.273  0.00  0.00    +0.000 A 
ATOM     22  C   UNL     1      -4.754  13.438  21.985  0.00  0.00    +0.000 A 
ATOM     23  C   UNL     1      -4.750  13.429  23.370  0.00  0.00    +0.000 A 
ATOM     24  C   UNL     1      -3.770  12.716  24.029  0.00  0.00    +0.000 A 
ATOM     25  C   UNL     1      -2.689  12.142  23.311  0.00  0.00    +0.000 A 
ENDBRANCH   6  20
TORSDOF 1
ENDMDL
MODEL 2
REMARK VINA RESULT:      -6.8      0.270      1.005
REMARK  Name = 
REMARK  2 active torsions:
REMARK  status: ('A' for Active; 'I' for Inactive)
REMARK    1  A    between atoms: C_1  and  N_2
REMARK    2  A    between atoms: C_6  and  C_7
REMARK                            x       y       z     vdW  Elec       q    Type
REMARK                         _______ _______ _______ _____ _____    ______ ____
ROOT
ATOM      1  C   UNL     1      -1.099  15.020  21.773  0.00  0.00    +0.000 C 
ATOM      2  N   UNL     1      -0.358  13.877  21.069  0.00  0.00    +0.000 N 
ATOM      3  C   UNL     1       1.046  14.492  20.810  0.00  0.00    +0.000 C 
ATOM      4  C   UNL     1       1.701  13.363  20.162  0.00  0.00    +0.000 C 
ATOM      5  C   UNL     1       0.877  12.307  20.874  0.00  0.00    +0.000 C 
ATOM      6  C   UNL     1      -1.215  12.239  20.944  0.00  0.00    +0.000 C 
ATOM      7  C   UNL     1      -0.386  12.086  22.007  0.00  0.00    +0.000 C 
ATOM      8  C   UNL     1      -0.254  10.490  21.031  0.00  0.00    +0.000 A 
ATOM      9  N   UNL     1       0.317   9.281  21.365  0.00  0.00    +0.000 N 
ATOM     10  C   UNL     1       0.979   8.748  20.248  0.00  0.00    +0.000 A 
ATOM     11  C   UNL     1       1.875   7.666  20.167  0.00  0.00    +0.000 A 
ATOM     12  C   UNL     1       2.569   7.452  18.964  0.00  0.00    +0.000 A 
ATOM     13  C   UNL     1       2.374   8.278  17.864  0.00  0.00    +0.000 A 
ATOM     14  C   UNL     1       1.444   9.315  17.928  0.00  0.00    +0.000 A 
ATOM     15  C   UNL     1       0.720   9.542  19.121  0.00  0.00    +0.000 A 
ATOM     16  C   UNL     1      -0.156  10.589  19.530  0.00  0.00    +0.000 A 
ATOM     17  C   UNL     1      -0.458  11.974  18.612  0.00  0.00    +0.000 C 
ATOM     18  C   UNL     1      -0.829  13.556  19.268  0.00  0.00    +0.000 C 
ATOM     19  H   UNL     1       0.455   8.922  22.299  0.00  0.00    +0.000 HD
ENDROOT
BRANCH   6  20
ATOM     20  C   UNL     1      -2.578  12.651  21.831  0.00  0.00    +0.000 A 
ATOM     21  C   UNL     1      -2.546  12.561  23.243  0.00  0.00    +0.000 A 
ATOM     22  C   UNL     1      -3.718  12.560  24.013  0.00  0.00    +0.000 A 
ATOM     23  C   UNL     1      -4.940  12.829  23.420  0.00  0.00    +0.000 A 
ATOM     24  C   UNL     1      -4.970  13.205  22.093  0.00  0.00    +0.000 A 
ATOM     25  C   UNL     1      -3.791  13.155  21.304  0.00  0.00    +0.000 A 
ENDBRANCH   6  20
TORSDOF 1
ENDMDL
MODEL 3
REMARK VINA RESULT:      -6.8      7.538     11.106
REMARK  Name = 
REMARK  2 active torsions:
REMARK  status: ('A' for Active; 'I' for Inactive)
REMARK    1  A    between atoms: C_1  and  N_2
REMARK    2  A    between atoms: C_6  and  C_7
REMARK                            x       y       z     vdW  Elec       q    Type
REMARK                         _______ _______ _______ _____ _____    ______ ____
ROOT
ATOM      1  C   UNL     1      11.414  15.576  18.807  0.00  0.00    +0.000 C 
ATOM      2  N   UNL     1       9.932  15.964  18.873  0.00  0.00    +0.000 N 
ATOM      3  C   UNL     1       9.967  17.489  18.573  0.00  0.00    +0.000 C 
ATOM      4  C   UNL     1       8.543  17.791  18.633  0.00  0.00    +0.000 C 
ATOM      5  C   UNL     1       8.097  16.409  18.193  0.00  0.00    +0.000 C 
ATOM      6  C   UNL     1       8.691  14.603  19.072  0.00  0.00    +0.000 C 
ATOM      7  C   UNL     1       8.671  14.862  17.740  0.00  0.00    +0.000 C 
ATOM      8  C   UNL     1       6.877  14.644  18.238  0.00  0.00    +0.000 A 
ATOM      9  N   UNL     1       5.745  14.500  17.466  0.00  0.00    +0.000 N 
ATOM     10  C   UNL     1       4.686  15.221  18.040  0.00  0.00    +0.000 A 
ATOM     11  C   UNL     1       3.426  15.546  17.504  0.00  0.00    +0.000 A 
ATOM     12  C   UNL     1       2.613  16.459  18.198  0.00  0.00    +0.000 A 
ATOM     13  C   UNL     1       3.027  17.027  19.397  0.00  0.00    +0.000 A 
ATOM     14  C   UNL     1       4.251  16.660  19.954  0.00  0.00    +0.000 A 
ATOM     15  C   UNL     1       5.082  15.731  19.286  0.00  0.00    +0.000 A 
ATOM     16  C   UNL     1       6.418  15.293  19.519  0.00  0.00    +0.000 A 
ATOM     17  C   UNL     1       7.424  15.941  20.711  0.00  0.00    +0.000 C 
ATOM     18  C   UNL     1       9.169  16.064  20.598  0.00  0.00    +0.000 C 
ATOM     19  H   UNL     1       5.705  14.139  16.523  0.00  0.00    +0.000 HD
ENDROOT
BRANCH   6  20
ATOM     20  C   UNL     1       9.774  13.323  18.995  0.00  0.00    +0.000 A 
ATOM     21  C   UNL     1      10.226  12.718  20.192  0.00  0.00    +0.000 A 
ATOM     22  C   UNL     1      11.360  11.894  20.224  0.00  0.00    +0.000 A 
ATOM     23  C   UNL     1      11.969  11.503  19.044  0.00  0.00    +0.000 A 
ATOM     24  C   UNL     1      11.379  11.844  17.844  0.00  0.00    +0.000 A 
ATOM     25  C   UNL     1      10.263  12.719  17.812  0.00  0.00    +0.000 A 
ENDBRANCH   6  20
TORSDOF 1
ENDMDL
MODEL 4
REMARK VINA RESULT:      -6.4      7.804     11.305
REMARK  Name = 
REMARK  2 active torsions:
REMARK  status: ('A' for Active; 'I' for Inactive)
REMARK    1  A    between atoms: C_1  and  N_2
REMARK    2  A    between atoms: C_6  and  C_7
REMARK                            x       y       z     vdW  Elec       q    Type
REMARK                         _______ _______ _______ _____ _____    ______ ____
ROOT
ATOM      1  C   UNL     1      11.666  16.181  18.821  0.00  0.00    +0.000 C 
ATOM      2  N   UNL     1      10.158  16.449  18.890  0.00  0.00    +0.000 N 
ATOM      3  C   UNL     1      10.065  17.958  18.530  0.00  0.00    +0.000 C 
ATOM      4  C   UNL     1       8.620  18.145  18.595  0.00  0.00    +0.000 C 
ATOM      5  C   UNL     1       8.286  16.714  18.217  0.00  0.00    +0.000 C 
ATOM      6  C   UNL     1       9.034  15.000  19.159  0.00  0.00    +0.000 C 
ATOM      7  C   UNL     1       8.981  15.202  17.818  0.00  0.00    +0.000 C 
ATOM      8  C   UNL     1       7.215  14.859  18.347  0.00  0.00    +0.000 A 
ATOM      9  N   UNL     1       6.092  14.591  17.595  0.00  0.00    +0.000 N 
ATOM     10  C   UNL     1       4.983  15.246  18.154  0.00  0.00    +0.000 A 
ATOM     11  C   UNL     1       3.696  15.445  17.621  0.00  0.00    +0.000 A 
ATOM     12  C   UNL     1       2.816  16.316  18.288  0.00  0.00    +0.000 A 
ATOM     13  C   UNL     1       3.194  16.964  19.458  0.00  0.00    +0.000 A 
ATOM     14  C   UNL     1       4.449  16.721  20.015  0.00  0.00    +0.000 A 
ATOM     15  C   UNL     1       5.347  15.837  19.373  0.00  0.00    +0.000 A 
ATOM     16  C   UNL     1       6.716  15.520  19.607  0.00  0.00    +0.000 A 
ATOM     17  C   UNL     1       7.677  16.295  20.759  0.00  0.00    +0.000 C 
ATOM     18  C   UNL     1       9.405  16.556  20.620  0.00  0.00    +0.000 C 
ATOM     19  H   UNL     1       6.073  14.190  16.668  0.00  0.00    +0.000 HD
ENDROOT
BRANCH   6  20
ATOM     20  C   UNL     1      10.218  13.811  19.119  0.00  0.00    +0.000 A 
ATOM     21  C   UNL     1      10.599  13.247  17.878  0.00  0.00    +0.000 A 
ATOM     22  C   UNL     1      11.314  12.042  17.800  0.00  0.00    +0.000 A 
ATOM     23  C   UNL     1      11.825  11.461  18.948  0.00  0.00    +0.000 A 
ATOM     24  C   UNL     1      11.717  12.140  20.145  0.00  0.00    +0.000 A 
ATOM     25  C   UNL     1      10.950  13.330  20.231  0.00  0.00    +0.000 A 
ENDBRANCH   6  20
TORSDOF 1
ENDMDL
MODEL 5
REMARK VINA RESULT:      -6.1      1.622      6.596
REMARK  Name = 
REMARK  2 active torsions:
REMARK  status: ('A' for Active; 'I' for Inactive)
REMARK    1  A    between atoms: C_1  and  N_2
REMARK    2  A    between atoms: C_6  and  C_7
REMARK                            x       y       z     vdW  Elec       q    Type
REMARK                         _______ _______ _______ _____ _____    ______ ____
ROOT
ATOM      1  C   UNL     1       1.376  12.695  20.573  0.00  0.00    +0.000 C 
ATOM      2  N   UNL     1      -0.064  13.135  20.860  0.00  0.00    +0.000 N 
ATOM      3  C   UNL     1       0.105  14.642  21.202  0.00  0.00    +0.000 C 
ATOM      4  C   UNL     1      -1.287  15.003  21.445  0.00  0.00    +0.000 C 
ATOM      5  C   UNL     1      -1.860  13.959  20.505  0.00  0.00    +0.000 C 
ATOM      6  C   UNL     1      -1.420  11.911  20.548  0.00  0.00    +0.000 C 
ATOM      7  C   UNL     1      -1.432  12.691  19.438  0.00  0.00    +0.000 C 
ATOM      8  C   UNL     1      -3.233  12.429  19.889  0.00  0.00    +0.000 A 
ATOM      9  N   UNL     1      -4.382  12.699  19.178  0.00  0.00    +0.000 N 
ATOM     10  C   UNL     1      -5.365  13.204  20.045  0.00  0.00    +0.000 A 
ATOM     11  C   UNL     1      -6.596  13.815  19.746  0.00  0.00    +0.000 A 
ATOM     12  C   UNL     1      -7.317  14.426  20.787  0.00  0.00    +0.000 A 
ATOM     13  C   UNL     1      -6.839  14.422  22.092  0.00  0.00    +0.000 A 
ATOM     14  C   UNL     1      -5.647  13.766  22.395  0.00  0.00    +0.000 A 
ATOM     15  C   UNL     1      -4.910  13.130  21.370  0.00  0.00    +0.000 A 
ATOM     16  C   UNL     1      -3.617  12.533  21.343  0.00  0.00    +0.000 A 
ATOM     17  C   UNL     1      -2.543  12.559  22.647  0.00  0.00    +0.000 C 
ATOM     18  C   UNL     1      -0.796  12.582  22.512  0.00  0.00    +0.000 C 
ATOM     19  H   UNL     1      -4.464  12.758  18.173  0.00  0.00    +0.000 HD
ENDROOT
BRANCH   6  20
ATOM     20  C   UNL     1      -0.457  10.695  19.910  0.00  0.00    +0.000 A 
ATOM     21  C   UNL     1       0.025   9.668  20.757  0.00  0.00    +0.000 A 
ATOM     22  C   UNL     1       1.085   8.831  20.379  0.00  0.00    +0.000 A 
ATOM     23  C   UNL     1       1.575   8.871  19.084  0.00  0.00    +0.000 A 
ATOM     24  C   UNL     1       0.933   9.660  18.152  0.00  0.00    +0.000 A 
ATOM     25  C   UNL     1      -0.105  10.544  18.547  0.00  0.00    +0.000 A 
ENDBRANCH   6  20
TORSDOF 1
ENDMDL
MODEL 6
REMARK VINA RESULT:      -6.1      1.670      6.436
REMARK  Name = 
REMARK  2 active torsions:
REMARK  status: ('A' for Active; 'I' for Inactive)
REMARK    1  A    between atoms: C_1  and  N_2
REMARK    2  A    between atoms: C_6  and  C_7
REMARK                            x       y       z     vdW  Elec       q    Type
REMARK                         _______ _______ _______ _____ _____    ______ ____
ROOT
ATOM      1  C   UNL     1       2.143  12.208  18.884  0.00  0.00    +0.000 C 
ATOM      2  N   UNL     1       0.781  12.765  19.314  0.00  0.00    +0.000 N 
ATOM      3  C   UNL     1       0.959  14.295  19.104  0.00  0.00    +0.000 C 
ATOM      4  C   UNL     1      -0.362  14.761  19.510  0.00  0.00    +0.000 C 
ATOM      5  C   UNL     1      -1.080  13.487  19.106  0.00  0.00    +0.000 C 
ATOM      6  C   UNL     1      -0.560  11.551  19.715  0.00  0.00    +0.000 C 
ATOM      7  C   UNL     1      -0.839  11.928  18.442  0.00  0.00    +0.000 C 
ATOM      8  C   UNL     1      -2.491  11.885  19.329  0.00  0.00    +0.000 A 
ATOM      9  N   UNL     1      -3.775  11.947  18.832  0.00  0.00    +0.000 N 
ATOM     10  C   UNL     1      -4.570  12.738  19.678  0.00  0.00    +0.000 A 
ATOM     11  C   UNL     1      -5.860  13.259  19.468  0.00  0.00    +0.000 A 
ATOM     12  C   UNL     1      -6.366  14.199  20.383  0.00  0.00    +0.000 A 
ATOM     13  C   UNL     1      -5.621  14.604  21.485  0.00  0.00    +0.000 A 
ATOM     14  C   UNL     1      -4.366  14.044  21.721  0.00  0.00    +0.000 A 
ATOM     15  C   UNL     1      -3.841  13.084  20.825  0.00  0.00    +0.000 A 
ATOM     16  C   UNL     1      -2.560  12.469  20.717  0.00  0.00    +0.000 A 
ATOM     17  C   UNL     1      -1.235  12.883  21.679  0.00  0.00    +0.000 C 
ATOM     18  C   UNL     1       0.441  12.804  21.173  0.00  0.00    +0.000 C 
ATOM     19  H   UNL     1      -4.072  11.678  17.905  0.00  0.00    +0.000 HD
ENDROOT
BRANCH   6  20
ATOM     20  C   UNL     1       0.291  10.162  19.315  0.00  0.00    +0.000 A 
ATOM     21  C   UNL     1       0.726   9.290  20.342  0.00  0.00    +0.000 A 
ATOM     22  C   UNL     1       1.711   8.316  20.119  0.00  0.00    +0.000 A 
ATOM     23  C   UNL     1       2.159   8.061  18.834  0.00  0.00    +0.000 A 
ATOM     24  C   UNL     1       1.545   8.697  17.775  0.00  0.00    +0.000 A 
ATOM     25  C   UNL     1       0.587   9.718  18.004  0.00  0.00    +0.000 A 
ENDBRANCH   6  20
TORSDOF 1
ENDMDL
MODEL 7
REMARK VINA RESULT:      -6.1      2.275      6.231
REMARK  Name = 
REMARK  2 active torsions:
REMARK  status: ('A' for Active; 'I' for Inactive)
REMARK    1  A    between atoms: C_1  and  N_2
REMARK    2  A    between atoms: C_6  and  C_7
REMARK                            x       y       z     vdW  Elec       q    Type
REMARK                         _______ _______ _______ _____ _____    ______ ____
ROOT
ATOM      1  C   UNL     1       2.085  12.343  19.787  0.00  0.00    +0.000 C 
ATOM      2  N   UNL     1       0.593  12.668  19.654  0.00  0.00    +0.000 N 
ATOM      3  C   UNL     1       0.592  14.219  19.547  0.00  0.00    +0.000 C 
ATOM      4  C   UNL     1      -0.839  14.462  19.407  0.00  0.00    +0.000 C 
ATOM      5  C   UNL     1      -1.133  13.131  18.740  0.00  0.00    +0.000 C 
ATOM      6  C   UNL     1      -0.588  11.250  19.484  0.00  0.00    +0.000 C 
ATOM      7  C   UNL     1      -0.411  11.674  18.207  0.00  0.00    +0.000 C 
ATOM      8  C   UNL     1      -2.247  11.333  18.374  0.00  0.00    +0.000 A 
ATOM      9  N   UNL     1      -3.232  11.248  17.415  0.00  0.00    +0.000 N 
ATOM     10  C   UNL     1      -4.406  11.854  17.889  0.00  0.00    +0.000 A 
ATOM     11  C   UNL     1      -5.581  12.201  17.196  0.00  0.00    +0.000 A 
ATOM     12  C   UNL     1      -6.543  12.990  17.850  0.00  0.00    +0.000 A 
ATOM     13  C   UNL     1      -6.355  13.417  19.159  0.00  0.00    +0.000 A 
ATOM     14  C   UNL     1      -5.217  13.025  19.863  0.00  0.00    +0.000 A 
ATOM     15  C   UNL     1      -4.241  12.217  19.234  0.00  0.00    +0.000 A 
ATOM     16  C   UNL     1      -2.938  11.800  19.631  0.00  0.00    +0.000 A 
ATOM     17  C   UNL     1      -2.170  12.327  21.040  0.00  0.00    +0.000 C 
ATOM     18  C   UNL     1      -0.439  12.524  21.230  0.00  0.00    +0.000 C 
ATOM     19  H   UNL     1      -3.102  11.007  16.442  0.00  0.00    +0.000 HD
ENDROOT
BRANCH   6  20
ATOM     20  C   UNL     1       0.561  10.029  19.435  0.00  0.00    +0.000 A 
ATOM     21  C   UNL     1       1.254   9.770  18.228  0.00  0.00    +0.000 A 
ATOM     22  C   UNL     1       1.962   8.577  18.020  0.00  0.00    +0.000 A 
ATOM     23  C   UNL     1       2.151   7.690  19.066  0.00  0.00    +0.000 A 
ATOM     24  C   UNL     1       1.733   8.050  20.331  0.00  0.00    +0.000 A 
ATOM     25  C   UNL     1       0.973   9.232  20.530  0.00  0.00    +0.000 A 
ENDBRANCH   6  20
TORSDOF 1
ENDMDL
MODEL 8
REMARK VINA RESULT:      -6.0      2.724      4.906
REMARK  Name = 
REMARK  2 active torsions:
REMARK  status: ('A' for Active; 'I' for Inactive)
REMARK    1  A    between atoms: C_1  and  N_2
REMARK    2  A    between atoms: C_6  and  C_7
REMARK                            x       y       z     vdW  Elec       q    Type
REMARK                         _______ _______ _______ _____ _____    ______ ____
ROOT
ATOM      1  C   UNL     1      -0.566  13.200  18.722  0.00  0.00    +0.000 C 
ATOM      2  N   UNL     1      -0.313  11.701  18.917  0.00  0.00    +0.000 N 
ATOM      3  C   UNL     1      -1.686  11.075  18.543  0.00  0.00    +0.000 C 
ATOM      4  C   UNL     1      -1.380   9.662  18.730  0.00  0.00    +0.000 C 
ATOM      5  C   UNL     1       0.095   9.804  18.403  0.00  0.00    +0.000 C 
ATOM      6  C   UNL     1       1.416  11.158  19.302  0.00  0.00    +0.000 C 
ATOM      7  C   UNL     1       1.301  10.938  17.968  0.00  0.00    +0.000 C 
ATOM      8  C   UNL     1       2.195   9.438  18.652  0.00  0.00    +0.000 A 
ATOM      9  N   UNL     1       2.857   8.418  18.003  0.00  0.00    +0.000 N 
ATOM     10  C   UNL     1       2.590   7.199  18.646  0.00  0.00    +0.000 A 
ATOM     11  C   UNL     1       2.858   5.884  18.223  0.00  0.00    +0.000 A 
ATOM     12  C   UNL     1       2.306   4.815  18.950  0.00  0.00    +0.000 A 
ATOM     13  C   UNL     1       1.519   5.039  20.074  0.00  0.00    +0.000 A 
ATOM     14  C   UNL     1       1.302   6.340  20.523  0.00  0.00    +0.000 A 
ATOM     15  C   UNL     1       1.859   7.433  19.820  0.00  0.00    +0.000 A 
ATOM     16  C   UNL     1       1.687   8.842  19.940  0.00  0.00    +0.000 A 
ATOM     17  C   UNL     1       0.585   9.568  20.994  0.00  0.00    +0.000 C 
ATOM     18  C   UNL     1      -0.235  11.089  20.703  0.00  0.00    +0.000 C 
ATOM     19  H   UNL     1       3.281   8.466  17.087  0.00  0.00    +0.000 HD
ENDROOT
BRANCH   6  20
ATOM     20  C   UNL     1       2.138  12.668  19.178  0.00  0.00    +0.000 A 
ATOM     21  C   UNL     1       2.368  13.429  20.349  0.00  0.00    +0.000 A 
ATOM     22  C   UNL     1       2.646  14.803  20.297  0.00  0.00    +0.000 A 
ATOM     23  C   UNL     1       2.879  15.420  19.080  0.00  0.00    +0.000 A 
ATOM     24  C   UNL     1       2.945  14.645  17.940  0.00  0.00    +0.000 A 
ATOM     25  C   UNL     1       2.614  13.266  17.987  0.00  0.00    +0.000 A 
ENDBRANCH   6  20
TORSDOF 1
ENDMDL
MODEL 9
REMARK VINA RESULT:      -6.0      1.718      6.783
REMARK  Name = 
REMARK  2 active torsions:
REMARK  status: ('A' for Active; 'I' for Inactive)
REMARK    1  A    between atoms: C_1  and  N_2
REMARK    2  A    between atoms: C_6  and  C_7
REMARK                            x       y       z     vdW  Elec       q    Type
REMARK                         _______ _______ _______ _____ _____    ______ ____
ROOT
ATOM      1  C   UNL     1       0.700  13.342  20.240  0.00  0.00    +0.000 C 
ATOM      2  N   UNL     1      -0.666  13.624  20.877  0.00  0.00    +0.000 N 
ATOM      3  C   UNL     1      -0.644  15.168  21.055  0.00  0.00    +0.000 C 
ATOM      4  C   UNL     1      -1.963  15.374  21.642  0.00  0.00    +0.000 C 
ATOM      5  C   UNL     1      -2.595  14.170  20.968  0.00  0.00    +0.000 C 
ATOM      6  C   UNL     1      -1.855  12.212  21.032  0.00  0.00    +0.000 C 
ATOM      7  C   UNL     1      -2.272  12.861  19.915  0.00  0.00    +0.000 C 
ATOM      8  C   UNL     1      -3.834  12.421  20.856  0.00  0.00    +0.000 A 
ATOM      9  N   UNL     1      -5.155  12.466  20.467  0.00  0.00    +0.000 N 
ATOM     10  C   UNL     1      -5.944  12.931  21.531  0.00  0.00    +0.000 A 
ATOM     11  C   UNL     1      -7.289  13.346  21.537  0.00  0.00    +0.000 A 
ATOM     12  C   UNL     1      -7.798  13.969  22.689  0.00  0.00    +0.000 A 
ATOM     13  C   UNL     1      -7.004  14.165  23.813  0.00  0.00    +0.000 A 
ATOM     14  C   UNL     1      -5.689  13.703  23.825  0.00  0.00    +0.000 A 
ATOM     15  C   UNL     1      -5.156  13.058  22.684  0.00  0.00    +0.000 A 
ATOM     16  C   UNL     1      -3.839  12.631  22.349  0.00  0.00    +0.000 A 
ATOM     17  C   UNL     1      -2.480  12.933  23.306  0.00  0.00    +0.000 C 
ATOM     18  C   UNL     1      -0.852  13.163  22.700  0.00  0.00    +0.000 C 
ATOM     19  H   UNL     1      -5.503  12.405  19.520  0.00  0.00    +0.000 HD
ENDROOT
BRANCH   6  20
ATOM     20  C   UNL     1      -0.919  11.066  20.241  0.00  0.00    +0.000 A 
ATOM     21  C   UNL     1      -0.128  10.168  20.997  0.00  0.00    +0.000 A 
ATOM     22  C   UNL     1       0.914   9.429  20.419  0.00  0.00    +0.000 A 
ATOM     23  C   UNL     1       1.083   9.425  19.044  0.00  0.00    +0.000 A 
ATOM     24  C   UNL     1       0.149  10.063  18.255  0.00  0.00    +0.000 A 
ATOM     25  C   UNL     1      -0.873  10.852  18.843  0.00  0.00    +0.000 A 
ENDBRANCH   6  20
TORSDOF 1
ENDMDL
