MODEL 1
REMARK VINA RESULT:      -6.9      0.000      0.000
REMARK  Name = 
REMARK  13 active torsions:
REMARK  status: ('A' for Active; 'I' for Inactive)
REMARK    1  A    between atoms: C_1  and  C_2
REMARK    2  A    between atoms: C_2  and  C_3
REMARK    3  A    between atoms: C_3  and  C_4
REMARK    4  A    between atoms: C_3  and  N_5
REMARK    5  A    between atoms: C_7  and  C_8
REMARK    6  A    between atoms: C_16  and  C_17
REMARK    7  A    between atoms: N_19  and  C_20
REMARK    8  A    between atoms: C_20  and  C_21
REMARK    9  A    between atoms: C_21  and  C_22
REMARK   10  A    between atoms: C_22  and  C_23
REMARK   11  A    between atoms: C_23  and  C_24
REMARK   12  A    between atoms: C_24  and  C_25
REMARK   13  A    between atoms: C_25  and  S_26
REMARK                            x       y       z     vdW  Elec       q    Type
REMARK                         _______ _______ _______ _____ _____    ______ ____
ROOT
ATOM      1  N   UNL     1       3.105   4.612  17.753  0.00  0.00    +0.000 N 
ATOM      2  N   UNL     1       2.201   5.473  18.284  0.00  0.00    +0.000 NA
ATOM      3  C   UNL     1       2.777   6.679  18.222  0.00  0.00    +0.000 A 
ATOM      4  C   UNL     1       4.044   6.591  17.610  0.00  0.00    +0.000 A 
ATOM      5  C   UNL     1       4.236   5.260  17.277  0.00  0.00    +0.000 A 
ENDROOT
BRANCH   3   6
ATOM      6  C   UNL     1       2.125   7.878  18.729  0.00  0.00    +0.000 A 
ATOM      7  C   UNL     1       1.892   8.985  17.896  0.00  0.00    +0.000 A 
ATOM      8  C   UNL     1       1.284  10.134  18.390  0.00  0.00    +0.000 A 
ATOM      9  C   UNL     1       0.898  10.179  19.726  0.00  0.00    +0.000 A 
ATOM     10  F   UNL     1       0.321  11.292  20.205  0.00  0.00    +0.000 F 
ATOM     11  C   UNL     1       1.097   9.097  20.567  0.00  0.00    +0.000 A 
ATOM     12  C   UNL     1       1.708   7.942  20.077  0.00  0.00    +0.000 A 
ENDBRANCH   3   6
BRANCH   5  13
ATOM     13  C   UNL     1       5.369   4.655  16.624  0.00  0.00    +0.000 C 
ATOM     14  O   UNL     1       6.398   4.351  17.226  0.00  0.00    +0.000 OA
ATOM     15  N   UNL     1       5.239   4.430  15.258  0.00  0.00    +0.000 N 
ATOM     16  H   UNL     1       4.381   4.676  14.781  0.00  0.00    +0.000 HD
BRANCH  15  17
ATOM     17  C   UNL     1       6.312   3.821  14.509  0.00  0.00    +0.000 C 
BRANCH  17  18
ATOM     18  C   UNL     1       6.631   4.569  13.214  0.00  0.00    +0.000 C 
BRANCH  18  19
ATOM     19  C   UNL     1       6.617   3.598  12.032  0.00  0.00    +0.000 C 
BRANCH  19  20
ATOM     20  C   UNL     1       5.358   2.738  12.051  0.00  0.00    +0.000 C 
BRANCH  20  21
ATOM     21  C   UNL     1       4.119   3.543  11.653  0.00  0.00    +0.000 C 
BRANCH  21  22
ATOM     22  C   UNL     1       3.606   3.071  10.297  0.00  0.00    +0.000 C 
BRANCH  22  23
ATOM     23  S   UNL     1       2.745   4.412   9.432  0.00  0.00    +0.000 S 
ATOM     24  H   UNL     1       1.637   4.393  10.186  0.00  0.00    +0.000 HD
ENDBRANCH  22  23
ENDBRANCH  21  22
ENDBRANCH  20  21
ENDBRANCH  19  20
ENDBRANCH  18  19
ENDBRANCH  17  18
ENDBRANCH  15  17
ENDBRANCH   5  13
BRANCH   1  25
ATOM     25  C   UNL     1       2.714   3.198  17.636  0.00  0.00    +0.000 C 
ATOM     26  C   UNL     1       1.232   3.018  18.030  0.00  0.00    +0.000 C 
BRANCH  25  28
ATOM     27  C   UNL     1       4.355   2.818  19.653  0.00  0.00    +0.000 C 
ATOM     28  C   UNL     1       3.546   2.224  18.512  0.00  0.00    +0.000 C 
ENDBRANCH  25  28
ENDBRANCH   1  25
TORSDOF 11
ENDMDL
MODEL 2
REMARK VINA RESULT:      -6.9      3.309      4.627
REMARK  Name = 
REMARK  13 active torsions:
REMARK  status: ('A' for Active; 'I' for Inactive)
REMARK    1  A    between atoms: C_1  and  C_2
REMARK    2  A    between atoms: C_2  and  C_3
REMARK    3  A    between atoms: C_3  and  C_4
REMARK    4  A    between atoms: C_3  and  N_5
REMARK    5  A    between atoms: C_7  and  C_8
REMARK    6  A    between atoms: C_16  and  C_17
REMARK    7  A    between atoms: N_19  and  C_20
REMARK    8  A    between atoms: C_20  and  C_21
REMARK    9  A    between atoms: C_21  and  C_22
REMARK   10  A    between atoms: C_22  and  C_23
REMARK   11  A    between atoms: C_23  and  C_24
REMARK   12  A    between atoms: C_24  and  C_25
REMARK   13  A    between atoms: C_25  and  S_26
REMARK                            x       y       z     vdW  Elec       q    Type
REMARK                         _______ _______ _______ _____ _____    ______ ____
ROOT
ATOM      1  N   UNL     1       6.172   5.550  17.806  0.00  0.00    +0.000 N 
ATOM      2  N   UNL     1       5.567   5.101  18.934  0.00  0.00    +0.000 NA
ATOM      3  C   UNL     1       4.411   4.563  18.530  0.00  0.00    +0.000 A 
ATOM      4  C   UNL     1       4.296   4.635  17.127  0.00  0.00    +0.000 A 
ATOM      5  C   UNL     1       5.453   5.242  16.661  0.00  0.00    +0.000 A 
ENDROOT
BRANCH   3   6
ATOM      6  C   UNL     1       3.452   3.991  19.464  0.00  0.00    +0.000 A 
ATOM      7  C   UNL     1       3.156   2.618  19.450  0.00  0.00    +0.000 A 
ATOM      8  C   UNL     1       2.226   2.081  20.334  0.00  0.00    +0.000 A 
ATOM      9  C   UNL     1       1.589   2.917  21.245  0.00  0.00    +0.000 A 
ATOM     10  F   UNL     1       0.684   2.400  22.089  0.00  0.00    +0.000 F 
ATOM     11  C   UNL     1       1.873   4.271  21.295  0.00  0.00    +0.000 A 
ATOM     12  C   UNL     1       2.805   4.816  20.409  0.00  0.00    +0.000 A 
ENDBRANCH   3   6
BRANCH   5  13
ATOM     13  C   UNL     1       5.822   5.538  15.301  0.00  0.00    +0.000 C 
ATOM     14  O   UNL     1       5.406   6.527  14.699  0.00  0.00    +0.000 OA
ATOM     15  N   UNL     1       6.686   4.634  14.692  0.00  0.00    +0.000 N 
ATOM     16  H   UNL     1       7.027   3.831  15.205  0.00  0.00    +0.000 HD
BRANCH  15  17
ATOM     17  C   UNL     1       7.126   4.840  13.332  0.00  0.00    +0.000 C 
BRANCH  17  18
ATOM     18  C   UNL     1       6.777   3.670  12.412  0.00  0.00    +0.000 C 
BRANCH  18  19
ATOM     19  C   UNL     1       5.264   3.449  12.397  0.00  0.00    +0.000 C 
BRANCH  19  20
ATOM     20  C   UNL     1       4.741   3.373  10.967  0.00  0.00    +0.000 C 
BRANCH  20  21
ATOM     21  C   UNL     1       3.246   3.048  10.929  0.00  0.00    +0.000 C 
BRANCH  21  22
ATOM     22  C   UNL     1       2.721   3.185   9.504  0.00  0.00    +0.000 C 
BRANCH  22  23
ATOM     23  S   UNL     1       2.490   4.929   9.068  0.00  0.00    +0.000 S 
ATOM     24  H   UNL     1       2.540   5.407  10.320  0.00  0.00    +0.000 HD
ENDBRANCH  22  23
ENDBRANCH  21  22
ENDBRANCH  20  21
ENDBRANCH  19  20
ENDBRANCH  18  19
ENDBRANCH  17  18
ENDBRANCH  15  17
ENDBRANCH   5  13
BRANCH   1  25
ATOM     25  C   UNL     1       7.511   6.148  17.941  0.00  0.00    +0.000 C 
ATOM     26  C   UNL     1       8.014   6.013  19.395  0.00  0.00    +0.000 C 
BRANCH  25  28
ATOM     27  C   UNL     1       8.498   8.541  18.393  0.00  0.00    +0.000 C 
ATOM     28  C   UNL     1       7.587   7.652  17.564  0.00  0.00    +0.000 C 
ENDBRANCH  25  28
ENDBRANCH   1  25
TORSDOF 11
ENDMDL
MODEL 3
REMARK VINA RESULT:      -6.9      0.490      1.079
REMARK  Name = 
REMARK  13 active torsions:
REMARK  status: ('A' for Active; 'I' for Inactive)
REMARK    1  A    between atoms: C_1  and  C_2
REMARK    2  A    between atoms: C_2  and  C_3
REMARK    3  A    between atoms: C_3  and  C_4
REMARK    4  A    between atoms: C_3  and  N_5
REMARK    5  A    between atoms: C_7  and  C_8
REMARK    6  A    between atoms: C_16  and  C_17
REMARK    7  A    between atoms: N_19  and  C_20
REMARK    8  A    between atoms: C_20  and  C_21
REMARK    9  A    between atoms: C_21  and  C_22
REMARK   10  A    between atoms: C_22  and  C_23
REMARK   11  A    between atoms: C_23  and  C_24
REMARK   12  A    between atoms: C_24  and  C_25
REMARK   13  A    between atoms: C_25  and  S_26
REMARK                            x       y       z     vdW  Elec       q    Type
REMARK                         _______ _______ _______ _____ _____    ______ ____
ROOT
ATOM      1  N   UNL     1       3.526   4.824  17.938  0.00  0.00    +0.000 N 
ATOM      2  N   UNL     1       2.563   5.614  18.475  0.00  0.00    +0.000 NA
ATOM      3  C   UNL     1       2.951   6.870  18.228  0.00  0.00    +0.000 A 
ATOM      4  C   UNL     1       4.153   6.879  17.492  0.00  0.00    +0.000 A 
ATOM      5  C   UNL     1       4.501   5.555  17.276  0.00  0.00    +0.000 A 
ENDROOT
BRANCH   3   6
ATOM      6  C   UNL     1       2.186   8.023  18.680  0.00  0.00    +0.000 A 
ATOM      7  C   UNL     1       1.714   8.108  20.000  0.00  0.00    +0.000 A 
ATOM      8  C   UNL     1       0.969   9.205  20.420  0.00  0.00    +0.000 A 
ATOM      9  C   UNL     1       0.698  10.231  19.520  0.00  0.00    +0.000 A 
ATOM     10  F   UNL     1      -0.029  11.284  19.923  0.00  0.00    +0.000 F 
ATOM     11  C   UNL     1       1.167  10.184  18.218  0.00  0.00    +0.000 A 
ATOM     12  C   UNL     1       1.914   9.085  17.790  0.00  0.00    +0.000 A 
ENDBRANCH   3   6
BRANCH   5  13
ATOM     13  C   UNL     1       5.642   5.034  16.567  0.00  0.00    +0.000 C 
ATOM     14  O   UNL     1       6.797   5.186  16.962  0.00  0.00    +0.000 OA
ATOM     15  N   UNL     1       5.367   4.339  15.394  0.00  0.00    +0.000 N 
ATOM     16  H   UNL     1       4.410   4.214  15.089  0.00  0.00    +0.000 HD
BRANCH  15  17
ATOM     17  C   UNL     1       6.437   3.768  14.610  0.00  0.00    +0.000 C 
BRANCH  17  18
ATOM     18  C   UNL     1       6.872   4.669  13.454  0.00  0.00    +0.000 C 
BRANCH  18  19
ATOM     19  C   UNL     1       6.853   3.881  12.143  0.00  0.00    +0.000 C 
BRANCH  19  20
ATOM     20  C   UNL     1       5.652   2.945  12.089  0.00  0.00    +0.000 C 
BRANCH  20  21
ATOM     21  C   UNL     1       4.369   3.693  11.721  0.00  0.00    +0.000 C 
BRANCH  21  22
ATOM     22  C   UNL     1       3.738   3.066  10.482  0.00  0.00    +0.000 C 
BRANCH  22  23
ATOM     23  S   UNL     1       2.738   4.281   9.584  0.00  0.00    +0.000 S 
ATOM     24  H   UNL     1       3.645   4.555   8.635  0.00  0.00    +0.000 HD
ENDBRANCH  22  23
ENDBRANCH  21  22
ENDBRANCH  20  21
ENDBRANCH  19  20
ENDBRANCH  18  19
ENDBRANCH  17  18
ENDBRANCH  15  17
ENDBRANCH   5  13
BRANCH   1  25
ATOM     25  C   UNL     1       3.331   3.367  18.009  0.00  0.00    +0.000 C 
ATOM     26  C   UNL     1       1.827   3.030  18.101  0.00  0.00    +0.000 C 
BRANCH  25  28
ATOM     27  C   UNL     1       3.280   2.629  20.531  0.00  0.00    +0.000 C 
ATOM     28  C   UNL     1       4.033   2.680  19.212  0.00  0.00    +0.000 C 
ENDBRANCH  25  28
ENDBRANCH   1  25
TORSDOF 11
ENDMDL
MODEL 4
REMARK VINA RESULT:      -6.7      3.997      7.670
REMARK  Name = 
REMARK  13 active torsions:
REMARK  status: ('A' for Active; 'I' for Inactive)
REMARK    1  A    between atoms: C_1  and  C_2
REMARK    2  A    between atoms: C_2  and  C_3
REMARK    3  A    between atoms: C_3  and  C_4
REMARK    4  A    between atoms: C_3  and  N_5
REMARK    5  A    between atoms: C_7  and  C_8
REMARK    6  A    between atoms: C_16  and  C_17
REMARK    7  A    between atoms: N_19  and  C_20
REMARK    8  A    between atoms: C_20  and  C_21
REMARK    9  A    between atoms: C_21  and  C_22
REMARK   10  A    between atoms: C_22  and  C_23
REMARK   11  A    between atoms: C_23  and  C_24
REMARK   12  A    between atoms: C_24  and  C_25
REMARK   13  A    between atoms: C_25  and  S_26
REMARK                            x       y       z     vdW  Elec       q    Type
REMARK                         _______ _______ _______ _____ _____    ______ ____
ROOT
ATOM      1  N   UNL     1       2.203   5.354  19.457  0.00  0.00    +0.000 N 
ATOM      2  N   UNL     1       2.995   4.685  18.582  0.00  0.00    +0.000 NA
ATOM      3  C   UNL     1       3.636   5.631  17.886  0.00  0.00    +0.000 A 
ATOM      4  C   UNL     1       3.279   6.913  18.349  0.00  0.00    +0.000 A 
ATOM      5  C   UNL     1       2.380   6.728  19.388  0.00  0.00    +0.000 A 
ENDROOT
BRANCH   3   6
ATOM      6  C   UNL     1       4.569   5.310  16.815  0.00  0.00    +0.000 A 
ATOM      7  C   UNL     1       4.893   3.977  16.511  0.00  0.00    +0.000 A 
ATOM      8  C   UNL     1       5.797   3.678  15.497  0.00  0.00    +0.000 A 
ATOM      9  C   UNL     1       6.379   4.714  14.774  0.00  0.00    +0.000 A 
ATOM     10  F   UNL     1       7.259   4.426  13.804  0.00  0.00    +0.000 F 
ATOM     11  C   UNL     1       6.064   6.037  15.038  0.00  0.00    +0.000 A 
ATOM     12  C   UNL     1       5.158   6.344  16.055  0.00  0.00    +0.000 A 
ENDBRANCH   3   6
BRANCH   5  13
ATOM     13  C   UNL     1       1.728   7.727  20.196  0.00  0.00    +0.000 C 
ATOM     14  O   UNL     1       1.531   7.582  21.402  0.00  0.00    +0.000 OA
ATOM     15  N   UNL     1       1.325   8.881  19.533  0.00  0.00    +0.000 N 
ATOM     16  H   UNL     1       1.504   8.988  18.543  0.00  0.00    +0.000 HD
BRANCH  15  17
ATOM     17  C   UNL     1       0.669   9.949  20.249  0.00  0.00    +0.000 C 
BRANCH  17  18
ATOM     18  C   UNL     1      -0.585  10.458  19.539  0.00  0.00    +0.000 C 
BRANCH  18  19
ATOM     19  C   UNL     1      -0.477  10.196  18.035  0.00  0.00    +0.000 C 
BRANCH  19  20
ATOM     20  C   UNL     1      -1.856   9.981  17.422  0.00  0.00    +0.000 C 
BRANCH  20  21
ATOM     21  C   UNL     1      -2.650  11.286  17.346  0.00  0.00    +0.000 C 
BRANCH  21  22
ATOM     22  C   UNL     1      -3.786  11.146  16.338  0.00  0.00    +0.000 C 
BRANCH  22  23
ATOM     23  S   UNL     1      -3.246  10.197  14.890  0.00  0.00    +0.000 S 
ATOM     24  H   UNL     1      -2.281   9.505  15.512  0.00  0.00    +0.000 HD
ENDBRANCH  22  23
ENDBRANCH  21  22
ENDBRANCH  20  21
ENDBRANCH  19  20
ENDBRANCH  18  19
ENDBRANCH  17  18
ENDBRANCH  15  17
ENDBRANCH   5  13
BRANCH   1  25
ATOM     25  C   UNL     1       1.412   4.556  20.408  0.00  0.00    +0.000 C 
ATOM     26  C   UNL     1       2.320   3.993  21.522  0.00  0.00    +0.000 C 
BRANCH  25  28
ATOM     27  C   UNL     1       1.462   2.095  19.487  0.00  0.00    +0.000 C 
ATOM     28  C   UNL     1       0.661   3.354  19.773  0.00  0.00    +0.000 C 
ENDBRANCH  25  28
ENDBRANCH   1  25
TORSDOF 11
ENDMDL
MODEL 5
REMARK VINA RESULT:      -6.6      3.193      4.186
REMARK  Name = 
REMARK  13 active torsions:
REMARK  status: ('A' for Active; 'I' for Inactive)
REMARK    1  A    between atoms: C_1  and  C_2
REMARK    2  A    between atoms: C_2  and  C_3
REMARK    3  A    between atoms: C_3  and  C_4
REMARK    4  A    between atoms: C_3  and  N_5
REMARK    5  A    between atoms: C_7  and  C_8
REMARK    6  A    between atoms: C_16  and  C_17
REMARK    7  A    between atoms: N_19  and  C_20
REMARK    8  A    between atoms: C_20  and  C_21
REMARK    9  A    between atoms: C_21  and  C_22
REMARK   10  A    between atoms: C_22  and  C_23
REMARK   11  A    between atoms: C_23  and  C_24
REMARK   12  A    between atoms: C_24  and  C_25
REMARK   13  A    between atoms: C_25  and  S_26
REMARK                            x       y       z     vdW  Elec       q    Type
REMARK                         _______ _______ _______ _____ _____    ______ ____
ROOT
ATOM      1  N   UNL     1       1.816   5.238  20.407  0.00  0.00    +0.000 N 
ATOM      2  N   UNL     1       1.047   6.249  20.884  0.00  0.00    +0.000 NA
ATOM      3  C   UNL     1       1.598   7.372  20.410  0.00  0.00    +0.000 A 
ATOM      4  C   UNL     1       2.706   7.071  19.592  0.00  0.00    +0.000 A 
ATOM      5  C   UNL     1       2.820   5.689  19.564  0.00  0.00    +0.000 A 
ENDROOT
BRANCH   3   6
ATOM      6  C   UNL     1       1.072   8.691  20.729  0.00  0.00    +0.000 A 
ATOM      7  C   UNL     1       0.982   9.693  19.749  0.00  0.00    +0.000 A 
ATOM      8  C   UNL     1       0.494  10.956  20.064  0.00  0.00    +0.000 A 
ATOM      9  C   UNL     1       0.085  11.224  21.366  0.00  0.00    +0.000 A 
ATOM     10  F   UNL     1      -0.376  12.446  21.672  0.00  0.00    +0.000 F 
ATOM     11  C   UNL     1       0.144  10.251  22.350  0.00  0.00    +0.000 A 
ATOM     12  C   UNL     1       0.634   8.981  22.040  0.00  0.00    +0.000 A 
ENDBRANCH   3   6
BRANCH   5  13
ATOM     13  C   UNL     1       3.787   4.885  18.861  0.00  0.00    +0.000 C 
ATOM     14  O   UNL     1       4.821   4.477  19.389  0.00  0.00    +0.000 OA
ATOM     15  N   UNL     1       3.489   4.590  17.536  0.00  0.00    +0.000 N 
ATOM     16  H   UNL     1       2.629   4.924  17.121  0.00  0.00    +0.000 HD
BRANCH  15  17
ATOM     17  C   UNL     1       4.386   3.784  16.743  0.00  0.00    +0.000 C 
BRANCH  17  18
ATOM     18  C   UNL     1       5.113   4.589  15.665  0.00  0.00    +0.000 C 
BRANCH  18  19
ATOM     19  C   UNL     1       6.599   4.229  15.656  0.00  0.00    +0.000 C 
BRANCH  19  20
ATOM     20  C   UNL     1       7.313   4.839  16.856  0.00  0.00    +0.000 C 
BRANCH  20  21
ATOM     21  C   UNL     1       6.978   6.323  17.019  0.00  0.00    +0.000 C 
BRANCH  21  22
ATOM     22  C   UNL     1       7.730   6.897  18.214  0.00  0.00    +0.000 C 
BRANCH  22  23
ATOM     23  S   UNL     1       8.135   8.643  17.940  0.00  0.00    +0.000 S 
ATOM     24  H   UNL     1       7.558   9.111  19.056  0.00  0.00    +0.000 HD
ENDBRANCH  22  23
ENDBRANCH  21  22
ENDBRANCH  20  21
ENDBRANCH  19  20
ENDBRANCH  18  19
ENDBRANCH  17  18
ENDBRANCH  15  17
ENDBRANCH   5  13
BRANCH   1  25
ATOM     25  C   UNL     1       1.405   3.861  20.725  0.00  0.00    +0.000 C 
ATOM     26  C   UNL     1       2.535   3.123  21.475  0.00  0.00    +0.000 C 
BRANCH  25  28
ATOM     27  C   UNL     1       1.968   1.862  19.115  0.00  0.00    +0.000 C 
ATOM     28  C   UNL     1       1.031   2.997  19.490  0.00  0.00    +0.000 C 
ENDBRANCH  25  28
ENDBRANCH   1  25
TORSDOF 11
ENDMDL
MODEL 6
REMARK VINA RESULT:      -6.5      5.325      7.542
REMARK  Name = 
REMARK  13 active torsions:
REMARK  status: ('A' for Active; 'I' for Inactive)
REMARK    1  A    between atoms: C_1  and  C_2
REMARK    2  A    between atoms: C_2  and  C_3
REMARK    3  A    between atoms: C_3  and  C_4
REMARK    4  A    between atoms: C_3  and  N_5
REMARK    5  A    between atoms: C_7  and  C_8
REMARK    6  A    between atoms: C_16  and  C_17
REMARK    7  A    between atoms: N_19  and  C_20
REMARK    8  A    between atoms: C_20  and  C_21
REMARK    9  A    between atoms: C_21  and  C_22
REMARK   10  A    between atoms: C_22  and  C_23
REMARK   11  A    between atoms: C_23  and  C_24
REMARK   12  A    between atoms: C_24  and  C_25
REMARK   13  A    between atoms: C_25  and  S_26
REMARK                            x       y       z     vdW  Elec       q    Type
REMARK                         _______ _______ _______ _____ _____    ______ ____
ROOT
ATOM      1  N   UNL     1       5.403   4.494  17.098  0.00  0.00    +0.000 N 
ATOM      2  N   UNL     1       4.582   3.648  17.769  0.00  0.00    +0.000 NA
ATOM      3  C   UNL     1       4.071   4.367  18.774  0.00  0.00    +0.000 A 
ATOM      4  C   UNL     1       4.540   5.695  18.720  0.00  0.00    +0.000 A 
ATOM      5  C   UNL     1       5.371   5.781  17.614  0.00  0.00    +0.000 A 
ENDROOT
BRANCH   3   6
ATOM      6  C   UNL     1       3.155   3.796  19.752  0.00  0.00    +0.000 A 
ATOM      7  C   UNL     1       3.585   2.820  20.665  0.00  0.00    +0.000 A 
ATOM      8  C   UNL     1       2.701   2.267  21.585  0.00  0.00    +0.000 A 
ATOM      9  C   UNL     1       1.378   2.694  21.602  0.00  0.00    +0.000 A 
ATOM     10  F   UNL     1       0.523   2.153  22.482  0.00  0.00    +0.000 F 
ATOM     11  C   UNL     1       0.928   3.670  20.726  0.00  0.00    +0.000 A 
ATOM     12  C   UNL     1       1.811   4.227  19.799  0.00  0.00    +0.000 A 
ENDBRANCH   3   6
BRANCH   5  13
ATOM     13  C   UNL     1       6.090   6.929  17.122  0.00  0.00    +0.000 C 
ATOM     14  O   UNL     1       5.767   7.526  16.096  0.00  0.00    +0.000 OA
ATOM     15  N   UNL     1       7.185   7.334  17.876  0.00  0.00    +0.000 N 
ATOM     16  H   UNL     1       7.431   6.838  18.724  0.00  0.00    +0.000 HD
BRANCH  15  17
ATOM     17  C   UNL     1       7.970   8.478  17.478  0.00  0.00    +0.000 C 
BRANCH  17  18
ATOM     18  C   UNL     1       8.640   9.180  18.659  0.00  0.00    +0.000 C 
BRANCH  18  19
ATOM     19  C   UNL     1       9.217  10.523  18.211  0.00  0.00    +0.000 C 
BRANCH  19  20
ATOM     20  C   UNL     1       9.732  11.318  19.405  0.00  0.00    +0.000 C 
BRANCH  20  21
ATOM     21  C   UNL     1      11.249  11.511  19.343  0.00  0.00    +0.000 C 
BRANCH  21  22
ATOM     22  C   UNL     1      11.606  12.465  18.208  0.00  0.00    +0.000 C 
BRANCH  22  23
ATOM     23  S   UNL     1      10.721  14.037  18.386  0.00  0.00    +0.000 S 
ATOM     24  H   UNL     1       9.893  13.637  19.362  0.00  0.00    +0.000 HD
ENDBRANCH  22  23
ENDBRANCH  21  22
ENDBRANCH  20  21
ENDBRANCH  19  20
ENDBRANCH  18  19
ENDBRANCH  17  18
ENDBRANCH  15  17
ENDBRANCH   5  13
BRANCH   1  25
ATOM     25  C   UNL     1       6.068   3.983  15.888  0.00  0.00    +0.000 C 
ATOM     26  C   UNL     1       7.536   4.458  15.842  0.00  0.00    +0.000 C 
BRANCH  25  28
ATOM     27  C   UNL     1       5.975   3.853  13.265  0.00  0.00    +0.000 C 
ATOM     28  C   UNL     1       5.400   4.415  14.554  0.00  0.00    +0.000 C 
ENDBRANCH  25  28
ENDBRANCH   1  25
TORSDOF 11
ENDMDL
MODEL 7
REMARK VINA RESULT:      -6.4      4.121      5.040
REMARK  Name = 
REMARK  13 active torsions:
REMARK  status: ('A' for Active; 'I' for Inactive)
REMARK    1  A    between atoms: C_1  and  C_2
REMARK    2  A    between atoms: C_2  and  C_3
REMARK    3  A    between atoms: C_3  and  C_4
REMARK    4  A    between atoms: C_3  and  N_5
REMARK    5  A    between atoms: C_7  and  C_8
REMARK    6  A    between atoms: C_16  and  C_17
REMARK    7  A    between atoms: N_19  and  C_20
REMARK    8  A    between atoms: C_20  and  C_21
REMARK    9  A    between atoms: C_21  and  C_22
REMARK   10  A    between atoms: C_22  and  C_23
REMARK   11  A    between atoms: C_23  and  C_24
REMARK   12  A    between atoms: C_24  and  C_25
REMARK   13  A    between atoms: C_25  and  S_26
REMARK                            x       y       z     vdW  Elec       q    Type
REMARK                         _______ _______ _______ _____ _____    ______ ____
ROOT
ATOM      1  N   UNL     1       2.376   5.348  19.588  0.00  0.00    +0.000 N 
ATOM      2  N   UNL     1       1.486   6.069  20.316  0.00  0.00    +0.000 NA
ATOM      3  C   UNL     1       1.823   7.349  20.125  0.00  0.00    +0.000 A 
ATOM      4  C   UNL     1       2.914   7.447  19.237  0.00  0.00    +0.000 A 
ATOM      5  C   UNL     1       3.243   6.152  18.865  0.00  0.00    +0.000 A 
ENDROOT
BRANCH   3   6
ATOM      6  C   UNL     1       1.114   8.445  20.772  0.00  0.00    +0.000 A 
ATOM      7  C   UNL     1       0.944   8.476  22.166  0.00  0.00    +0.000 A 
ATOM      8  C   UNL     1       0.251   9.516  22.775  0.00  0.00    +0.000 A 
ATOM      9  C   UNL     1      -0.271  10.539  21.991  0.00  0.00    +0.000 A 
ATOM     10  F   UNL     1      -0.948  11.537  22.579  0.00  0.00    +0.000 F 
ATOM     11  C   UNL     1      -0.103  10.546  20.616  0.00  0.00    +0.000 A 
ATOM     12  C   UNL     1       0.591   9.504  19.999  0.00  0.00    +0.000 A 
ENDBRANCH   3   6
BRANCH   5  13
ATOM     13  C   UNL     1       4.282   5.717  17.967  0.00  0.00    +0.000 C 
ATOM     14  O   UNL     1       4.236   5.910  16.753  0.00  0.00    +0.000 OA
ATOM     15  N   UNL     1       5.358   5.057  18.551  0.00  0.00    +0.000 N 
ATOM     16  H   UNL     1       5.385   4.916  19.553  0.00  0.00    +0.000 HD
BRANCH  15  17
ATOM     17  C   UNL     1       6.458   4.586  17.744  0.00  0.00    +0.000 C 
BRANCH  17  18
ATOM     18  C   UNL     1       7.821   5.005  18.294  0.00  0.00    +0.000 C 
BRANCH  18  19
ATOM     19  C   UNL     1       7.808   6.493  18.646  0.00  0.00    +0.000 C 
BRANCH  19  20
ATOM     20  C   UNL     1       7.719   7.348  17.387  0.00  0.00    +0.000 C 
BRANCH  20  21
ATOM     21  C   UNL     1       7.633   8.838  17.721  0.00  0.00    +0.000 C 
BRANCH  21  22
ATOM     22  C   UNL     1       8.774   9.229  18.654  0.00  0.00    +0.000 C 
BRANCH  22  23
ATOM     23  S   UNL     1       9.306  10.934  18.341  0.00  0.00    +0.000 S 
ATOM     24  H   UNL     1       9.646  11.222  19.606  0.00  0.00    +0.000 HD
ENDBRANCH  22  23
ENDBRANCH  21  22
ENDBRANCH  20  21
ENDBRANCH  19  20
ENDBRANCH  18  19
ENDBRANCH  17  18
ENDBRANCH  15  17
ENDBRANCH   5  13
BRANCH   1  25
ATOM     25  C   UNL     1       2.209   3.886  19.562  0.00  0.00    +0.000 C 
ATOM     26  C   UNL     1       0.712   3.515  19.648  0.00  0.00    +0.000 C 
BRANCH  25  28
ATOM     27  C   UNL     1       2.105   2.681  21.895  0.00  0.00    +0.000 C 
ATOM     28  C   UNL     1       2.937   3.132  20.708  0.00  0.00    +0.000 C 
ENDBRANCH  25  28
ENDBRANCH   1  25
TORSDOF 11
ENDMDL
MODEL 8
REMARK VINA RESULT:      -6.4      1.596      2.162
REMARK  Name = 
REMARK  13 active torsions:
REMARK  status: ('A' for Active; 'I' for Inactive)
REMARK    1  A    between atoms: C_1  and  C_2
REMARK    2  A    between atoms: C_2  and  C_3
REMARK    3  A    between atoms: C_3  and  C_4
REMARK    4  A    between atoms: C_3  and  N_5
REMARK    5  A    between atoms: C_7  and  C_8
REMARK    6  A    between atoms: C_16  and  C_17
REMARK    7  A    between atoms: N_19  and  C_20
REMARK    8  A    between atoms: C_20  and  C_21
REMARK    9  A    between atoms: C_21  and  C_22
REMARK   10  A    between atoms: C_22  and  C_23
REMARK   11  A    between atoms: C_23  and  C_24
REMARK   12  A    between atoms: C_24  and  C_25
REMARK   13  A    between atoms: C_25  and  S_26
REMARK                            x       y       z     vdW  Elec       q    Type
REMARK                         _______ _______ _______ _____ _____    ______ ____
ROOT
ATOM      1  N   UNL     1       3.292   4.722  19.094  0.00  0.00    +0.000 N 
ATOM      2  N   UNL     1       2.291   5.506  19.568  0.00  0.00    +0.000 NA
ATOM      3  C   UNL     1       2.639   6.759  19.255  0.00  0.00    +0.000 A 
ATOM      4  C   UNL     1       3.854   6.771  18.540  0.00  0.00    +0.000 A 
ATOM      5  C   UNL     1       4.253   5.450  18.407  0.00  0.00    +0.000 A 
ENDROOT
BRANCH   3   6
ATOM      6  C   UNL     1       1.825   7.908  19.626  0.00  0.00    +0.000 A 
ATOM      7  C   UNL     1       1.253   8.009  20.905  0.00  0.00    +0.000 A 
ATOM      8  C   UNL     1       0.462   9.101  21.248  0.00  0.00    +0.000 A 
ATOM      9  C   UNL     1       0.244  10.105  20.311  0.00  0.00    +0.000 A 
ATOM     10  F   UNL     1      -0.527  11.152  20.638  0.00  0.00    +0.000 F 
ATOM     11  C   UNL     1       0.810  10.043  19.048  0.00  0.00    +0.000 A 
ATOM     12  C   UNL     1       1.603   8.948  18.698  0.00  0.00    +0.000 A 
ENDBRANCH   3   6
BRANCH   5  13
ATOM     13  C   UNL     1       5.425   4.931  17.749  0.00  0.00    +0.000 C 
ATOM     14  O   UNL     1       6.240   4.205  18.316  0.00  0.00    +0.000 OA
ATOM     15  N   UNL     1       5.591   5.299  16.418  0.00  0.00    +0.000 N 
ATOM     16  H   UNL     1       4.905   5.888  15.963  0.00  0.00    +0.000 HD
BRANCH  15  17
ATOM     17  C   UNL     1       6.727   4.828  15.662  0.00  0.00    +0.000 C 
BRANCH  17  18
ATOM     18  C   UNL     1       6.378   3.671  14.725  0.00  0.00    +0.000 C 
BRANCH  18  19
ATOM     19  C   UNL     1       5.339   4.125  13.699  0.00  0.00    +0.000 C 
BRANCH  19  20
ATOM     20  C   UNL     1       5.509   3.370  12.385  0.00  0.00    +0.000 C 
BRANCH  20  21
ATOM     21  C   UNL     1       6.913   3.554  11.806  0.00  0.00    +0.000 C 
BRANCH  21  22
ATOM     22  C   UNL     1       7.442   2.220  11.292  0.00  0.00    +0.000 C 
BRANCH  22  23
ATOM     23  S   UNL     1       6.100   1.010  11.144  0.00  0.00    +0.000 S 
ATOM     24  H   UNL     1       5.097   1.863  11.395  0.00  0.00    +0.000 HD
ENDBRANCH  22  23
ENDBRANCH  21  22
ENDBRANCH  20  21
ENDBRANCH  19  20
ENDBRANCH  18  19
ENDBRANCH  17  18
ENDBRANCH  15  17
ENDBRANCH   5  13
BRANCH   1  25
ATOM     25  C   UNL     1       3.149   3.266  19.246  0.00  0.00    +0.000 C 
ATOM     26  C   UNL     1       2.918   2.602  17.871  0.00  0.00    +0.000 C 
BRANCH  25  28
ATOM     27  C   UNL     1       2.260   2.742  21.663  0.00  0.00    +0.000 C 
ATOM     28  C   UNL     1       1.982   2.826  20.172  0.00  0.00    +0.000 C 
ENDBRANCH  25  28
ENDBRANCH   1  25
TORSDOF 11
ENDMDL
MODEL 9
REMARK VINA RESULT:      -6.4      4.188      7.815
REMARK  Name = 
REMARK  13 active torsions:
REMARK  status: ('A' for Active; 'I' for Inactive)
REMARK    1  A    between atoms: C_1  and  C_2
REMARK    2  A    between atoms: C_2  and  C_3
REMARK    3  A    between atoms: C_3  and  C_4
REMARK    4  A    between atoms: C_3  and  N_5
REMARK    5  A    between atoms: C_7  and  C_8
REMARK    6  A    between atoms: C_16  and  C_17
REMARK    7  A    between atoms: N_19  and  C_20
REMARK    8  A    between atoms: C_20  and  C_21
REMARK    9  A    between atoms: C_21  and  C_22
REMARK   10  A    between atoms: C_22  and  C_23
REMARK   11  A    between atoms: C_23  and  C_24
REMARK   12  A    between atoms: C_24  and  C_25
REMARK   13  A    between atoms: C_25  and  S_26
REMARK                            x       y       z     vdW  Elec       q    Type
REMARK                         _______ _______ _______ _____ _____    ______ ____
ROOT
ATOM      1  N   UNL     1       6.303   6.422  17.184  0.00  0.00    +0.000 N 
ATOM      2  N   UNL     1       6.948   5.992  16.070  0.00  0.00    +0.000 NA
ATOM      3  C   UNL     1       6.039   5.296  15.377  0.00  0.00    +0.000 A 
ATOM      4  C   UNL     1       4.794   5.315  16.037  0.00  0.00    +0.000 A 
ATOM      5  C   UNL     1       4.960   6.074  17.185  0.00  0.00    +0.000 A 
ENDROOT
BRANCH   3   6
ATOM      6  C   UNL     1       6.359   4.639  14.118  0.00  0.00    +0.000 A 
ATOM      7  C   UNL     1       5.540   3.620  13.603  0.00  0.00    +0.000 A 
ATOM      8  C   UNL     1       5.860   2.985  12.408  0.00  0.00    +0.000 A 
ATOM      9  C   UNL     1       7.001   3.373  11.714  0.00  0.00    +0.000 A 
ATOM     10  F   UNL     1       7.315   2.753  10.566  0.00  0.00    +0.000 F 
ATOM     11  C   UNL     1       7.817   4.388  12.186  0.00  0.00    +0.000 A 
ATOM     12  C   UNL     1       7.502   5.027  13.386  0.00  0.00    +0.000 A 
ENDBRANCH   3   6
BRANCH   5  13
ATOM     13  C   UNL     1       3.982   6.400  18.191  0.00  0.00    +0.000 C 
ATOM     14  O   UNL     1       3.291   7.417  18.142  0.00  0.00    +0.000 OA
ATOM     15  N   UNL     1       3.857   5.494  19.238  0.00  0.00    +0.000 N 
ATOM     16  H   UNL     1       4.426   4.657  19.257  0.00  0.00    +0.000 HD
BRANCH  15  17
ATOM     17  C   UNL     1       2.901   5.720  20.295  0.00  0.00    +0.000 C 
BRANCH  17  18
ATOM     18  C   UNL     1       1.538   5.089  20.009  0.00  0.00    +0.000 C 
BRANCH  18  19
ATOM     19  C   UNL     1       1.391   3.783  20.792  0.00  0.00    +0.000 C 
BRANCH  19  20
ATOM     20  C   UNL     1       1.398   2.583  19.851  0.00  0.00    +0.000 C 
BRANCH  20  21
ATOM     21  C   UNL     1       1.259   3.010  18.389  0.00  0.00    +0.000 C 
BRANCH  21  22
ATOM     22  C   UNL     1       2.442   2.490  17.581  0.00  0.00    +0.000 C 
BRANCH  22  23
ATOM     23  S   UNL     1       3.658   1.691  18.662  0.00  0.00    +0.000 S 
ATOM     24  H   UNL     1       4.490   1.292  17.688  0.00  0.00    +0.000 HD
ENDBRANCH  22  23
ENDBRANCH  21  22
ENDBRANCH  20  21
ENDBRANCH  19  20
ENDBRANCH  18  19
ENDBRANCH  17  18
ENDBRANCH  15  17
ENDBRANCH   5  13
BRANCH   1  25
ATOM     25  C   UNL     1       7.053   7.276  18.119  0.00  0.00    +0.000 C 
ATOM     26  C   UNL     1       7.773   8.407  17.353  0.00  0.00    +0.000 C 
BRANCH  25  28
ATOM     27  C   UNL     1       7.678   5.321  19.760  0.00  0.00    +0.000 C 
ATOM     28  C   UNL     1       8.126   6.529  18.956  0.00  0.00    +0.000 C 
ENDBRANCH  25  28
ENDBRANCH   1  25
TORSDOF 11
ENDMDL
