MODEL 1
REMARK VINA RESULT:      -6.9      0.000      0.000
REMARK  Name = 
REMARK  13 active torsions:
REMARK  status: ('A' for Active; 'I' for Inactive)
REMARK    1  A    between atoms: C_1  and  C_2
REMARK    2  A    between atoms: C_2  and  C_3
REMARK    3  A    between atoms: C_2  and  C_4
REMARK    4  A    between atoms: C_2  and  CA_5
REMARK    5  A    between atoms: CA_5  and  C_6
REMARK    6  A    between atoms: CA_5  and  N_8
REMARK    7  A    between atoms: C_6  and  O_7
REMARK    8  A    between atoms: C_9  and  C_11
REMARK    9  A    between atoms: C_13  and  O_14
REMARK   10  A    between atoms: C_13  and  C_15
REMARK   11  A    between atoms: C_15  and  O_16
REMARK   12  A    between atoms: C_17  and  O_18
REMARK   13  A    between atoms: C_19  and  O_20
REMARK                            x       y       z     vdW  Elec       q    Type
REMARK                         _______ _______ _______ _____ _____    ______ ____
ROOT
ATOM      1  C   UNL     1       5.314   5.509  17.955  0.00  0.00    +0.000 C 
ATOM      2  O   UNL     1       6.118   6.456  18.688  0.00  0.00    +0.000 OA
ATOM      3  C   UNL     1       7.421   6.500  18.091  0.00  0.00    +0.000 C 
ATOM      4  C   UNL     1       7.534   5.294  17.149  0.00  0.00    +0.000 C 
ATOM      5  C   UNL     1       6.098   5.094  16.703  0.00  0.00    +0.000 C 
ENDROOT
BRANCH   1   7
ATOM      6  N   UNL     1       3.528   4.068  18.819  0.00  0.00    +0.000 N 
ATOM      7  C   UNL     1       4.891   4.310  18.834  0.00  0.00    +0.000 C 
ATOM      8  O   UNL     1       5.704   3.577  19.393  0.00  0.00    +0.000 OA
ATOM      9  H   UNL     1       2.942   4.804  18.438  0.00  0.00    +0.000 HD
BRANCH   6  10
ATOM     10  CA  UNL     1       2.901   2.935  19.528  0.00  0.00    +0.000 C 
BRANCH  10  12
ATOM     11  C   UNL     1       0.349   2.861  19.342  0.00  0.00    +0.000 C 
ATOM     12  C   UNL     1       1.538   3.311  20.218  0.00  0.00    +0.000 C 
ATOM     13  C   UNL     1       1.412   4.829  20.456  0.00  0.00    +0.000 C 
ATOM     14  C   UNL     1       1.393   2.598  21.578  0.00  0.00    +0.000 C 
ENDBRANCH  10  12
BRANCH  10  15
ATOM     15  C   UNL     1       2.779   1.735  18.554  0.00  0.00    +0.000 C 
BRANCH  15  16
ATOM     16  O   UNL     1       4.032   1.075  18.389  0.00  0.00    +0.000 OA
ATOM     17  H   UNL     1       3.882   0.341  17.769  0.00  0.00    +0.000 HD
ENDBRANCH  15  16
ENDBRANCH  10  15
ENDBRANCH   6  10
ENDBRANCH   1   7
BRANCH   3  18
ATOM     18  O   UNL     1       8.368   6.367  19.149  0.00  0.00    +0.000 OA
ATOM     19  H   UNL     1       8.697   7.278  19.257  0.00  0.00    +0.000 HD
ENDBRANCH   3  18
BRANCH   4  20
ATOM     20  O   UNL     1       7.969   4.139  17.880  0.00  0.00    +0.000 OA
ATOM     21  H   UNL     1       7.150   3.713  18.208  0.00  0.00    +0.000 HD
ENDBRANCH   4  20
BRANCH   5  22
ATOM     22  O   UNL     1       5.831   5.945  15.577  0.00  0.00    +0.000 OA
ATOM     23  H   UNL     1       4.987   5.698  15.160  0.00  0.00    +0.000 HD
ENDBRANCH   5  22
BRANCH   3  24
ATOM     24  C   UNL     1       7.653   7.851  17.377  0.00  0.00    +0.000 C 
BRANCH  24  25
ATOM     25  O   UNL     1       8.343   8.769  18.234  0.00  0.00    +0.000 OA
ATOM     26  H   UNL     1       8.370   8.352  19.118  0.00  0.00    +0.000 HD
ENDBRANCH  24  25
ENDBRANCH   3  24
TORSDOF 10
ENDMDL
MODEL 2
REMARK VINA RESULT:      -6.8      0.168      1.001
REMARK  Name = 
REMARK  13 active torsions:
REMARK  status: ('A' for Active; 'I' for Inactive)
REMARK    1  A    between atoms: C_1  and  C_2
REMARK    2  A    between atoms: C_2  and  C_3
REMARK    3  A    between atoms: C_2  and  C_4
REMARK    4  A    between atoms: C_2  and  CA_5
REMARK    5  A    between atoms: CA_5  and  C_6
REMARK    6  A    between atoms: CA_5  and  N_8
REMARK    7  A    between atoms: C_6  and  O_7
REMARK    8  A    between atoms: C_9  and  C_11
REMARK    9  A    between atoms: C_13  and  O_14
REMARK   10  A    between atoms: C_13  and  C_15
REMARK   11  A    between atoms: C_15  and  O_16
REMARK   12  A    between atoms: C_17  and  O_18
REMARK   13  A    between atoms: C_19  and  O_20
REMARK                            x       y       z     vdW  Elec       q    Type
REMARK                         _______ _______ _______ _____ _____    ______ ____
ROOT
ATOM      1  C   UNL     1       5.294   5.560  17.919  0.00  0.00    +0.000 C 
ATOM      2  O   UNL     1       6.090   6.502  18.666  0.00  0.00    +0.000 OA
ATOM      3  C   UNL     1       7.383   6.588  18.052  0.00  0.00    +0.000 C 
ATOM      4  C   UNL     1       7.506   5.411  17.076  0.00  0.00    +0.000 C 
ATOM      5  C   UNL     1       6.068   5.195  16.645  0.00  0.00    +0.000 C 
ENDROOT
BRANCH   1   7
ATOM      6  N   UNL     1       3.556   4.032  18.728  0.00  0.00    +0.000 N 
ATOM      7  C   UNL     1       4.908   4.330  18.771  0.00  0.00    +0.000 C 
ATOM      8  O   UNL     1       5.741   3.621  19.331  0.00  0.00    +0.000 OA
ATOM      9  H   UNL     1       2.946   4.749  18.350  0.00  0.00    +0.000 HD
BRANCH   6  10
ATOM     10  CA  UNL     1       2.965   2.861  19.408  0.00  0.00    +0.000 C 
BRANCH  10  12
ATOM     11  C   UNL     1       1.464   2.540  21.457  0.00  0.00    +0.000 C 
ATOM     12  C   UNL     1       1.557   3.157  20.044  0.00  0.00    +0.000 C 
ATOM     13  C   UNL     1       0.407   2.584  19.193  0.00  0.00    +0.000 C 
ATOM     14  C   UNL     1       1.330   4.675  20.199  0.00  0.00    +0.000 C 
ENDBRANCH  10  12
BRANCH  10  15
ATOM     15  C   UNL     1       2.951   1.662  18.427  0.00  0.00    +0.000 C 
BRANCH  15  16
ATOM     16  O   UNL     1       4.156   0.906  18.518  0.00  0.00    +0.000 OA
ATOM     17  H   UNL     1       4.662   1.087  17.707  0.00  0.00    +0.000 HD
ENDBRANCH  15  16
ENDBRANCH  10  15
ENDBRANCH   6  10
ENDBRANCH   1   7
BRANCH   3  18
ATOM     18  O   UNL     1       8.348   6.446  19.093  0.00  0.00    +0.000 OA
ATOM     19  H   UNL     1       8.949   5.768  18.736  0.00  0.00    +0.000 HD
ENDBRANCH   3  18
BRANCH   4  20
ATOM     20  O   UNL     1       7.974   4.246  17.770  0.00  0.00    +0.000 OA
ATOM     21  H   UNL     1       7.427   4.187  18.581  0.00  0.00    +0.000 HD
ENDBRANCH   4  20
BRANCH   5  22
ATOM     22  O   UNL     1       5.768   6.070  15.547  0.00  0.00    +0.000 OA
ATOM     23  H   UNL     1       5.881   6.999  15.814  0.00  0.00    +0.000 HD
ENDBRANCH   5  22
BRANCH   3  24
ATOM     24  C   UNL     1       7.578   7.963  17.372  0.00  0.00    +0.000 C 
BRANCH  24  25
ATOM     25  O   UNL     1       8.352   8.838  18.202  0.00  0.00    +0.000 OA
ATOM     26  H   UNL     1       9.100   8.305  18.539  0.00  0.00    +0.000 HD
ENDBRANCH  24  25
ENDBRANCH   3  24
TORSDOF 10
ENDMDL
MODEL 3
REMARK VINA RESULT:      -6.8      1.720      2.864
REMARK  Name = 
REMARK  13 active torsions:
REMARK  status: ('A' for Active; 'I' for Inactive)
REMARK    1  A    between atoms: C_1  and  C_2
REMARK    2  A    between atoms: C_2  and  C_3
REMARK    3  A    between atoms: C_2  and  C_4
REMARK    4  A    between atoms: C_2  and  CA_5
REMARK    5  A    between atoms: CA_5  and  C_6
REMARK    6  A    between atoms: CA_5  and  N_8
REMARK    7  A    between atoms: C_6  and  O_7
REMARK    8  A    between atoms: C_9  and  C_11
REMARK    9  A    between atoms: C_13  and  O_14
REMARK   10  A    between atoms: C_13  and  C_15
REMARK   11  A    between atoms: C_15  and  O_16
REMARK   12  A    between atoms: C_17  and  O_18
REMARK   13  A    between atoms: C_19  and  O_20
REMARK                            x       y       z     vdW  Elec       q    Type
REMARK                         _______ _______ _______ _____ _____    ______ ____
ROOT
ATOM      1  C   UNL     1       6.012   4.104  17.696  0.00  0.00    +0.000 C 
ATOM      2  O   UNL     1       5.458   4.349  16.387  0.00  0.00    +0.000 OA
ATOM      3  C   UNL     1       6.254   5.352  15.742  0.00  0.00    +0.000 C 
ATOM      4  C   UNL     1       7.146   5.991  16.815  0.00  0.00    +0.000 C 
ATOM      5  C   UNL     1       7.351   4.847  17.789  0.00  0.00    +0.000 C 
ENDROOT
BRANCH   1   7
ATOM      6  N   UNL     1       3.970   3.598  18.954  0.00  0.00    +0.000 N 
ATOM      7  C   UNL     1       5.023   4.486  18.821  0.00  0.00    +0.000 C 
ATOM      8  O   UNL     1       5.224   5.421  19.593  0.00  0.00    +0.000 OA
ATOM      9  H   UNL     1       3.827   2.945  18.190  0.00  0.00    +0.000 HD
BRANCH   6  10
ATOM     10  CA  UNL     1       2.938   3.720  20.005  0.00  0.00    +0.000 C 
BRANCH  10  12
ATOM     11  C   UNL     1       0.682   2.694  19.364  0.00  0.00    +0.000 C 
ATOM     12  C   UNL     1       1.500   4.003  19.433  0.00  0.00    +0.000 C 
ATOM     13  C   UNL     1       1.550   4.612  18.018  0.00  0.00    +0.000 C 
ATOM     14  C   UNL     1       0.724   4.973  20.347  0.00  0.00    +0.000 C 
ENDBRANCH  10  12
BRANCH  10  15
ATOM     15  C   UNL     1       2.996   2.469  20.917  0.00  0.00    +0.000 C 
BRANCH  15  16
ATOM     16  O   UNL     1       2.566   2.776  22.241  0.00  0.00    +0.000 OA
ATOM     17  H   UNL     1       2.115   3.637  22.196  0.00  0.00    +0.000 HD
ENDBRANCH  15  16
ENDBRANCH  10  15
ENDBRANCH   6  10
ENDBRANCH   1   7
BRANCH   3  18
ATOM     18  O   UNL     1       5.352   6.331  15.228  0.00  0.00    +0.000 OA
ATOM     19  H   UNL     1       5.047   6.785  16.034  0.00  0.00    +0.000 HD
ENDBRANCH   3  18
BRANCH   4  20
ATOM     20  O   UNL     1       6.439   7.053  17.471  0.00  0.00    +0.000 OA
ATOM     21  H   UNL     1       5.869   7.453  16.782  0.00  0.00    +0.000 HD
ENDBRANCH   4  20
BRANCH   5  22
ATOM     22  O   UNL     1       8.459   4.047  17.350  0.00  0.00    +0.000 OA
ATOM     23  H   UNL     1       9.127   4.605  16.912  0.00  0.00    +0.000 HD
ENDBRANCH   5  22
BRANCH   3  24
ATOM     24  C   UNL     1       7.057   4.746  14.568  0.00  0.00    +0.000 C 
BRANCH  24  25
ATOM     25  O   UNL     1       8.074   5.653  14.123  0.00  0.00    +0.000 OA
ATOM     26  H   UNL     1       8.132   5.544  13.152  0.00  0.00    +0.000 HD
ENDBRANCH  24  25
ENDBRANCH   3  24
TORSDOF 10
ENDMDL
MODEL 4
REMARK VINA RESULT:      -6.7      1.646      2.878
REMARK  Name = 
REMARK  13 active torsions:
REMARK  status: ('A' for Active; 'I' for Inactive)
REMARK    1  A    between atoms: C_1  and  C_2
REMARK    2  A    between atoms: C_2  and  C_3
REMARK    3  A    between atoms: C_2  and  C_4
REMARK    4  A    between atoms: C_2  and  CA_5
REMARK    5  A    between atoms: CA_5  and  C_6
REMARK    6  A    between atoms: CA_5  and  N_8
REMARK    7  A    between atoms: C_6  and  O_7
REMARK    8  A    between atoms: C_9  and  C_11
REMARK    9  A    between atoms: C_13  and  O_14
REMARK   10  A    between atoms: C_13  and  C_15
REMARK   11  A    between atoms: C_15  and  O_16
REMARK   12  A    between atoms: C_17  and  O_18
REMARK   13  A    between atoms: C_19  and  O_20
REMARK                            x       y       z     vdW  Elec       q    Type
REMARK                         _______ _______ _______ _____ _____    ______ ____
ROOT
ATOM      1  C   UNL     1       5.887   4.217  17.553  0.00  0.00    +0.000 C 
ATOM      2  O   UNL     1       5.240   4.567  16.312  0.00  0.00    +0.000 OA
ATOM      3  C   UNL     1       6.031   5.567  15.657  0.00  0.00    +0.000 C 
ATOM      4  C   UNL     1       7.041   6.098  16.683  0.00  0.00    +0.000 C 
ATOM      5  C   UNL     1       7.267   4.890  17.571  0.00  0.00    +0.000 C 
ENDROOT
BRANCH   1   7
ATOM      6  N   UNL     1       4.142   3.572  19.149  0.00  0.00    +0.000 N 
ATOM      7  C   UNL     1       5.017   4.579  18.778  0.00  0.00    +0.000 C 
ATOM      8  O   UNL     1       5.177   5.611  19.425  0.00  0.00    +0.000 OA
ATOM      9  H   UNL     1       3.998   2.826  18.476  0.00  0.00    +0.000 HD
BRANCH   6  10
ATOM     10  CA  UNL     1       3.260   3.664  20.331  0.00  0.00    +0.000 C 
BRANCH  10  12
ATOM     11  C   UNL     1       1.465   5.485  20.460  0.00  0.00    +0.000 C 
ATOM     12  C   UNL     1       1.779   4.053  19.971  0.00  0.00    +0.000 C 
ATOM     13  C   UNL     1       0.757   3.093  20.612  0.00  0.00    +0.000 C 
ATOM     14  C   UNL     1       1.559   4.040  18.445  0.00  0.00    +0.000 C 
ENDBRANCH  10  12
BRANCH  10  15
ATOM     15  C   UNL     1       3.364   2.347  21.141  0.00  0.00    +0.000 C 
BRANCH  15  16
ATOM     16  O   UNL     1       4.703   1.857  21.159  0.00  0.00    +0.000 OA
ATOM     17  H   UNL     1       4.668   0.936  20.848  0.00  0.00    +0.000 HD
ENDBRANCH  15  16
ENDBRANCH  10  15
ENDBRANCH   6  10
ENDBRANCH   1   7
BRANCH   3  18
ATOM     18  O   UNL     1       5.142   6.617  15.278  0.00  0.00    +0.000 OA
ATOM     19  H   UNL     1       5.603   7.414  15.598  0.00  0.00    +0.000 HD
ENDBRANCH   3  18
BRANCH   4  20
ATOM     20  O   UNL     1       6.448   7.151  17.456  0.00  0.00    +0.000 OA
ATOM     21  H   UNL     1       6.763   7.984  17.048  0.00  0.00    +0.000 HD
ENDBRANCH   4  20
BRANCH   5  22
ATOM     22  O   UNL     1       8.291   4.065  16.994  0.00  0.00    +0.000 OA
ATOM     23  H   UNL     1       8.205   3.148  17.310  0.00  0.00    +0.000 HD
ENDBRANCH   5  22
BRANCH   3  24
ATOM     24  C   UNL     1       6.700   4.995  14.387  0.00  0.00    +0.000 C 
BRANCH  24  25
ATOM     25  O   UNL     1       8.025   5.517  14.228  0.00  0.00    +0.000 OA
ATOM     26  H   UNL     1       8.611   4.744  14.101  0.00  0.00    +0.000 HD
ENDBRANCH  24  25
ENDBRANCH   3  24
TORSDOF 10
ENDMDL
MODEL 5
REMARK VINA RESULT:      -6.7      1.150      1.620
REMARK  Name = 
REMARK  13 active torsions:
REMARK  status: ('A' for Active; 'I' for Inactive)
REMARK    1  A    between atoms: C_1  and  C_2
REMARK    2  A    between atoms: C_2  and  C_3
REMARK    3  A    between atoms: C_2  and  C_4
REMARK    4  A    between atoms: C_2  and  CA_5
REMARK    5  A    between atoms: CA_5  and  C_6
REMARK    6  A    between atoms: CA_5  and  N_8
REMARK    7  A    between atoms: C_6  and  O_7
REMARK    8  A    between atoms: C_9  and  C_11
REMARK    9  A    between atoms: C_13  and  O_14
REMARK   10  A    between atoms: C_13  and  C_15
REMARK   11  A    between atoms: C_15  and  O_16
REMARK   12  A    between atoms: C_17  and  O_18
REMARK   13  A    between atoms: C_19  and  O_20
REMARK                            x       y       z     vdW  Elec       q    Type
REMARK                         _______ _______ _______ _____ _____    ______ ____
ROOT
ATOM      1  C   UNL     1       4.610   5.666  17.529  0.00  0.00    +0.000 C 
ATOM      2  O   UNL     1       5.689   5.833  18.470  0.00  0.00    +0.000 OA
ATOM      3  C   UNL     1       6.930   5.721  17.759  0.00  0.00    +0.000 C 
ATOM      4  C   UNL     1       6.614   5.137  16.376  0.00  0.00    +0.000 C 
ATOM      5  C   UNL     1       5.212   5.655  16.117  0.00  0.00    +0.000 C 
ENDROOT
BRANCH   1   7
ATOM      6  N   UNL     1       3.938   3.933  19.128  0.00  0.00    +0.000 N 
ATOM      7  C   UNL     1       3.764   4.410  17.840  0.00  0.00    +0.000 C 
ATOM      8  O   UNL     1       2.933   3.958  17.056  0.00  0.00    +0.000 OA
ATOM      9  H   UNL     1       4.736   4.294  19.641  0.00  0.00    +0.000 HD
BRANCH   6  10
ATOM     10  CA  UNL     1       3.184   2.786  19.673  0.00  0.00    +0.000 C 
BRANCH  10  12
ATOM     11  C   UNL     1       1.570   2.542  21.646  0.00  0.00    +0.000 C 
ATOM     12  C   UNL     1       1.779   3.187  20.257  0.00  0.00    +0.000 C 
ATOM     13  C   UNL     1       0.624   2.738  19.342  0.00  0.00    +0.000 C 
ATOM     14  C   UNL     1       1.676   4.714  20.449  0.00  0.00    +0.000 C 
ENDBRANCH  10  12
BRANCH  10  15
ATOM     15  C   UNL     1       3.101   1.678  18.593  0.00  0.00    +0.000 C 
BRANCH  15  16
ATOM     16  O   UNL     1       4.285   0.883  18.578  0.00  0.00    +0.000 OA
ATOM     17  H   UNL     1       4.424   0.572  19.489  0.00  0.00    +0.000 HD
ENDBRANCH  15  16
ENDBRANCH  10  15
ENDBRANCH   6  10
ENDBRANCH   1   7
BRANCH   3  18
ATOM     18  O   UNL     1       7.744   4.804  18.488  0.00  0.00    +0.000 OA
ATOM     19  H   UNL     1       8.125   4.249  17.783  0.00  0.00    +0.000 HD
ENDBRANCH   3  18
BRANCH   4  20
ATOM     20  O   UNL     1       6.586   3.704  16.443  0.00  0.00    +0.000 OA
ATOM     21  H   UNL     1       6.428   3.490  17.387  0.00  0.00    +0.000 HD
ENDBRANCH   4  20
BRANCH   5  22
ATOM     22  O   UNL     1       5.293   6.967  15.541  0.00  0.00    +0.000 OA
ATOM     23  H   UNL     1       5.527   7.622  16.222  0.00  0.00    +0.000 HD
ENDBRANCH   5  22
BRANCH   3  24
ATOM     24  C   UNL     1       7.650   7.087  17.691  0.00  0.00    +0.000 C 
BRANCH  24  25
ATOM     25  O   UNL     1       8.451   7.301  18.860  0.00  0.00    +0.000 OA
ATOM     26  H   UNL     1       9.361   7.035  18.620  0.00  0.00    +0.000 HD
ENDBRANCH  24  25
ENDBRANCH   3  24
TORSDOF 10
ENDMDL
MODEL 6
REMARK VINA RESULT:      -6.6      0.643      1.160
REMARK  Name = 
REMARK  13 active torsions:
REMARK  status: ('A' for Active; 'I' for Inactive)
REMARK    1  A    between atoms: C_1  and  C_2
REMARK    2  A    between atoms: C_2  and  C_3
REMARK    3  A    between atoms: C_2  and  C_4
REMARK    4  A    between atoms: C_2  and  CA_5
REMARK    5  A    between atoms: CA_5  and  C_6
REMARK    6  A    between atoms: CA_5  and  N_8
REMARK    7  A    between atoms: C_6  and  O_7
REMARK    8  A    between atoms: C_9  and  C_11
REMARK    9  A    between atoms: C_13  and  O_14
REMARK   10  A    between atoms: C_13  and  C_15
REMARK   11  A    between atoms: C_15  and  O_16
REMARK   12  A    between atoms: C_17  and  O_18
REMARK   13  A    between atoms: C_19  and  O_20
REMARK                            x       y       z     vdW  Elec       q    Type
REMARK                         _______ _______ _______ _____ _____    ______ ____
ROOT
ATOM      1  C   UNL     1       5.316   5.519  17.946  0.00  0.00    +0.000 C 
ATOM      2  O   UNL     1       6.124   6.438  18.710  0.00  0.00    +0.000 OA
ATOM      3  C   UNL     1       7.439   6.463  18.139  0.00  0.00    +0.000 C 
ATOM      4  C   UNL     1       7.547   5.269  17.182  0.00  0.00    +0.000 C 
ATOM      5  C   UNL     1       6.117   5.106  16.705  0.00  0.00    +0.000 C 
ENDROOT
BRANCH   1   7
ATOM      6  N   UNL     1       3.483   4.100  18.745  0.00  0.00    +0.000 N 
ATOM      7  C   UNL     1       4.849   4.318  18.799  0.00  0.00    +0.000 C 
ATOM      8  O   UNL     1       5.634   3.563  19.369  0.00  0.00    +0.000 OA
ATOM      9  H   UNL     1       2.919   4.851  18.359  0.00  0.00    +0.000 HD
BRANCH   6  10
ATOM     10  CA  UNL     1       2.818   2.969  19.424  0.00  0.00    +0.000 C 
BRANCH  10  12
ATOM     11  C   UNL     1       1.795   4.936  20.704  0.00  0.00    +0.000 C 
ATOM     12  C   UNL     1       1.688   3.421  20.421  0.00  0.00    +0.000 C 
ATOM     13  C   UNL     1       1.773   2.675  21.767  0.00  0.00    +0.000 C 
ATOM     14  C   UNL     1       0.290   3.171  19.820  0.00  0.00    +0.000 C 
ENDBRANCH  10  12
BRANCH  10  15
ATOM     15  C   UNL     1       2.321   1.962  18.356  0.00  0.00    +0.000 C 
BRANCH  15  16
ATOM     16  O   UNL     1       2.272   2.562  17.064  0.00  0.00    +0.000 OA
ATOM     17  H   UNL     1       2.931   3.278  17.063  0.00  0.00    +0.000 HD
ENDBRANCH  15  16
ENDBRANCH  10  15
ENDBRANCH   6  10
ENDBRANCH   1   7
BRANCH   3  18
ATOM     18  O   UNL     1       8.362   6.295  19.215  0.00  0.00    +0.000 OA
ATOM     19  H   UNL     1       8.194   7.082  19.765  0.00  0.00    +0.000 HD
ENDBRANCH   3  18
BRANCH   4  20
ATOM     20  O   UNL     1       7.942   4.094  17.906  0.00  0.00    +0.000 OA
ATOM     21  H   UNL     1       8.059   4.386  18.834  0.00  0.00    +0.000 HD
ENDBRANCH   4  20
BRANCH   5  22
ATOM     22  O   UNL     1       5.891   5.977  15.586  0.00  0.00    +0.000 OA
ATOM     23  H   UNL     1       5.445   5.496  14.867  0.00  0.00    +0.000 HD
ENDBRANCH   5  22
BRANCH   3  24
ATOM     24  C   UNL     1       7.715   7.819  17.450  0.00  0.00    +0.000 C 
BRANCH  24  25
ATOM     25  O   UNL     1       8.419   8.705  18.329  0.00  0.00    +0.000 OA
ATOM     26  H   UNL     1       8.394   8.289  19.215  0.00  0.00    +0.000 HD
ENDBRANCH  24  25
ENDBRANCH   3  24
TORSDOF 10
ENDMDL
MODEL 7
REMARK VINA RESULT:      -6.5      1.792      3.228
REMARK  Name = 
REMARK  13 active torsions:
REMARK  status: ('A' for Active; 'I' for Inactive)
REMARK    1  A    between atoms: C_1  and  C_2
REMARK    2  A    between atoms: C_2  and  C_3
REMARK    3  A    between atoms: C_2  and  C_4
REMARK    4  A    between atoms: C_2  and  CA_5
REMARK    5  A    between atoms: CA_5  and  C_6
REMARK    6  A    between atoms: CA_5  and  N_8
REMARK    7  A    between atoms: C_6  and  O_7
REMARK    8  A    between atoms: C_9  and  C_11
REMARK    9  A    between atoms: C_13  and  O_14
REMARK   10  A    between atoms: C_13  and  C_15
REMARK   11  A    between atoms: C_15  and  O_16
REMARK   12  A    between atoms: C_17  and  O_18
REMARK   13  A    between atoms: C_19  and  O_20
REMARK                            x       y       z     vdW  Elec       q    Type
REMARK                         _______ _______ _______ _____ _____    ______ ____
ROOT
ATOM      1  C   UNL     1       6.800   5.039  17.623  0.00  0.00    +0.000 C 
ATOM      2  O   UNL     1       6.441   4.099  16.589  0.00  0.00    +0.000 OA
ATOM      3  C   UNL     1       5.903   4.832  15.481  0.00  0.00    +0.000 C 
ATOM      4  C   UNL     1       5.615   6.258  15.969  0.00  0.00    +0.000 C 
ATOM      5  C   UNL     1       6.670   6.453  17.041  0.00  0.00    +0.000 C 
ENDROOT
BRANCH   1   7
ATOM      6  N   UNL     1       4.742   4.224  18.678  0.00  0.00    +0.000 N 
ATOM      7  C   UNL     1       5.966   4.830  18.907  0.00  0.00    +0.000 C 
ATOM      8  O   UNL     1       6.403   5.070  20.030  0.00  0.00    +0.000 OA
ATOM      9  H   UNL     1       4.427   4.191  17.713  0.00  0.00    +0.000 HD
BRANCH   6  10
ATOM     10  CA  UNL     1       3.804   3.862  19.760  0.00  0.00    +0.000 C 
BRANCH  10  12
ATOM     11  C   UNL     1       1.393   3.908  20.620  0.00  0.00    +0.000 C 
ATOM     12  C   UNL     1       2.375   4.495  19.581  0.00  0.00    +0.000 C 
ATOM     13  C   UNL     1       1.799   4.233  18.176  0.00  0.00    +0.000 C 
ATOM     14  C   UNL     1       2.414   6.020  19.808  0.00  0.00    +0.000 C 
ENDBRANCH  10  12
BRANCH  10  15
ATOM     15  C   UNL     1       3.774   2.320  19.906  0.00  0.00    +0.000 C 
BRANCH  15  16
ATOM     16  O   UNL     1       5.083   1.796  20.116  0.00  0.00    +0.000 OA
ATOM     17  H   UNL     1       5.309   1.973  21.045  0.00  0.00    +0.000 HD
ENDBRANCH  15  16
ENDBRANCH  10  15
ENDBRANCH   6  10
ENDBRANCH   1   7
BRANCH   3  18
ATOM     18  O   UNL     1       4.678   4.197  15.117  0.00  0.00    +0.000 OA
ATOM     19  H   UNL     1       4.584   3.508  15.800  0.00  0.00    +0.000 HD
ENDBRANCH   3  18
BRANCH   4  20
ATOM     20  O   UNL     1       4.313   6.317  16.569  0.00  0.00    +0.000 OA
ATOM     21  H   UNL     1       4.390   5.822  17.411  0.00  0.00    +0.000 HD
ENDBRANCH   4  20
BRANCH   5  22
ATOM     22  O   UNL     1       7.885   6.912  16.428  0.00  0.00    +0.000 OA
ATOM     23  H   UNL     1       8.434   7.384  17.079  0.00  0.00    +0.000 HD
ENDBRANCH   5  22
BRANCH   3  24
ATOM     24  C   UNL     1       6.867   4.788  14.273  0.00  0.00    +0.000 C 
BRANCH  24  25
ATOM     25  O   UNL     1       6.604   3.644  13.451  0.00  0.00    +0.000 OA
ATOM     26  H   UNL     1       6.999   3.838  12.577  0.00  0.00    +0.000 HD
ENDBRANCH  24  25
ENDBRANCH   3  24
TORSDOF 10
ENDMDL
MODEL 8
REMARK VINA RESULT:      -6.5      1.853      2.728
REMARK  Name = 
REMARK  13 active torsions:
REMARK  status: ('A' for Active; 'I' for Inactive)
REMARK    1  A    between atoms: C_1  and  C_2
REMARK    2  A    between atoms: C_2  and  C_3
REMARK    3  A    between atoms: C_2  and  C_4
REMARK    4  A    between atoms: C_2  and  CA_5
REMARK    5  A    between atoms: CA_5  and  C_6
REMARK    6  A    between atoms: CA_5  and  N_8
REMARK    7  A    between atoms: C_6  and  O_7
REMARK    8  A    between atoms: C_9  and  C_11
REMARK    9  A    between atoms: C_13  and  O_14
REMARK   10  A    between atoms: C_13  and  C_15
REMARK   11  A    between atoms: C_15  and  O_16
REMARK   12  A    between atoms: C_17  and  O_18
REMARK   13  A    between atoms: C_19  and  O_20
REMARK                            x       y       z     vdW  Elec       q    Type
REMARK                         _______ _______ _______ _____ _____    ______ ____
ROOT
ATOM      1  C   UNL     1       6.056   5.444  17.479  0.00  0.00    +0.000 C 
ATOM      2  O   UNL     1       6.849   4.476  16.762  0.00  0.00    +0.000 OA
ATOM      3  C   UNL     1       6.159   4.134  15.552  0.00  0.00    +0.000 C 
ATOM      4  C   UNL     1       4.726   4.667  15.676  0.00  0.00    +0.000 C 
ATOM      5  C   UNL     1       4.907   5.884  16.562  0.00  0.00    +0.000 C 
ENDROOT
BRANCH   1   7
ATOM      6  N   UNL     1       4.282   4.400  18.811  0.00  0.00    +0.000 N 
ATOM      7  C   UNL     1       5.574   4.897  18.842  0.00  0.00    +0.000 C 
ATOM      8  O   UNL     1       6.312   4.807  19.820  0.00  0.00    +0.000 OA
ATOM      9  H   UNL     1       3.722   4.643  18.000  0.00  0.00    +0.000 HD
BRANCH   6  10
ATOM     10  CA  UNL     1       3.633   3.765  19.976  0.00  0.00    +0.000 C 
BRANCH  10  12
ATOM     11  C   UNL     1       1.377   3.892  18.772  0.00  0.00    +0.000 C 
ATOM     12  C   UNL     1       2.108   4.129  20.113  0.00  0.00    +0.000 C 
ATOM     13  C   UNL     1       1.899   5.600  20.519  0.00  0.00    +0.000 C 
ATOM     14  C   UNL     1       1.420   3.236  21.165  0.00  0.00    +0.000 C 
ENDBRANCH  10  12
BRANCH  10  15
ATOM     15  C   UNL     1       3.893   2.238  19.928  0.00  0.00    +0.000 C 
BRANCH  15  16
ATOM     16  O   UNL     1       5.225   1.929  20.333  0.00  0.00    +0.000 OA
ATOM     17  H   UNL     1       5.215   1.868  21.304  0.00  0.00    +0.000 HD
ENDBRANCH  15  16
ENDBRANCH  10  15
ENDBRANCH   6  10
ENDBRANCH   1   7
BRANCH   3  18
ATOM     18  O   UNL     1       6.133   2.710  15.477  0.00  0.00    +0.000 OA
ATOM     19  H   UNL     1       5.689   2.460  16.307  0.00  0.00    +0.000 HD
ENDBRANCH   3  18
BRANCH   4  20
ATOM     20  O   UNL     1       3.903   3.705  16.352  0.00  0.00    +0.000 OA
ATOM     21  H   UNL     1       4.138   3.780  17.300  0.00  0.00    +0.000 HD
ENDBRANCH   4  20
BRANCH   5  22
ATOM     22  O   UNL     1       5.252   7.014  15.747  0.00  0.00    +0.000 OA
ATOM     23  H   UNL     1       4.726   7.013  14.928  0.00  0.00    +0.000 HD
ENDBRANCH   5  22
BRANCH   3  24
ATOM     24  C   UNL     1       6.907   4.688  14.318  0.00  0.00    +0.000 C 
BRANCH  24  25
ATOM     25  O   UNL     1       7.875   5.671  14.705  0.00  0.00    +0.000 OA
ATOM     26  H   UNL     1       7.368   6.424  15.073  0.00  0.00    +0.000 HD
ENDBRANCH  24  25
ENDBRANCH   3  24
TORSDOF 10
ENDMDL
MODEL 9
REMARK VINA RESULT:      -6.5      1.812      2.867
REMARK  Name = 
REMARK  13 active torsions:
REMARK  status: ('A' for Active; 'I' for Inactive)
REMARK    1  A    between atoms: C_1  and  C_2
REMARK    2  A    between atoms: C_2  and  C_3
REMARK    3  A    between atoms: C_2  and  C_4
REMARK    4  A    between atoms: C_2  and  CA_5
REMARK    5  A    between atoms: CA_5  and  C_6
REMARK    6  A    between atoms: CA_5  and  N_8
REMARK    7  A    between atoms: C_6  and  O_7
REMARK    8  A    between atoms: C_9  and  C_11
REMARK    9  A    between atoms: C_13  and  O_14
REMARK   10  A    between atoms: C_13  and  C_15
REMARK   11  A    between atoms: C_15  and  O_16
REMARK   12  A    between atoms: C_17  and  O_18
REMARK   13  A    between atoms: C_19  and  O_20
REMARK                            x       y       z     vdW  Elec       q    Type
REMARK                         _______ _______ _______ _____ _____    ______ ____
ROOT
ATOM      1  C   UNL     1       6.051   5.544  17.483  0.00  0.00    +0.000 C 
ATOM      2  O   UNL     1       6.863   4.567  16.800  0.00  0.00    +0.000 OA
ATOM      3  C   UNL     1       6.175   4.161  15.610  0.00  0.00    +0.000 C 
ATOM      4  C   UNL     1       4.730   4.664  15.722  0.00  0.00    +0.000 C 
ATOM      5  C   UNL     1       4.886   5.919  16.557  0.00  0.00    +0.000 C 
ENDROOT
BRANCH   1   7
ATOM      6  N   UNL     1       4.300   4.539  18.874  0.00  0.00    +0.000 N 
ATOM      7  C   UNL     1       5.590   5.042  18.870  0.00  0.00    +0.000 C 
ATOM      8  O   UNL     1       6.341   4.989  19.841  0.00  0.00    +0.000 OA
ATOM      9  H   UNL     1       3.729   4.751  18.062  0.00  0.00    +0.000 HD
BRANCH   6  10
ATOM     10  CA  UNL     1       3.670   3.940  20.068  0.00  0.00    +0.000 C 
BRANCH  10  12
ATOM     11  C   UNL     1       1.829   5.643  20.586  0.00  0.00    +0.000 C 
ATOM     12  C   UNL     1       2.119   4.191  20.143  0.00  0.00    +0.000 C 
ATOM     13  C   UNL     1       1.427   3.238  21.138  0.00  0.00    +0.000 C 
ATOM     14  C   UNL     1       1.462   4.002  18.760  0.00  0.00    +0.000 C 
ENDBRANCH  10  12
BRANCH  10  15
ATOM     15  C   UNL     1       4.049   2.440  20.140  0.00  0.00    +0.000 C 
BRANCH  15  16
ATOM     16  O   UNL     1       4.261   1.898  18.838  0.00  0.00    +0.000 OA
ATOM     17  H   UNL     1       3.838   2.508  18.210  0.00  0.00    +0.000 HD
ENDBRANCH  15  16
ENDBRANCH  10  15
ENDBRANCH   6  10
ENDBRANCH   1   7
BRANCH   3  18
ATOM     18  O   UNL     1       6.183   2.734  15.592  0.00  0.00    +0.000 OA
ATOM     19  H   UNL     1       5.311   2.511  15.966  0.00  0.00    +0.000 HD
ENDBRANCH   3  18
BRANCH   4  20
ATOM     20  O   UNL     1       3.934   3.711  16.442  0.00  0.00    +0.000 OA
ATOM     21  H   UNL     1       4.565   3.212  17.000  0.00  0.00    +0.000 HD
ENDBRANCH   4  20
BRANCH   5  22
ATOM     22  O   UNL     1       5.200   7.023  15.694  0.00  0.00    +0.000 OA
ATOM     23  H   UNL     1       4.730   6.934  14.846  0.00  0.00    +0.000 HD
ENDBRANCH   5  22
BRANCH   3  24
ATOM     24  C   UNL     1       6.902   4.681  14.349  0.00  0.00    +0.000 C 
BRANCH  24  25
ATOM     25  O   UNL     1       7.878   5.672  14.695  0.00  0.00    +0.000 OA
ATOM     26  H   UNL     1       7.606   6.495  14.242  0.00  0.00    +0.000 HD
ENDBRANCH  24  25
ENDBRANCH   3  24
TORSDOF 10
ENDMDL
