MODEL 1
REMARK VINA RESULT:      -7.6      0.000      0.000
REMARK  Name = 
REMARK  7 active torsions:
REMARK  status: ('A' for Active; 'I' for Inactive)
REMARK    1  A    between atoms: C_1  and  C_2
REMARK    2  A    between atoms: C_2  and  C_3
REMARK    3  A    between atoms: C_3  and  C_4
REMARK    4  A    between atoms: C_4  and  N_5
REMARK    5  A    between atoms: C_8  and  C_9
REMARK    6  A    between atoms: C_9  and  N_10
REMARK    7  A    between atoms: C_11  and  C_13
REMARK                            x       y       z     vdW  Elec       q    Type
REMARK                         _______ _______ _______ _____ _____    ______ ____
ROOT
ATOM      1  N   UNL     1       1.844   7.315  20.633  0.00  0.00    +0.000 N 
ATOM      2  C   UNL     1       2.247   7.326  19.312  0.00  0.00    +0.000 C 
ATOM      3  O   UNL     1       2.178   8.334  18.614  0.00  0.00    +0.000 OA
ATOM      4  H   UNL     1       2.061   6.484  21.176  0.00  0.00    +0.000 HD
ENDROOT
BRANCH   2   5
ATOM      5  C   UNL     1       2.767   6.058  18.807  0.00  0.00    +0.000 A 
ATOM      6  C   UNL     1       2.425   4.789  19.222  0.00  0.00    +0.000 A 
ATOM      7  N   UNL     1       3.147   3.893  18.507  0.00  0.00    +0.000 N 
ATOM      8  C   UNL     1       3.948   4.470  17.588  0.00  0.00    +0.000 A 
ATOM      9  C   UNL     1       4.827   3.926  16.644  0.00  0.00    +0.000 A 
ATOM     10  C   UNL     1       5.524   4.816  15.823  0.00  0.00    +0.000 A 
ATOM     11  C   UNL     1       5.349   6.192  15.946  0.00  0.00    +0.000 A 
ATOM     12  C   UNL     1       4.466   6.721  16.897  0.00  0.00    +0.000 A 
ATOM     13  C   UNL     1       3.740   5.853  17.743  0.00  0.00    +0.000 A 
ATOM     14  C   UNL     1       2.884   2.543  18.938  0.00  0.00    +0.000 C 
ATOM     15  C   UNL     1       1.662   2.785  19.829  0.00  0.00    +0.000 C 
ATOM     16  O   UNL     1       1.614   4.217  20.108  0.00  0.00    +0.000 OA
ENDBRANCH   2   5
BRANCH   1  17
ATOM     17  C   UNL     1       1.399   8.514  21.318  0.00  0.00    +0.000 C 
BRANCH  17  21
ATOM     18  N   UNL     1      -0.797  11.520  21.915  0.00  0.00    +0.000 NA
ATOM     19  C   UNL     1      -0.178  11.164  20.628  0.00  0.00    +0.000 C 
ATOM     20  C   UNL     1      -0.548   9.742  20.210  0.00  0.00    +0.000 C 
ATOM     21  C   UNL     1      -0.127   8.705  21.255  0.00  0.00    +0.000 C 
ATOM     22  C   UNL     1      -0.703   9.130  22.615  0.00  0.00    +0.000 C 
ATOM     23  C   UNL     1      -0.376  10.588  22.975  0.00  0.00    +0.000 C 
BRANCH  18  24
ATOM     24  C   UNL     1      -0.491  12.911  22.309  0.00  0.00    +0.000 C 
BRANCH  24  25
ATOM     25  C   UNL     1      -1.510  13.480  23.310  0.00  0.00    +0.000 C 
BRANCH  25  27
ATOM     26  C   UNL     1      -3.652  12.371  23.987  0.00  0.00    +0.000 C 
ATOM     27  C   UNL     1      -2.955  13.189  22.907  0.00  0.00    +0.000 C 
ENDBRANCH  25  27
ENDBRANCH  24  25
ENDBRANCH  18  24
ENDBRANCH  17  21
ENDBRANCH   1  17
TORSDOF 6
ENDMDL
MODEL 2
REMARK VINA RESULT:      -7.5      1.085      2.737
REMARK  Name = 
REMARK  7 active torsions:
REMARK  status: ('A' for Active; 'I' for Inactive)
REMARK    1  A    between atoms: C_1  and  C_2
REMARK    2  A    between atoms: C_2  and  C_3
REMARK    3  A    between atoms: C_3  and  C_4
REMARK    4  A    between atoms: C_4  and  N_5
REMARK    5  A    between atoms: C_8  and  C_9
REMARK    6  A    between atoms: C_9  and  N_10
REMARK    7  A    between atoms: C_11  and  C_13
REMARK                            x       y       z     vdW  Elec       q    Type
REMARK                         _______ _______ _______ _____ _____    ______ ____
ROOT
ATOM      1  N   UNL     1       1.954   7.386  20.386  0.00  0.00    +0.000 N 
ATOM      2  C   UNL     1       2.251   7.431  19.037  0.00  0.00    +0.000 C 
ATOM      3  O   UNL     1       2.051   8.431  18.354  0.00  0.00    +0.000 OA
ATOM      4  H   UNL     1       2.276   6.574  20.904  0.00  0.00    +0.000 HD
ENDROOT
BRANCH   2   5
ATOM      5  C   UNL     1       2.827   6.207  18.485  0.00  0.00    +0.000 A 
ATOM      6  C   UNL     1       3.918   6.098  17.651  0.00  0.00    +0.000 A 
ATOM      7  N   UNL     1       4.110   4.789  17.361  0.00  0.00    +0.000 N 
ATOM      8  C   UNL     1       3.232   3.975  17.981  0.00  0.00    +0.000 A 
ATOM      9  C   UNL     1       3.089   2.582  17.977  0.00  0.00    +0.000 A 
ATOM     10  C   UNL     1       2.055   2.037  18.742  0.00  0.00    +0.000 A 
ATOM     11  C   UNL     1       1.198   2.854  19.475  0.00  0.00    +0.000 A 
ATOM     12  C   UNL     1       1.353   4.247  19.467  0.00  0.00    +0.000 A 
ATOM     13  C   UNL     1       2.391   4.836  18.709  0.00  0.00    +0.000 A 
ATOM     14  C   UNL     1       5.202   4.610  16.437  0.00  0.00    +0.000 C 
ATOM     15  C   UNL     1       5.804   6.018  16.466  0.00  0.00    +0.000 C 
ATOM     16  O   UNL     1       4.803   6.898  17.061  0.00  0.00    +0.000 OA
ENDBRANCH   2   5
BRANCH   1  17
ATOM     17  C   UNL     1       1.472   8.546  21.112  0.00  0.00    +0.000 C 
BRANCH  17  21
ATOM     18  N   UNL     1      -0.874  11.383  21.926  0.00  0.00    +0.000 NA
ATOM     19  C   UNL     1      -0.303  11.110  20.597  0.00  0.00    +0.000 C 
ATOM     20  C   UNL     1      -0.604   9.681  20.148  0.00  0.00    +0.000 C 
ATOM     21  C   UNL     1      -0.064   8.640  21.133  0.00  0.00    +0.000 C 
ATOM     22  C   UNL     1      -0.593   8.983  22.535  0.00  0.00    +0.000 C 
ATOM     23  C   UNL     1      -0.340  10.446  22.929  0.00  0.00    +0.000 C 
BRANCH  18  24
ATOM     24  C   UNL     1      -0.635  12.778  22.353  0.00  0.00    +0.000 C 
BRANCH  24  25
ATOM     25  C   UNL     1      -1.693  13.280  23.350  0.00  0.00    +0.000 C 
BRANCH  25  27
ATOM     26  C   UNL     1      -3.872  12.438  24.256  0.00  0.00    +0.000 C 
ATOM     27  C   UNL     1      -3.104  12.813  22.995  0.00  0.00    +0.000 C 
ENDBRANCH  25  27
ENDBRANCH  24  25
ENDBRANCH  18  24
ENDBRANCH  17  21
ENDBRANCH   1  17
TORSDOF 6
ENDMDL
MODEL 3
REMARK VINA RESULT:      -7.4      1.476      2.074
REMARK  Name = 
REMARK  7 active torsions:
REMARK  status: ('A' for Active; 'I' for Inactive)
REMARK    1  A    between atoms: C_1  and  C_2
REMARK    2  A    between atoms: C_2  and  C_3
REMARK    3  A    between atoms: C_3  and  C_4
REMARK    4  A    between atoms: C_4  and  N_5
REMARK    5  A    between atoms: C_8  and  C_9
REMARK    6  A    between atoms: C_9  and  N_10
REMARK    7  A    between atoms: C_11  and  C_13
REMARK                            x       y       z     vdW  Elec       q    Type
REMARK                         _______ _______ _______ _____ _____    ______ ____
ROOT
ATOM      1  N   UNL     1       2.031   7.866  18.751  0.00  0.00    +0.000 N 
ATOM      2  C   UNL     1       2.231   6.695  19.456  0.00  0.00    +0.000 C 
ATOM      3  O   UNL     1       1.981   6.600  20.655  0.00  0.00    +0.000 OA
ATOM      4  H   UNL     1       2.131   7.821  17.741  0.00  0.00    +0.000 HD
ENDROOT
BRANCH   2   5
ATOM      5  C   UNL     1       2.753   5.577  18.674  0.00  0.00    +0.000 A 
ATOM      6  C   UNL     1       2.375   4.255  18.748  0.00  0.00    +0.000 A 
ATOM      7  N   UNL     1       3.114   3.545  17.863  0.00  0.00    +0.000 N 
ATOM      8  C   UNL     1       3.964   4.310  17.148  0.00  0.00    +0.000 A 
ATOM      9  C   UNL     1       4.876   3.992  16.134  0.00  0.00    +0.000 A 
ATOM     10  C   UNL     1       5.623   5.039  15.587  0.00  0.00    +0.000 A 
ATOM     11  C   UNL     1       5.464   6.346  16.040  0.00  0.00    +0.000 A 
ATOM     12  C   UNL     1       4.547   6.647  17.057  0.00  0.00    +0.000 A 
ATOM     13  C   UNL     1       3.771   5.616  17.632  0.00  0.00    +0.000 A 
ATOM     14  C   UNL     1       2.811   2.137  17.935  0.00  0.00    +0.000 C 
ATOM     15  C   UNL     1       1.554   2.184  18.809  0.00  0.00    +0.000 C 
ATOM     16  O   UNL     1       1.516   3.503  19.432  0.00  0.00    +0.000 OA
ENDBRANCH   2   5
BRANCH   1  17
ATOM     17  C   UNL     1       1.423   9.038  19.353  0.00  0.00    +0.000 C 
BRANCH  17  21
ATOM     18  N   UNL     1      -0.412  12.317  19.668  0.00  0.00    +0.000 NA
ATOM     19  C   UNL     1       1.040  12.139  19.832  0.00  0.00    +0.000 C 
ATOM     20  C   UNL     1       1.657  11.471  18.605  0.00  0.00    +0.000 C 
ATOM     21  C   UNL     1       1.030  10.105  18.314  0.00  0.00    +0.000 C 
ATOM     22  C   UNL     1      -0.495  10.282  18.232  0.00  0.00    +0.000 C 
ATOM     23  C   UNL     1      -1.078  11.022  19.446  0.00  0.00    +0.000 C 
BRANCH  18  24
ATOM     24  C   UNL     1      -1.017  13.009  20.826  0.00  0.00    +0.000 C 
BRANCH  24  25
ATOM     25  C   UNL     1      -1.887  12.076  21.685  0.00  0.00    +0.000 C 
BRANCH  25  27
ATOM     26  C   UNL     1      -0.782  10.302  23.066  0.00  0.00    +0.000 C 
ATOM     27  C   UNL     1      -1.247  11.753  23.034  0.00  0.00    +0.000 C 
ENDBRANCH  25  27
ENDBRANCH  24  25
ENDBRANCH  18  24
ENDBRANCH  17  21
ENDBRANCH   1  17
TORSDOF 6
ENDMDL
MODEL 4
REMARK VINA RESULT:      -7.3      1.640      3.377
REMARK  Name = 
REMARK  7 active torsions:
REMARK  status: ('A' for Active; 'I' for Inactive)
REMARK    1  A    between atoms: C_1  and  C_2
REMARK    2  A    between atoms: C_2  and  C_3
REMARK    3  A    between atoms: C_3  and  C_4
REMARK    4  A    between atoms: C_4  and  N_5
REMARK    5  A    between atoms: C_8  and  C_9
REMARK    6  A    between atoms: C_9  and  N_10
REMARK    7  A    between atoms: C_11  and  C_13
REMARK                            x       y       z     vdW  Elec       q    Type
REMARK                         _______ _______ _______ _____ _____    ______ ____
ROOT
ATOM      1  N   UNL     1       1.837   8.423  18.906  0.00  0.00    +0.000 N 
ATOM      2  C   UNL     1       2.024   7.236  19.589  0.00  0.00    +0.000 C 
ATOM      3  O   UNL     1       1.715   7.104  20.770  0.00  0.00    +0.000 OA
ATOM      4  H   UNL     1       1.989   8.408  17.902  0.00  0.00    +0.000 HD
ENDROOT
BRANCH   2   5
ATOM      5  C   UNL     1       2.607   6.151  18.805  0.00  0.00    +0.000 A 
ATOM      6  C   UNL     1       3.653   6.231  17.911  0.00  0.00    +0.000 A 
ATOM      7  N   UNL     1       3.871   5.000  17.390  0.00  0.00    +0.000 N 
ATOM      8  C   UNL     1       3.056   4.056  17.903  0.00  0.00    +0.000 A 
ATOM      9  C   UNL     1       2.959   2.680  17.665  0.00  0.00    +0.000 A 
ATOM     10  C   UNL     1       1.987   1.969  18.375  0.00  0.00    +0.000 A 
ATOM     11  C   UNL     1       1.147   2.612  19.280  0.00  0.00    +0.000 A 
ATOM     12  C   UNL     1       1.256   3.992  19.505  0.00  0.00    +0.000 A 
ATOM     13  C   UNL     1       2.230   4.744  18.810  0.00  0.00    +0.000 A 
ATOM     14  C   UNL     1       4.914   5.028  16.396  0.00  0.00    +0.000 C 
ATOM     15  C   UNL     1       5.471   6.434  16.639  0.00  0.00    +0.000 C 
ATOM     16  O   UNL     1       4.477   7.157  17.426  0.00  0.00    +0.000 OA
ENDBRANCH   2   5
BRANCH   1  17
ATOM     17  C   UNL     1       1.177   9.567  19.507  0.00  0.00    +0.000 C 
BRANCH  17  21
ATOM     18  N   UNL     1      -0.890  12.707  19.794  0.00  0.00    +0.000 NA
ATOM     19  C   UNL     1       0.561  12.623  20.027  0.00  0.00    +0.000 C 
ATOM     20  C   UNL     1       1.281  12.026  18.820  0.00  0.00    +0.000 C 
ATOM     21  C   UNL     1       0.763  10.628  18.471  0.00  0.00    +0.000 C 
ATOM     22  C   UNL     1      -0.764  10.704  18.316  0.00  0.00    +0.000 C 
ATOM     23  C   UNL     1      -1.454  11.376  19.513  0.00  0.00    +0.000 C 
BRANCH  18  24
ATOM     24  C   UNL     1      -1.596  13.331  20.933  0.00  0.00    +0.000 C 
BRANCH  24  25
ATOM     25  C   UNL     1      -2.256  12.295  21.859  0.00  0.00    +0.000 C 
BRANCH  25  27
ATOM     26  C   UNL     1      -0.944  10.541  23.075  0.00  0.00    +0.000 C 
ATOM     27  C   UNL     1      -1.410  11.991  23.095  0.00  0.00    +0.000 C 
ENDBRANCH  25  27
ENDBRANCH  24  25
ENDBRANCH  18  24
ENDBRANCH  17  21
ENDBRANCH   1  17
TORSDOF 6
ENDMDL
MODEL 5
REMARK VINA RESULT:      -7.3      2.412      4.390
REMARK  Name = 
REMARK  7 active torsions:
REMARK  status: ('A' for Active; 'I' for Inactive)
REMARK    1  A    between atoms: C_1  and  C_2
REMARK    2  A    between atoms: C_2  and  C_3
REMARK    3  A    between atoms: C_3  and  C_4
REMARK    4  A    between atoms: C_4  and  N_5
REMARK    5  A    between atoms: C_8  and  C_9
REMARK    6  A    between atoms: C_9  and  N_10
REMARK    7  A    between atoms: C_11  and  C_13
REMARK                            x       y       z     vdW  Elec       q    Type
REMARK                         _______ _______ _______ _____ _____    ______ ____
ROOT
ATOM      1  N   UNL     1       1.713   8.233  19.586  0.00  0.00    +0.000 N 
ATOM      2  C   UNL     1       1.860   6.935  20.036  0.00  0.00    +0.000 C 
ATOM      3  O   UNL     1       1.487   6.582  21.152  0.00  0.00    +0.000 OA
ATOM      4  H   UNL     1       1.920   8.409  18.607  0.00  0.00    +0.000 HD
ENDROOT
BRANCH   2   5
ATOM      5  C   UNL     1       2.481   6.012  19.089  0.00  0.00    +0.000 A 
ATOM      6  C   UNL     1       3.485   6.289  18.187  0.00  0.00    +0.000 A 
ATOM      7  N   UNL     1       3.762   5.161  17.490  0.00  0.00    +0.000 N 
ATOM      8  C   UNL     1       3.028   4.100  17.886  0.00  0.00    +0.000 A 
ATOM      9  C   UNL     1       3.010   2.768  17.457  0.00  0.00    +0.000 A 
ATOM     10  C   UNL     1       2.112   1.900  18.085  0.00  0.00    +0.000 A 
ATOM     11  C   UNL     1       1.267   2.351  19.096  0.00  0.00    +0.000 A 
ATOM     12  C   UNL     1       1.297   3.689  19.512  0.00  0.00    +0.000 A 
ATOM     13  C   UNL     1       2.194   4.596  18.904  0.00  0.00    +0.000 A 
ATOM     14  C   UNL     1       4.763   5.399  16.481  0.00  0.00    +0.000 C 
ATOM     15  C   UNL     1       5.238   6.792  16.906  0.00  0.00    +0.000 C 
ATOM     16  O   UNL     1       4.230   7.327  17.816  0.00  0.00    +0.000 OA
ENDBRANCH   2   5
BRANCH   1  17
ATOM     17  C   UNL     1       1.026   9.248  20.360  0.00  0.00    +0.000 C 
BRANCH  17  21
ATOM     18  N   UNL     1      -1.574  11.362  18.630  0.00  0.00    +0.000 NA
ATOM     19  C   UNL     1      -1.312  11.357  20.079  0.00  0.00    +0.000 C 
ATOM     20  C   UNL     1       0.157  11.651  20.377  0.00  0.00    +0.000 C 
ATOM     21  C   UNL     1       1.095  10.642  19.710  0.00  0.00    +0.000 C 
ATOM     22  C   UNL     1       0.757  10.587  18.211  0.00  0.00    +0.000 C 
ATOM     23  C   UNL     1      -0.739  10.363  17.943  0.00  0.00    +0.000 C 
BRANCH  18  24
ATOM     24  C   UNL     1      -3.001  11.130  18.327  0.00  0.00    +0.000 C 
BRANCH  24  25
ATOM     25  C   UNL     1      -3.208  10.090  17.213  0.00  0.00    +0.000 C 
BRANCH  25  27
ATOM     26  C   UNL     1      -2.990  10.134  14.718  0.00  0.00    +0.000 C 
ATOM     27  C   UNL     1      -3.729  10.711  15.918  0.00  0.00    +0.000 C 
ENDBRANCH  25  27
ENDBRANCH  24  25
ENDBRANCH  18  24
ENDBRANCH  17  21
ENDBRANCH   1  17
TORSDOF 6
ENDMDL
MODEL 6
REMARK VINA RESULT:      -7.2      0.970      1.600
REMARK  Name = 
REMARK  7 active torsions:
REMARK  status: ('A' for Active; 'I' for Inactive)
REMARK    1  A    between atoms: C_1  and  C_2
REMARK    2  A    between atoms: C_2  and  C_3
REMARK    3  A    between atoms: C_3  and  C_4
REMARK    4  A    between atoms: C_4  and  N_5
REMARK    5  A    between atoms: C_8  and  C_9
REMARK    6  A    between atoms: C_9  and  N_10
REMARK    7  A    between atoms: C_11  and  C_13
REMARK                            x       y       z     vdW  Elec       q    Type
REMARK                         _______ _______ _______ _____ _____    ______ ____
ROOT
ATOM      1  N   UNL     1       1.830   7.320  20.667  0.00  0.00    +0.000 N 
ATOM      2  C   UNL     1       2.258   7.325  19.353  0.00  0.00    +0.000 C 
ATOM      3  O   UNL     1       2.214   8.332  18.653  0.00  0.00    +0.000 OA
ATOM      4  H   UNL     1       2.028   6.488  21.215  0.00  0.00    +0.000 HD
ENDROOT
BRANCH   2   5
ATOM      5  C   UNL     1       2.772   6.049  18.860  0.00  0.00    +0.000 A 
ATOM      6  C   UNL     1       2.444   4.787  19.304  0.00  0.00    +0.000 A 
ATOM      7  N   UNL     1       3.154   3.881  18.590  0.00  0.00    +0.000 N 
ATOM      8  C   UNL     1       3.934   4.445  17.645  0.00  0.00    +0.000 A 
ATOM      9  C   UNL     1       4.796   3.887  16.693  0.00  0.00    +0.000 A 
ATOM     10  C   UNL     1       5.472   4.765  15.842  0.00  0.00    +0.000 A 
ATOM     11  C   UNL     1       5.295   6.142  15.945  0.00  0.00    +0.000 A 
ATOM     12  C   UNL     1       4.430   6.685  16.905  0.00  0.00    +0.000 A 
ATOM     13  C   UNL     1       3.724   5.829  17.781  0.00  0.00    +0.000 A 
ATOM     14  C   UNL     1       2.905   2.538  19.050  0.00  0.00    +0.000 C 
ATOM     15  C   UNL     1       1.700   2.791  19.961  0.00  0.00    +0.000 C 
ATOM     16  O   UNL     1       1.653   4.228  20.217  0.00  0.00    +0.000 OA
ENDBRANCH   2   5
BRANCH   1  17
ATOM     17  C   UNL     1       1.387   8.525  21.342  0.00  0.00    +0.000 C 
BRANCH  17  21
ATOM     18  N   UNL     1      -0.812  11.543  21.867  0.00  0.00    +0.000 NA
ATOM     19  C   UNL     1      -0.206  11.149  20.585  0.00  0.00    +0.000 C 
ATOM     20  C   UNL     1      -0.576   9.713  20.217  0.00  0.00    +0.000 C 
ATOM     21  C   UNL     1      -0.140   8.711  21.289  0.00  0.00    +0.000 C 
ATOM     22  C   UNL     1      -0.703   9.177  22.642  0.00  0.00    +0.000 C 
ATOM     23  C   UNL     1      -0.377  10.646  22.951  0.00  0.00    +0.000 C 
BRANCH  18  24
ATOM     24  C   UNL     1      -0.506  12.947  22.213  0.00  0.00    +0.000 C 
BRANCH  24  25
ATOM     25  C   UNL     1       0.353  13.646  21.145  0.00  0.00    +0.000 C 
BRANCH  25  27
ATOM     26  C   UNL     1      -0.168  14.867  19.021  0.00  0.00    +0.000 C 
ATOM     27  C   UNL     1      -0.344  14.860  20.534  0.00  0.00    +0.000 C 
ENDBRANCH  25  27
ENDBRANCH  24  25
ENDBRANCH  18  24
ENDBRANCH  17  21
ENDBRANCH   1  17
TORSDOF 6
ENDMDL
MODEL 7
REMARK VINA RESULT:      -7.2      2.512      9.100
REMARK  Name = 
REMARK  7 active torsions:
REMARK  status: ('A' for Active; 'I' for Inactive)
REMARK    1  A    between atoms: C_1  and  C_2
REMARK    2  A    between atoms: C_2  and  C_3
REMARK    3  A    between atoms: C_3  and  C_4
REMARK    4  A    between atoms: C_4  and  N_5
REMARK    5  A    between atoms: C_8  and  C_9
REMARK    6  A    between atoms: C_9  and  N_10
REMARK    7  A    between atoms: C_11  and  C_13
REMARK                            x       y       z     vdW  Elec       q    Type
REMARK                         _______ _______ _______ _____ _____    ______ ____
ROOT
ATOM      1  N   UNL     1       1.530   8.341  18.684  0.00  0.00    +0.000 N 
ATOM      2  C   UNL     1       1.440   9.637  18.212  0.00  0.00    +0.000 C 
ATOM      3  O   UNL     1       2.271  10.114  17.444  0.00  0.00    +0.000 OA
ATOM      4  H   UNL     1       0.733   7.981  19.201  0.00  0.00    +0.000 HD
ENDROOT
BRANCH   2   5
ATOM      5  C   UNL     1       0.284  10.394  18.684  0.00  0.00    +0.000 A 
ATOM      6  C   UNL     1       0.233  11.265  19.752  0.00  0.00    +0.000 A 
ATOM      7  N   UNL     1      -1.029  11.744  19.857  0.00  0.00    +0.000 N 
ATOM      8  C   UNL     1      -1.853  11.283  18.894  0.00  0.00    +0.000 A 
ATOM      9  C   UNL     1      -3.204  11.534  18.624  0.00  0.00    +0.000 A 
ATOM     10  C   UNL     1      -3.775  10.883  17.527  0.00  0.00    +0.000 A 
ATOM     11  C   UNL     1      -3.024  10.015  16.739  0.00  0.00    +0.000 A 
ATOM     12  C   UNL     1      -1.674   9.772  17.024  0.00  0.00    +0.000 A 
ATOM     13  C   UNL     1      -1.059  10.415  18.122  0.00  0.00    +0.000 A 
ATOM     14  C   UNL     1      -1.167  12.614  20.997  0.00  0.00    +0.000 C 
ATOM     15  C   UNL     1       0.308  12.794  21.370  0.00  0.00    +0.000 C 
ATOM     16  O   UNL     1       1.053  11.743  20.684  0.00  0.00    +0.000 OA
ENDBRANCH   2   5
BRANCH   1  17
ATOM     17  C   UNL     1       2.558   7.422  18.234  0.00  0.00    +0.000 C 
BRANCH  17  21
ATOM     18  N   UNL     1       4.356   4.147  17.728  0.00  0.00    +0.000 NA
ATOM     19  C   UNL     1       4.928   5.336  18.381  0.00  0.00    +0.000 C 
ATOM     20  C   UNL     1       4.049   5.808  19.538  0.00  0.00    +0.000 C 
ATOM     21  C   UNL     1       2.625   6.140  19.083  0.00  0.00    +0.000 C 
ATOM     22  C   UNL     1       2.065   4.926  18.324  0.00  0.00    +0.000 C 
ATOM     23  C   UNL     1       3.005   4.429  17.215  0.00  0.00    +0.000 C 
BRANCH  18  24
ATOM     24  C   UNL     1       5.221   3.646  16.640  0.00  0.00    +0.000 C 
BRANCH  24  25
ATOM     25  C   UNL     1       6.544   4.423  16.530  0.00  0.00    +0.000 C 
BRANCH  25  27
ATOM     26  C   UNL     1       5.895   4.147  14.126  0.00  0.00    +0.000 C 
ATOM     27  C   UNL     1       6.956   4.679  15.081  0.00  0.00    +0.000 C 
ENDBRANCH  25  27
ENDBRANCH  24  25
ENDBRANCH  18  24
ENDBRANCH  17  21
ENDBRANCH   1  17
TORSDOF 6
ENDMDL
MODEL 8
REMARK VINA RESULT:      -7.1      1.637      2.465
REMARK  Name = 
REMARK  7 active torsions:
REMARK  status: ('A' for Active; 'I' for Inactive)
REMARK    1  A    between atoms: C_1  and  C_2
REMARK    2  A    between atoms: C_2  and  C_3
REMARK    3  A    between atoms: C_3  and  C_4
REMARK    4  A    between atoms: C_4  and  N_5
REMARK    5  A    between atoms: C_8  and  C_9
REMARK    6  A    between atoms: C_9  and  N_10
REMARK    7  A    between atoms: C_11  and  C_13
REMARK                            x       y       z     vdW  Elec       q    Type
REMARK                         _______ _______ _______ _____ _____    ______ ____
ROOT
ATOM      1  N   UNL     1       1.696   7.662  20.711  0.00  0.00    +0.000 N 
ATOM      2  C   UNL     1       2.153   7.542  19.413  0.00  0.00    +0.000 C 
ATOM      3  O   UNL     1       2.236   8.505  18.655  0.00  0.00    +0.000 OA
ATOM      4  H   UNL     1       1.788   6.847  21.311  0.00  0.00    +0.000 HD
ENDROOT
BRANCH   2   5
ATOM      5  C   UNL     1       2.538   6.192  19.009  0.00  0.00    +0.000 A 
ATOM      6  C   UNL     1       2.055   5.000  19.505  0.00  0.00    +0.000 A 
ATOM      7  N   UNL     1       2.684   3.983  18.870  0.00  0.00    +0.000 N 
ATOM      8  C   UNL     1       3.553   4.402  17.929  0.00  0.00    +0.000 A 
ATOM      9  C   UNL     1       4.380   3.699  17.044  0.00  0.00    +0.000 A 
ATOM     10  C   UNL     1       5.180   4.447  16.176  0.00  0.00    +0.000 A 
ATOM     11  C   UNL     1       5.155   5.839  16.198  0.00  0.00    +0.000 A 
ATOM     12  C   UNL     1       4.323   6.528  17.092  0.00  0.00    +0.000 A 
ATOM     13  C   UNL     1       3.496   5.807  17.982  0.00  0.00    +0.000 A 
ATOM     14  C   UNL     1       2.269   2.703  19.389  0.00  0.00    +0.000 C 
ATOM     15  C   UNL     1       1.069   3.140  20.235  0.00  0.00    +0.000 C 
ATOM     16  O   UNL     1       1.175   4.585  20.413  0.00  0.00    +0.000 OA
ENDBRANCH   2   5
BRANCH   1  17
ATOM     17  C   UNL     1       1.370   8.946  21.302  0.00  0.00    +0.000 C 
BRANCH  17  21
ATOM     18  N   UNL     1      -0.603  12.076  20.577  0.00  0.00    +0.000 NA
ATOM     19  C   UNL     1      -0.175  11.091  19.570  0.00  0.00    +0.000 C 
ATOM     20  C   UNL     1      -0.656   9.687  19.932  0.00  0.00    +0.000 C 
ATOM     21  C   UNL     1      -0.142   9.236  21.302  0.00  0.00    +0.000 C 
ATOM     22  C   UNL     1      -0.514  10.312  22.335  0.00  0.00    +0.000 C 
ATOM     23  C   UNL     1      -0.083  11.724  21.910  0.00  0.00    +0.000 C 
BRANCH  18  24
ATOM     24  C   UNL     1      -0.190  13.449  20.216  0.00  0.00    +0.000 C 
BRANCH  24  25
ATOM     25  C   UNL     1       1.271  13.522  19.741  0.00  0.00    +0.000 C 
BRANCH  25  27
ATOM     26  C   UNL     1       2.931  14.636  18.231  0.00  0.00    +0.000 C 
ATOM     27  C   UNL     1       1.532  14.720  18.830  0.00  0.00    +0.000 C 
ENDBRANCH  25  27
ENDBRANCH  24  25
ENDBRANCH  18  24
ENDBRANCH  17  21
ENDBRANCH   1  17
TORSDOF 6
ENDMDL
MODEL 9
REMARK VINA RESULT:      -7.1      4.241      6.004
REMARK  Name = 
REMARK  7 active torsions:
REMARK  status: ('A' for Active; 'I' for Inactive)
REMARK    1  A    between atoms: C_1  and  C_2
REMARK    2  A    between atoms: C_2  and  C_3
REMARK    3  A    between atoms: C_3  and  C_4
REMARK    4  A    between atoms: C_4  and  N_5
REMARK    5  A    between atoms: C_8  and  C_9
REMARK    6  A    between atoms: C_9  and  N_10
REMARK    7  A    between atoms: C_11  and  C_13
REMARK                            x       y       z     vdW  Elec       q    Type
REMARK                         _______ _______ _______ _____ _____    ______ ____
ROOT
ATOM      1  N   UNL     1       3.579   2.528  18.366  0.00  0.00    +0.000 N 
ATOM      2  C   UNL     1       3.529   3.366  17.268  0.00  0.00    +0.000 C 
ATOM      3  O   UNL     1       2.501   3.531  16.617  0.00  0.00    +0.000 OA
ATOM      4  H   UNL     1       4.425   2.553  18.928  0.00  0.00    +0.000 HD
ENDROOT
BRANCH   2   5
ATOM      5  C   UNL     1       4.780   4.045  16.943  0.00  0.00    +0.000 A 
ATOM      6  C   UNL     1       5.612   4.725  17.806  0.00  0.00    +0.000 A 
ATOM      7  N   UNL     1       6.657   5.217  17.099  0.00  0.00    +0.000 N 
ATOM      8  C   UNL     1       6.618   4.883  15.793  0.00  0.00    +0.000 A 
ATOM      9  C   UNL     1       7.490   5.159  14.733  0.00  0.00    +0.000 A 
ATOM     10  C   UNL     1       7.154   4.657  13.473  0.00  0.00    +0.000 A 
ATOM     11  C   UNL     1       5.992   3.915  13.284  0.00  0.00    +0.000 A 
ATOM     12  C   UNL     1       5.127   3.649  14.355  0.00  0.00    +0.000 A 
ATOM     13  C   UNL     1       5.435   4.136  15.645  0.00  0.00    +0.000 A 
ATOM     14  C   UNL     1       7.536   5.997  17.934  0.00  0.00    +0.000 C 
ATOM     15  C   UNL     1       6.981   5.629  19.314  0.00  0.00    +0.000 C 
ATOM     16  O   UNL     1       5.668   5.030  19.100  0.00  0.00    +0.000 OA
ENDBRANCH   2   5
BRANCH   1  17
ATOM     17  C   UNL     1       2.402   1.857  18.884  0.00  0.00    +0.000 C 
BRANCH  17  21
ATOM     18  N   UNL     1       2.035   5.235  20.519  0.00  0.00    +0.000 NA
ATOM     19  C   UNL     1       0.957   4.503  19.834  0.00  0.00    +0.000 C 
ATOM     20  C   UNL     1       0.782   3.102  20.418  0.00  0.00    +0.000 C 
ATOM     21  C   UNL     1       2.066   2.273  20.328  0.00  0.00    +0.000 C 
ATOM     22  C   UNL     1       3.207   3.082  20.966  0.00  0.00    +0.000 C 
ATOM     23  C   UNL     1       3.312   4.510  20.411  0.00  0.00    +0.000 C 
BRANCH  18  24
ATOM     24  C   UNL     1       2.183   6.611  20.001  0.00  0.00    +0.000 C 
BRANCH  24  25
ATOM     25  C   UNL     1       2.275   6.658  18.467  0.00  0.00    +0.000 C 
BRANCH  25  27
ATOM     26  C   UNL     1       2.019   9.045  17.750  0.00  0.00    +0.000 C 
ATOM     27  C   UNL     1       3.004   7.902  17.961  0.00  0.00    +0.000 C 
ENDBRANCH  25  27
ENDBRANCH  24  25
ENDBRANCH  18  24
ENDBRANCH  17  21
ENDBRANCH   1  17
TORSDOF 6
ENDMDL
