MODEL 1
REMARK VINA RESULT:      -7.7      0.000      0.000
REMARK  Name = 
REMARK  9 active torsions:
REMARK  status: ('A' for Active; 'I' for Inactive)
REMARK    1  A    between atoms: C_1  and  C_2
REMARK    2  A    between atoms: C_2  and  O_3
REMARK    3  A    between atoms: O_3  and  C_4
REMARK    4  A    between atoms: C_7  and  C_8
REMARK    5  A    between atoms: N_22  and  C_23
REMARK    6  A    between atoms: C_23  and  C_24
REMARK    7  A    between atoms: C_24  and  N_25
REMARK    8  A    between atoms: N_25  and  C_26
REMARK    9  A    between atoms: N_25  and  C_27
REMARK                            x       y       z     vdW  Elec       q    Type
REMARK                         _______ _______ _______ _____ _____    ______ ____
ROOT
ATOM      1  C   UNL     1       8.421   8.359  18.112  0.00  0.00    +0.000 A 
ATOM      2  N   UNL     1       8.128   7.801  16.944  0.00  0.00    +0.000 NA
ATOM      3  C   UNL     1       7.631   6.542  17.240  0.00  0.00    +0.000 A 
ATOM      4  C   UNL     1       7.856   6.244  18.581  0.00  0.00    +0.000 A 
ATOM      5  C   UNL     1       7.353   5.118  19.252  0.00  0.00    +0.000 A 
ATOM      6  C   UNL     1       6.201   4.625  18.649  0.00  0.00    +0.000 A 
ATOM      7  C   UNL     1       6.028   4.838  17.279  0.00  0.00    +0.000 A 
ATOM      8  C   UNL     1       4.795   4.512  16.759  0.00  0.00    +0.000 A 
ATOM      9  C   UNL     1       4.561   4.385  15.414  0.00  0.00    +0.000 A 
ATOM     10  C   UNL     1       5.516   4.894  14.552  0.00  0.00    +0.000 A 
ATOM     11  C   UNL     1       6.546   5.688  15.083  0.00  0.00    +0.000 A 
ATOM     12  C   UNL     1       6.837   5.641  16.471  0.00  0.00    +0.000 A 
ATOM     13  C   UNL     1       3.853   5.273  17.591  0.00  0.00    +0.000 C 
ATOM     14  O   UNL     1       3.515   6.398  17.240  0.00  0.00    +0.000 OA
ATOM     15  N   UNL     1       3.747   4.742  18.847  0.00  0.00    +0.000 N 
ATOM     16  C   UNL     1       4.949   4.334  19.480  0.00  0.00    +0.000 C 
ATOM     17  O   UNL     1       5.024   3.889  20.606  0.00  0.00    +0.000 OA
ATOM     18  N   UNL     1       8.416   7.387  19.091  0.00  0.00    +0.000 N 
ATOM     19  H   UNL     1       8.514   7.560  20.077  0.00  0.00    +0.000 HD
ENDROOT
BRANCH   1  23
ATOM     20  C   UNL     1       9.098  12.553  18.933  0.00  0.00    +0.000 A 
ATOM     21  C   UNL     1       9.498  11.570  19.839  0.00  0.00    +0.000 A 
ATOM     22  C   UNL     1       9.275  10.204  19.578  0.00  0.00    +0.000 A 
ATOM     23  C   UNL     1       8.617   9.793  18.414  0.00  0.00    +0.000 A 
ATOM     24  C   UNL     1       8.209  10.799  17.517  0.00  0.00    +0.000 A 
ATOM     25  C   UNL     1       8.445  12.157  17.770  0.00  0.00    +0.000 A 
BRANCH  20  26
ATOM     26  O   UNL     1       9.361  13.854  19.283  0.00  0.00    +0.000 OA
BRANCH  26  28
ATOM     27  C   UNL     1      11.530  14.209  18.293  0.00  0.00    +0.000 C 
ATOM     28  C   UNL     1      10.074  14.639  18.321  0.00  0.00    +0.000 C 
ENDBRANCH  26  28
ENDBRANCH  20  26
ENDBRANCH   1  23
BRANCH  15  29
ATOM     29  C   UNL     1       2.532   5.074  19.595  0.00  0.00    +0.000 C 
BRANCH  29  30
ATOM     30  C   UNL     1       1.266   4.190  19.281  0.00  0.00    +0.000 C 
BRANCH  30  31
ATOM     31  N   UNL     1       1.151   2.882  19.979  0.00  0.00    +0.000 NA
ATOM     32  C   UNL     1       1.842   1.815  19.271  0.00  0.00    +0.000 C 
ATOM     33  C   UNL     1       1.667   2.984  21.351  0.00  0.00    +0.000 C 
ENDBRANCH  30  31
ENDBRANCH  29  30
ENDBRANCH  15  29
TORSDOF 6
ENDMDL
MODEL 2
REMARK VINA RESULT:      -7.3      0.689      1.248
REMARK  Name = 
REMARK  9 active torsions:
REMARK  status: ('A' for Active; 'I' for Inactive)
REMARK    1  A    between atoms: C_1  and  C_2
REMARK    2  A    between atoms: C_2  and  O_3
REMARK    3  A    between atoms: O_3  and  C_4
REMARK    4  A    between atoms: C_7  and  C_8
REMARK    5  A    between atoms: N_22  and  C_23
REMARK    6  A    between atoms: C_23  and  C_24
REMARK    7  A    between atoms: C_24  and  N_25
REMARK    8  A    between atoms: N_25  and  C_26
REMARK    9  A    between atoms: N_25  and  C_27
REMARK                            x       y       z     vdW  Elec       q    Type
REMARK                         _______ _______ _______ _____ _____    ______ ____
ROOT
ATOM      1  C   UNL     1       8.485   8.393  18.156  0.00  0.00    +0.000 A 
ATOM      2  N   UNL     1       8.236   7.792  16.999  0.00  0.00    +0.000 NA
ATOM      3  C   UNL     1       7.657   6.576  17.321  0.00  0.00    +0.000 A 
ATOM      4  C   UNL     1       7.782   6.335  18.685  0.00  0.00    +0.000 A 
ATOM      5  C   UNL     1       7.181   5.270  19.375  0.00  0.00    +0.000 A 
ATOM      6  C   UNL     1       6.043   4.805  18.723  0.00  0.00    +0.000 A 
ATOM      7  C   UNL     1       5.967   4.957  17.337  0.00  0.00    +0.000 A 
ATOM      8  C   UNL     1       4.752   4.667  16.754  0.00  0.00    +0.000 A 
ATOM      9  C   UNL     1       4.596   4.485  15.404  0.00  0.00    +0.000 A 
ATOM     10  C   UNL     1       5.628   4.902  14.582  0.00  0.00    +0.000 A 
ATOM     11  C   UNL     1       6.664   5.669  15.141  0.00  0.00    +0.000 A 
ATOM     12  C   UNL     1       6.866   5.678  16.545  0.00  0.00    +0.000 A 
ATOM     13  C   UNL     1       3.803   5.514  17.487  0.00  0.00    +0.000 C 
ATOM     14  O   UNL     1       3.546   6.636  17.063  0.00  0.00    +0.000 OA
ATOM     15  N   UNL     1       3.591   5.053  18.757  0.00  0.00    +0.000 N 
ATOM     16  C   UNL     1       4.729   4.618  19.484  0.00  0.00    +0.000 C 
ATOM     17  O   UNL     1       4.711   4.228  20.633  0.00  0.00    +0.000 OA
ATOM     18  N   UNL     1       8.369   7.472  19.177  0.00  0.00    +0.000 N 
ATOM     19  H   UNL     1       8.415   7.689  20.158  0.00  0.00    +0.000 HD
ENDROOT
BRANCH   1  23
ATOM     20  C   UNL     1       9.120  12.601  18.937  0.00  0.00    +0.000 A 
ATOM     21  C   UNL     1       8.504  12.174  17.760  0.00  0.00    +0.000 A 
ATOM     22  C   UNL     1       8.300  10.804  17.499  0.00  0.00    +0.000 A 
ATOM     23  C   UNL     1       8.738   9.829  18.402  0.00  0.00    +0.000 A 
ATOM     24  C   UNL     1       9.368  10.277  19.577  0.00  0.00    +0.000 A 
ATOM     25  C   UNL     1       9.557  11.640  19.843  0.00  0.00    +0.000 A 
BRANCH  20  26
ATOM     26  O   UNL     1       9.272  13.956  19.092  0.00  0.00    +0.000 OA
BRANCH  26  28
ATOM     27  C   UNL     1       8.897  15.953  17.796  0.00  0.00    +0.000 C 
ATOM     28  C   UNL     1       8.253  14.780  18.515  0.00  0.00    +0.000 C 
ENDBRANCH  26  28
ENDBRANCH  20  26
ENDBRANCH   1  23
BRANCH  15  29
ATOM     29  C   UNL     1       2.352   5.482  19.409  0.00  0.00    +0.000 C 
BRANCH  29  30
ATOM     30  C   UNL     1       1.242   4.376  19.575  0.00  0.00    +0.000 C 
BRANCH  30  31
ATOM     31  N   UNL     1       1.694   2.973  19.767  0.00  0.00    +0.000 NA
ATOM     32  C   UNL     1       1.582   2.542  21.153  0.00  0.00    +0.000 C 
ATOM     33  C   UNL     1       0.931   2.062  18.901  0.00  0.00    +0.000 C 
ENDBRANCH  30  31
ENDBRANCH  29  30
ENDBRANCH  15  29
TORSDOF 6
ENDMDL
MODEL 3
REMARK VINA RESULT:      -7.0      5.361      8.222
REMARK  Name = 
REMARK  9 active torsions:
REMARK  status: ('A' for Active; 'I' for Inactive)
REMARK    1  A    between atoms: C_1  and  C_2
REMARK    2  A    between atoms: C_2  and  O_3
REMARK    3  A    between atoms: O_3  and  C_4
REMARK    4  A    between atoms: C_7  and  C_8
REMARK    5  A    between atoms: N_22  and  C_23
REMARK    6  A    between atoms: C_23  and  C_24
REMARK    7  A    between atoms: C_24  and  N_25
REMARK    8  A    between atoms: N_25  and  C_26
REMARK    9  A    between atoms: N_25  and  C_27
REMARK                            x       y       z     vdW  Elec       q    Type
REMARK                         _______ _______ _______ _____ _____    ______ ____
ROOT
ATOM      1  C   UNL     1      -0.058   9.871  18.568  0.00  0.00    +0.000 A 
ATOM      2  N   UNL     1       1.035   9.703  17.834  0.00  0.00    +0.000 NA
ATOM      3  C   UNL     1       1.829   8.811  18.535  0.00  0.00    +0.000 A 
ATOM      4  C   UNL     1       1.322   8.629  19.818  0.00  0.00    +0.000 A 
ATOM      5  C   UNL     1       1.792   7.684  20.745  0.00  0.00    +0.000 A 
ATOM      6  C   UNL     1       2.413   6.608  20.120  0.00  0.00    +0.000 A 
ATOM      7  C   UNL     1       3.011   6.820  18.876  0.00  0.00    +0.000 A 
ATOM      8  C   UNL     1       3.439   5.697  18.202  0.00  0.00    +0.000 A 
ATOM      9  C   UNL     1       4.292   5.749  17.129  0.00  0.00    +0.000 A 
ATOM     10  C   UNL     1       4.481   6.981  16.527  0.00  0.00    +0.000 A 
ATOM     11  C   UNL     1       3.646   8.047  16.900  0.00  0.00    +0.000 A 
ATOM     12  C   UNL     1       2.916   7.988  18.114  0.00  0.00    +0.000 A 
ATOM     13  C   UNL     1       2.240   4.851  18.136  0.00  0.00    +0.000 C 
ATOM     14  O   UNL     1       1.494   4.941  17.167  0.00  0.00    +0.000 OA
ATOM     15  N   UNL     1       1.934   4.314  19.356  0.00  0.00    +0.000 N 
ATOM     16  C   UNL     1       2.032   5.171  20.482  0.00  0.00    +0.000 C 
ATOM     17  O   UNL     1       1.750   4.856  21.620  0.00  0.00    +0.000 OA
ATOM     18  N   UNL     1       0.165   9.363  19.832  0.00  0.00    +0.000 N 
ATOM     19  H   UNL     1      -0.533   9.280  20.551  0.00  0.00    +0.000 HD
ENDROOT
BRANCH   1  23
ATOM     20  C   UNL     1      -3.955  11.336  17.390  0.00  0.00    +0.000 A 
ATOM     21  C   UNL     1      -3.314  10.332  16.662  0.00  0.00    +0.000 A 
ATOM     22  C   UNL     1      -2.043   9.856  17.039  0.00  0.00    +0.000 A 
ATOM     23  C   UNL     1      -1.371  10.398  18.140  0.00  0.00    +0.000 A 
ATOM     24  C   UNL     1      -2.027  11.417  18.855  0.00  0.00    +0.000 A 
ATOM     25  C   UNL     1      -3.298  11.880  18.489  0.00  0.00    +0.000 A 
BRANCH  20  26
ATOM     26  O   UNL     1      -5.190  11.728  16.938  0.00  0.00    +0.000 OA
BRANCH  26  28
ATOM     27  C   UNL     1      -6.649  10.653  18.527  0.00  0.00    +0.000 C 
ATOM     28  C   UNL     1      -6.184  11.974  17.938  0.00  0.00    +0.000 C 
ENDBRANCH  26  28
ENDBRANCH  20  26
ENDBRANCH   1  23
BRANCH  15  29
ATOM     29  C   UNL     1       1.100   3.110  19.347  0.00  0.00    +0.000 C 
BRANCH  29  30
ATOM     30  C   UNL     1       1.824   1.768  19.746  0.00  0.00    +0.000 C 
BRANCH  30  31
ATOM     31  N   UNL     1       3.151   1.493  19.133  0.00  0.00    +0.000 NA
ATOM     32  C   UNL     1       3.195   1.864  17.726  0.00  0.00    +0.000 C 
ATOM     33  C   UNL     1       4.213   2.196  19.866  0.00  0.00    +0.000 C 
ENDBRANCH  30  31
ENDBRANCH  29  30
ENDBRANCH  15  29
TORSDOF 6
ENDMDL
MODEL 4
REMARK VINA RESULT:      -6.8      7.628     10.676
REMARK  Name = 
REMARK  9 active torsions:
REMARK  status: ('A' for Active; 'I' for Inactive)
REMARK    1  A    between atoms: C_1  and  C_2
REMARK    2  A    between atoms: C_2  and  O_3
REMARK    3  A    between atoms: O_3  and  C_4
REMARK    4  A    between atoms: C_7  and  C_8
REMARK    5  A    between atoms: N_22  and  C_23
REMARK    6  A    between atoms: C_23  and  C_24
REMARK    7  A    between atoms: C_24  and  N_25
REMARK    8  A    between atoms: N_25  and  C_26
REMARK    9  A    between atoms: N_25  and  C_27
REMARK                            x       y       z     vdW  Elec       q    Type
REMARK                         _______ _______ _______ _____ _____    ______ ____
ROOT
ATOM      1  C   UNL     1       1.596  10.418  18.356  0.00  0.00    +0.000 A 
ATOM      2  N   UNL     1       2.429  11.437  18.183  0.00  0.00    +0.000 NA
ATOM      3  C   UNL     1       1.655  12.581  18.281  0.00  0.00    +0.000 A 
ATOM      4  C   UNL     1       0.304  12.245  18.267  0.00  0.00    +0.000 A 
ATOM      5  C   UNL     1      -0.753  13.140  18.496  0.00  0.00    +0.000 A 
ATOM      6  C   UNL     1      -0.351  14.235  19.256  0.00  0.00    +0.000 A 
ATOM      7  C   UNL     1       0.986  14.632  19.187  0.00  0.00    +0.000 A 
ATOM      8  C   UNL     1       1.389  15.587  20.095  0.00  0.00    +0.000 A 
ATOM      9  C   UNL     1       2.563  16.286  19.973  0.00  0.00    +0.000 A 
ATOM     10  C   UNL     1       3.502  15.800  19.081  0.00  0.00    +0.000 A 
ATOM     11  C   UNL     1       3.300  14.529  18.518  0.00  0.00    +0.000 A 
ATOM     12  C   UNL     1       2.011  13.938  18.538  0.00  0.00    +0.000 A 
ATOM     13  C   UNL     1       1.018  15.012  21.394  0.00  0.00    +0.000 C 
ATOM     14  O   UNL     1       1.834  14.331  22.005  0.00  0.00    +0.000 OA
ATOM     15  N   UNL     1      -0.336  15.033  21.588  0.00  0.00    +0.000 N 
ATOM     16  C   UNL     1      -1.152  14.665  20.487  0.00  0.00    +0.000 C 
ATOM     17  O   UNL     1      -2.363  14.591  20.514  0.00  0.00    +0.000 OA
ATOM     18  N   UNL     1       0.297  10.874  18.248  0.00  0.00    +0.000 N 
ATOM     19  H   UNL     1      -0.524  10.323  18.431  0.00  0.00    +0.000 HD
ENDROOT
BRANCH   1  23
ATOM     20  C   UNL     1       2.450   6.304  19.386  0.00  0.00    +0.000 A 
ATOM     21  C   UNL     1       1.891   7.177  20.321  0.00  0.00    +0.000 A 
ATOM     22  C   UNL     1       1.616   8.519  19.991  0.00  0.00    +0.000 A 
ATOM     23  C   UNL     1       1.924   9.025  18.723  0.00  0.00    +0.000 A 
ATOM     24  C   UNL     1       2.498   8.133  17.798  0.00  0.00    +0.000 A 
ATOM     25  C   UNL     1       2.757   6.794  18.121  0.00  0.00    +0.000 A 
BRANCH  20  26
ATOM     26  O   UNL     1       2.679   5.019  19.809  0.00  0.00    +0.000 OA
BRANCH  26  28
ATOM     27  C   UNL     1       0.849   3.501  20.208  0.00  0.00    +0.000 C 
ATOM     28  C   UNL     1       1.799   4.515  20.820  0.00  0.00    +0.000 C 
ENDBRANCH  26  28
ENDBRANCH  20  26
ENDBRANCH   1  23
BRANCH  15  29
ATOM     29  C   UNL     1      -0.798  14.957  22.975  0.00  0.00    +0.000 C 
BRANCH  29  30
ATOM     30  C   UNL     1      -1.307  13.544  23.455  0.00  0.00    +0.000 C 
BRANCH  30  31
ATOM     31  N   UNL     1      -2.718  13.440  23.911  0.00  0.00    +0.000 NA
ATOM     32  C   UNL     1      -3.392  14.730  23.918  0.00  0.00    +0.000 C 
ATOM     33  C   UNL     1      -3.463  12.495  23.067  0.00  0.00    +0.000 C 
ENDBRANCH  30  31
ENDBRANCH  29  30
ENDBRANCH  15  29
TORSDOF 6
ENDMDL
MODEL 5
REMARK VINA RESULT:      -6.8      7.018     10.012
REMARK  Name = 
REMARK  9 active torsions:
REMARK  status: ('A' for Active; 'I' for Inactive)
REMARK    1  A    between atoms: C_1  and  C_2
REMARK    2  A    between atoms: C_2  and  O_3
REMARK    3  A    between atoms: O_3  and  C_4
REMARK    4  A    between atoms: C_7  and  C_8
REMARK    5  A    between atoms: N_22  and  C_23
REMARK    6  A    between atoms: C_23  and  C_24
REMARK    7  A    between atoms: C_24  and  N_25
REMARK    8  A    between atoms: N_25  and  C_26
REMARK    9  A    between atoms: N_25  and  C_27
REMARK                            x       y       z     vdW  Elec       q    Type
REMARK                         _______ _______ _______ _____ _____    ______ ____
ROOT
ATOM      1  C   UNL     1       1.993   8.747  18.042  0.00  0.00    +0.000 A 
ATOM      2  N   UNL     1       2.559   9.917  17.775  0.00  0.00    +0.000 NA
ATOM      3  C   UNL     1       1.560  10.865  17.923  0.00  0.00    +0.000 A 
ATOM      4  C   UNL     1       0.323  10.238  18.040  0.00  0.00    +0.000 A 
ATOM      5  C   UNL     1      -0.884  10.886  18.350  0.00  0.00    +0.000 A 
ATOM      6  C   UNL     1      -0.674  12.069  19.050  0.00  0.00    +0.000 A 
ATOM      7  C   UNL     1       0.529  12.750  18.851  0.00  0.00    +0.000 A 
ATOM      8  C   UNL     1       0.785  13.804  19.701  0.00  0.00    +0.000 A 
ATOM      9  C   UNL     1       1.758  14.740  19.460  0.00  0.00    +0.000 A 
ATOM     10  C   UNL     1       2.702  14.441  18.493  0.00  0.00    +0.000 A 
ATOM     11  C   UNL     1       2.742  13.136  17.974  0.00  0.00    +0.000 A 
ATOM     12  C   UNL     1       1.624  12.276  18.123  0.00  0.00    +0.000 A 
ATOM     13  C   UNL     1       0.665  13.210  21.039  0.00  0.00    +0.000 C 
ATOM     14  O   UNL     1       1.663  12.750  21.584  0.00  0.00    +0.000 OA
ATOM     15  N   UNL     1      -0.638  12.939  21.356  0.00  0.00    +0.000 N 
ATOM     16  C   UNL     1      -1.442  12.358  20.341  0.00  0.00    +0.000 C 
ATOM     17  O   UNL     1      -2.598  12.019  20.482  0.00  0.00    +0.000 OA
ATOM     18  N   UNL     1       0.621   8.900  18.046  0.00  0.00    +0.000 N 
ATOM     19  H   UNL     1      -0.038   8.189  18.314  0.00  0.00    +0.000 HD
ENDROOT
BRANCH   1  23
ATOM     20  C   UNL     1       4.008   5.086  19.162  0.00  0.00    +0.000 A 
ATOM     21  C   UNL     1       4.346   5.762  17.988  0.00  0.00    +0.000 A 
ATOM     22  C   UNL     1       3.689   6.951  17.618  0.00  0.00    +0.000 A 
ATOM     23  C   UNL     1       2.655   7.475  18.402  0.00  0.00    +0.000 A 
ATOM     24  C   UNL     1       2.319   6.774  19.575  0.00  0.00    +0.000 A 
ATOM     25  C   UNL     1       2.984   5.599  19.951  0.00  0.00    +0.000 A 
BRANCH  20  26
ATOM     26  O   UNL     1       4.708   3.937  19.430  0.00  0.00    +0.000 OA
BRANCH  26  28
ATOM     27  C   UNL     1       3.570   2.070  18.416  0.00  0.00    +0.000 C 
ATOM     28  C   UNL     1       3.930   2.770  19.715  0.00  0.00    +0.000 C 
ENDBRANCH  26  28
ENDBRANCH  20  26
ENDBRANCH   1  23
BRANCH  15  29
ATOM     29  C   UNL     1      -0.950  12.815  22.781  0.00  0.00    +0.000 C 
BRANCH  29  30
ATOM     30  C   UNL     1      -1.576  14.090  23.463  0.00  0.00    +0.000 C 
BRANCH  30  31
ATOM     31  N   UNL     1      -0.660  14.986  24.217  0.00  0.00    +0.000 NA
ATOM     32  C   UNL     1      -0.188  16.100  23.408  0.00  0.00    +0.000 C 
ATOM     33  C   UNL     1      -1.319  15.496  25.428  0.00  0.00    +0.000 C 
ENDBRANCH  30  31
ENDBRANCH  29  30
ENDBRANCH  15  29
TORSDOF 6
ENDMDL
MODEL 6
REMARK VINA RESULT:      -6.8      6.956      9.840
REMARK  Name = 
REMARK  9 active torsions:
REMARK  status: ('A' for Active; 'I' for Inactive)
REMARK    1  A    between atoms: C_1  and  C_2
REMARK    2  A    between atoms: C_2  and  O_3
REMARK    3  A    between atoms: O_3  and  C_4
REMARK    4  A    between atoms: C_7  and  C_8
REMARK    5  A    between atoms: N_22  and  C_23
REMARK    6  A    between atoms: C_23  and  C_24
REMARK    7  A    between atoms: C_24  and  N_25
REMARK    8  A    between atoms: N_25  and  C_26
REMARK    9  A    between atoms: N_25  and  C_27
REMARK                            x       y       z     vdW  Elec       q    Type
REMARK                         _______ _______ _______ _____ _____    ______ ____
ROOT
ATOM      1  C   UNL     1       2.050   8.689  18.016  0.00  0.00    +0.000 A 
ATOM      2  N   UNL     1       2.601   9.867  17.750  0.00  0.00    +0.000 NA
ATOM      3  C   UNL     1       1.592  10.802  17.906  0.00  0.00    +0.000 A 
ATOM      4  C   UNL     1       0.362  10.160  18.026  0.00  0.00    +0.000 A 
ATOM      5  C   UNL     1      -0.851  10.793  18.342  0.00  0.00    +0.000 A 
ATOM      6  C   UNL     1      -0.651  11.977  19.045  0.00  0.00    +0.000 A 
ATOM      7  C   UNL     1       0.543  12.672  18.844  0.00  0.00    +0.000 A 
ATOM      8  C   UNL     1       0.790  13.726  19.696  0.00  0.00    +0.000 A 
ATOM      9  C   UNL     1       1.751  14.674  19.454  0.00  0.00    +0.000 A 
ATOM     10  C   UNL     1       2.694  14.389  18.482  0.00  0.00    +0.000 A 
ATOM     11  C   UNL     1       2.747  13.086  17.959  0.00  0.00    +0.000 A 
ATOM     12  C   UNL     1       1.640  12.213  18.110  0.00  0.00    +0.000 A 
ATOM     13  C   UNL     1       0.682  13.127  21.033  0.00  0.00    +0.000 C 
ATOM     14  O   UNL     1       1.688  12.676  21.572  0.00  0.00    +0.000 OA
ATOM     15  N   UNL     1      -0.616  12.839  21.354  0.00  0.00    +0.000 N 
ATOM     16  C   UNL     1      -1.417  12.253  20.341  0.00  0.00    +0.000 C 
ATOM     17  O   UNL     1      -2.569  11.899  20.485  0.00  0.00    +0.000 OA
ATOM     18  N   UNL     1       0.677   8.826  18.026  0.00  0.00    +0.000 N 
ATOM     19  H   UNL     1       0.027   8.106  18.294  0.00  0.00    +0.000 HD
ENDROOT
BRANCH   1  23
ATOM     20  C   UNL     1       4.110   5.048  19.118  0.00  0.00    +0.000 A 
ATOM     21  C   UNL     1       4.458   5.749  17.962  0.00  0.00    +0.000 A 
ATOM     22  C   UNL     1       3.786   6.932  17.597  0.00  0.00    +0.000 A 
ATOM     23  C   UNL     1       2.728   7.424  18.368  0.00  0.00    +0.000 A 
ATOM     24  C   UNL     1       2.383   6.698  19.523  0.00  0.00    +0.000 A 
ATOM     25  C   UNL     1       3.062   5.529  19.895  0.00  0.00    +0.000 A 
BRANCH  20  26
ATOM     26  O   UNL     1       4.826   3.907  19.382  0.00  0.00    +0.000 OA
BRANCH  26  28
ATOM     27  C   UNL     1       3.559   2.118  18.381  0.00  0.00    +0.000 C 
ATOM     28  C   UNL     1       4.064   2.732  19.676  0.00  0.00    +0.000 C 
ENDBRANCH  26  28
ENDBRANCH  20  26
ENDBRANCH   1  23
BRANCH  15  29
ATOM     29  C   UNL     1      -0.920  12.706  22.780  0.00  0.00    +0.000 C 
BRANCH  29  30
ATOM     30  C   UNL     1      -1.674  13.924  23.440  0.00  0.00    +0.000 C 
BRANCH  30  31
ATOM     31  N   UNL     1      -3.160  13.876  23.473  0.00  0.00    +0.000 NA
ATOM     32  C   UNL     1      -3.660  12.588  23.932  0.00  0.00    +0.000 C 
ATOM     33  C   UNL     1      -3.690  14.948  24.327  0.00  0.00    +0.000 C 
ENDBRANCH  30  31
ENDBRANCH  29  30
ENDBRANCH  15  29
TORSDOF 6
ENDMDL
MODEL 7
REMARK VINA RESULT:      -6.8      8.301     10.955
REMARK  Name = 
REMARK  9 active torsions:
REMARK  status: ('A' for Active; 'I' for Inactive)
REMARK    1  A    between atoms: C_1  and  C_2
REMARK    2  A    between atoms: C_2  and  O_3
REMARK    3  A    between atoms: O_3  and  C_4
REMARK    4  A    between atoms: C_7  and  C_8
REMARK    5  A    between atoms: N_22  and  C_23
REMARK    6  A    between atoms: C_23  and  C_24
REMARK    7  A    between atoms: C_24  and  N_25
REMARK    8  A    between atoms: N_25  and  C_26
REMARK    9  A    between atoms: N_25  and  C_27
REMARK                            x       y       z     vdW  Elec       q    Type
REMARK                         _______ _______ _______ _____ _____    ______ ____
ROOT
ATOM      1  C   UNL     1       1.132  10.203  18.607  0.00  0.00    +0.000 A 
ATOM      2  N   UNL     1       1.618  11.403  18.902  0.00  0.00    +0.000 NA
ATOM      3  C   UNL     1       0.516  12.225  19.076  0.00  0.00    +0.000 A 
ATOM      4  C   UNL     1      -0.636  11.576  18.640  0.00  0.00    +0.000 A 
ATOM      5  C   UNL     1      -1.945  12.058  18.805  0.00  0.00    +0.000 A 
ATOM      6  C   UNL     1      -2.044  12.931  19.884  0.00  0.00    +0.000 A 
ATOM      7  C   UNL     1      -0.911  13.658  20.253  0.00  0.00    +0.000 A 
ATOM      8  C   UNL     1      -0.991  14.358  21.438  0.00  0.00    +0.000 A 
ATOM      9  C   UNL     1      -0.096  15.335  21.790  0.00  0.00    +0.000 A 
ATOM     10  C   UNL     1       1.086  15.403  21.073  0.00  0.00    +0.000 A 
ATOM     11  C   UNL     1       1.396  14.358  20.187  0.00  0.00    +0.000 A 
ATOM     12  C   UNL     1       0.376  13.481  19.737  0.00  0.00    +0.000 A 
ATOM     13  C   UNL     1      -1.376  13.337  22.421  0.00  0.00    +0.000 C 
ATOM     14  O   UNL     1      -0.502  12.733  23.034  0.00  0.00    +0.000 OA
ATOM     15  N   UNL     1      -2.679  12.952  22.266  0.00  0.00    +0.000 N 
ATOM     16  C   UNL     1      -3.137  12.745  20.939  0.00  0.00    +0.000 C 
ATOM     17  O   UNL     1      -4.248  12.359  20.641  0.00  0.00    +0.000 OA
ATOM     18  N   UNL     1      -0.205  10.323  18.288  0.00  0.00    +0.000 N 
ATOM     19  H   UNL     1      -0.829   9.553  18.118  0.00  0.00    +0.000 HD
ENDROOT
BRANCH   1  23
ATOM     20  C   UNL     1       3.043   6.327  18.809  0.00  0.00    +0.000 A 
ATOM     21  C   UNL     1       2.275   6.805  19.871  0.00  0.00    +0.000 A 
ATOM     22  C   UNL     1       1.655   8.069  19.811  0.00  0.00    +0.000 A 
ATOM     23  C   UNL     1       1.817   8.896  18.695  0.00  0.00    +0.000 A 
ATOM     24  C   UNL     1       2.605   8.403  17.638  0.00  0.00    +0.000 A 
ATOM     25  C   UNL     1       3.209   7.139  17.691  0.00  0.00    +0.000 A 
BRANCH  20  26
ATOM     26  O   UNL     1       3.604   5.084  18.968  0.00  0.00    +0.000 OA
BRANCH  26  28
ATOM     27  C   UNL     1       2.329   3.572  17.590  0.00  0.00    +0.000 C 
ATOM     28  C   UNL     1       2.696   3.978  19.007  0.00  0.00    +0.000 C 
ENDBRANCH  26  28
ENDBRANCH  20  26
ENDBRANCH   1  23
BRANCH  15  29
ATOM     29  C   UNL     1      -3.322  12.339  23.430  0.00  0.00    +0.000 C 
BRANCH  29  30
ATOM     30  C   UNL     1      -4.299  13.268  24.246  0.00  0.00    +0.000 C 
BRANCH  30  31
ATOM     31  N   UNL     1      -5.484  13.814  23.532  0.00  0.00    +0.000 NA
ATOM     32  C   UNL     1      -6.717  13.140  23.913  0.00  0.00    +0.000 C 
ATOM     33  C   UNL     1      -5.611  15.258  23.775  0.00  0.00    +0.000 C 
ENDBRANCH  30  31
ENDBRANCH  29  30
ENDBRANCH  15  29
TORSDOF 6
ENDMDL
MODEL 8
REMARK VINA RESULT:      -6.7      8.311     10.817
REMARK  Name = 
REMARK  9 active torsions:
REMARK  status: ('A' for Active; 'I' for Inactive)
REMARK    1  A    between atoms: C_1  and  C_2
REMARK    2  A    between atoms: C_2  and  O_3
REMARK    3  A    between atoms: O_3  and  C_4
REMARK    4  A    between atoms: C_7  and  C_8
REMARK    5  A    between atoms: N_22  and  C_23
REMARK    6  A    between atoms: C_23  and  C_24
REMARK    7  A    between atoms: C_24  and  N_25
REMARK    8  A    between atoms: N_25  and  C_26
REMARK    9  A    between atoms: N_25  and  C_27
REMARK                            x       y       z     vdW  Elec       q    Type
REMARK                         _______ _______ _______ _____ _____    ______ ____
ROOT
ATOM      1  C   UNL     1       1.118  10.165  18.593  0.00  0.00    +0.000 A 
ATOM      2  N   UNL     1       1.629  11.351  18.902  0.00  0.00    +0.000 NA
ATOM      3  C   UNL     1       0.546  12.197  19.073  0.00  0.00    +0.000 A 
ATOM      4  C   UNL     1      -0.617  11.579  18.624  0.00  0.00    +0.000 A 
ATOM      5  C   UNL     1      -1.916  12.090  18.782  0.00  0.00    +0.000 A 
ATOM      6  C   UNL     1      -2.004  12.957  19.866  0.00  0.00    +0.000 A 
ATOM      7  C   UNL     1      -0.857  13.654  20.250  0.00  0.00    +0.000 A 
ATOM      8  C   UNL     1      -0.930  14.347  21.439  0.00  0.00    +0.000 A 
ATOM      9  C   UNL     1      -0.015  15.300  21.807  0.00  0.00    +0.000 A 
ATOM     10  C   UNL     1       1.174  15.345  21.100  0.00  0.00    +0.000 A 
ATOM     11  C   UNL     1       1.466  14.300  20.208  0.00  0.00    +0.000 A 
ATOM     12  C   UNL     1       0.429  13.451  19.743  0.00  0.00    +0.000 A 
ATOM     13  C   UNL     1      -1.347  13.328  22.412  0.00  0.00    +0.000 C 
ATOM     14  O   UNL     1      -0.493  12.699  23.027  0.00  0.00    +0.000 OA
ATOM     15  N   UNL     1      -2.658  12.975  22.243  0.00  0.00    +0.000 N 
ATOM     16  C   UNL     1      -3.109  12.788  20.911  0.00  0.00    +0.000 C 
ATOM     17  O   UNL     1      -4.227  12.431  20.601  0.00  0.00    +0.000 OA
ATOM     18  N   UNL     1      -0.213  10.319  18.265  0.00  0.00    +0.000 N 
ATOM     19  H   UNL     1      -0.853   9.564  18.084  0.00  0.00    +0.000 HD
ENDROOT
BRANCH   1  23
ATOM     20  C   UNL     1       3.124   6.343  18.894  0.00  0.00    +0.000 A 
ATOM     21  C   UNL     1       3.258   7.137  17.754  0.00  0.00    +0.000 A 
ATOM     22  C   UNL     1       2.603   8.380  17.650  0.00  0.00    +0.000 A 
ATOM     23  C   UNL     1       1.772   8.842  18.677  0.00  0.00    +0.000 A 
ATOM     24  C   UNL     1       1.638   8.022  19.813  0.00  0.00    +0.000 A 
ATOM     25  C   UNL     1       2.302   6.793  19.923  0.00  0.00    +0.000 A 
BRANCH  20  26
ATOM     26  O   UNL     1       3.803   5.151  18.894  0.00  0.00    +0.000 OA
BRANCH  26  28
ATOM     27  C   UNL     1       6.015   4.544  18.152  0.00  0.00    +0.000 C 
ATOM     28  C   UNL     1       5.191   5.209  19.241  0.00  0.00    +0.000 C 
ENDBRANCH  26  28
ENDBRANCH  20  26
ENDBRANCH   1  23
BRANCH  15  29
ATOM     29  C   UNL     1      -3.324  12.368  23.397  0.00  0.00    +0.000 C 
BRANCH  29  30
ATOM     30  C   UNL     1      -4.296  13.310  24.205  0.00  0.00    +0.000 C 
BRANCH  30  31
ATOM     31  N   UNL     1      -4.272  14.761  23.882  0.00  0.00    +0.000 NA
ATOM     32  C   UNL     1      -5.608  15.338  23.838  0.00  0.00    +0.000 C 
ATOM     33  C   UNL     1      -3.447  15.492  24.855  0.00  0.00    +0.000 C 
ENDBRANCH  30  31
ENDBRANCH  29  30
ENDBRANCH  15  29
TORSDOF 6
ENDMDL
MODEL 9
REMARK VINA RESULT:      -6.7      7.736     10.574
REMARK  Name = 
REMARK  9 active torsions:
REMARK  status: ('A' for Active; 'I' for Inactive)
REMARK    1  A    between atoms: C_1  and  C_2
REMARK    2  A    between atoms: C_2  and  O_3
REMARK    3  A    between atoms: O_3  and  C_4
REMARK    4  A    between atoms: C_7  and  C_8
REMARK    5  A    between atoms: N_22  and  C_23
REMARK    6  A    between atoms: C_23  and  C_24
REMARK    7  A    between atoms: C_24  and  N_25
REMARK    8  A    between atoms: N_25  and  C_26
REMARK    9  A    between atoms: N_25  and  C_27
REMARK                            x       y       z     vdW  Elec       q    Type
REMARK                         _______ _______ _______ _____ _____    ______ ____
ROOT
ATOM      1  C   UNL     1       1.461   9.686  18.342  0.00  0.00    +0.000 A 
ATOM      2  N   UNL     1       2.002  10.868  18.077  0.00  0.00    +0.000 NA
ATOM      3  C   UNL     1       1.008  11.802  18.318  0.00  0.00    +0.000 A 
ATOM      4  C   UNL     1      -0.215  11.162  18.493  0.00  0.00    +0.000 A 
ATOM      5  C   UNL     1      -1.404  11.789  18.898  0.00  0.00    +0.000 A 
ATOM      6  C   UNL     1      -1.157  12.952  19.620  0.00  0.00    +0.000 A 
ATOM      7  C   UNL     1       0.026  13.649  19.368  0.00  0.00    +0.000 A 
ATOM      8  C   UNL     1       0.328  14.678  20.233  0.00  0.00    +0.000 A 
ATOM      9  C   UNL     1       1.278  15.629  19.960  0.00  0.00    +0.000 A 
ATOM     10  C   UNL     1       2.161  15.368  18.927  0.00  0.00    +0.000 A 
ATOM     11  C   UNL     1       2.176  14.080  18.365  0.00  0.00    +0.000 A 
ATOM     12  C   UNL     1       1.076  13.207  18.558  0.00  0.00    +0.000 A 
ATOM     13  C   UNL     1       0.297  14.042  21.556  0.00  0.00    +0.000 C 
ATOM     14  O   UNL     1       1.330  13.573  22.022  0.00  0.00    +0.000 OA
ATOM     15  N   UNL     1      -0.981  13.750  21.946  0.00  0.00    +0.000 N 
ATOM     16  C   UNL     1      -1.844  13.195  20.967  0.00  0.00    +0.000 C 
ATOM     17  O   UNL     1      -2.987  12.841  21.169  0.00  0.00    +0.000 OA
ATOM     18  N   UNL     1       0.091   9.827  18.437  0.00  0.00    +0.000 N 
ATOM     19  H   UNL     1      -0.544   9.102  18.723  0.00  0.00    +0.000 HD
ENDROOT
BRANCH   1  23
ATOM     20  C   UNL     1       3.397   5.890  19.093  0.00  0.00    +0.000 A 
ATOM     21  C   UNL     1       2.525   6.449  20.028  0.00  0.00    +0.000 A 
ATOM     22  C   UNL     1       1.897   7.687  19.790  0.00  0.00    +0.000 A 
ATOM     23  C   UNL     1       2.153   8.409  18.619  0.00  0.00    +0.000 A 
ATOM     24  C   UNL     1       3.044   7.836  17.693  0.00  0.00    +0.000 A 
ATOM     25  C   UNL     1       3.658   6.597  17.923  0.00  0.00    +0.000 A 
BRANCH  20  26
ATOM     26  O   UNL     1       3.958   4.681  19.422  0.00  0.00    +0.000 OA
BRANCH  26  28
ATOM     27  C   UNL     1       3.700   2.885  17.836  0.00  0.00    +0.000 C 
ATOM     28  C   UNL     1       4.615   3.976  18.365  0.00  0.00    +0.000 C 
ENDBRANCH  26  28
ENDBRANCH  20  26
ENDBRANCH   1  23
BRANCH  15  29
ATOM     29  C   UNL     1      -1.201  13.579  23.384  0.00  0.00    +0.000 C 
BRANCH  29  30
ATOM     30  C   UNL     1      -1.653  14.868  24.170  0.00  0.00    +0.000 C 
BRANCH  30  31
ATOM     31  N   UNL     1      -0.626  15.573  24.981  0.00  0.00    +0.000 NA
ATOM     32  C   UNL     1       0.024  16.644  24.240  0.00  0.00    +0.000 C 
ATOM     33  C   UNL     1      -1.223  16.111  26.212  0.00  0.00    +0.000 C 
ENDBRANCH  30  31
ENDBRANCH  29  30
ENDBRANCH  15  29
TORSDOF 6
ENDMDL
