MODEL 1
REMARK VINA RESULT:      -7.8      0.000      0.000
REMARK  Name = 
REMARK  6 active torsions:
REMARK  status: ('A' for Active; 'I' for Inactive)
REMARK    1  A    between atoms: C_2  and  C_14
REMARK    2  A    between atoms: N_3  and  C_4
REMARK    3  A    between atoms: C_4  and  C_5
REMARK    4  A    between atoms: C_5  and  C_6
REMARK    5  A    between atoms: C_6  and  N_7
REMARK    6  A    between atoms: C_17  and  N_18
REMARK                            x       y       z     vdW  Elec       q    Type
REMARK                         _______ _______ _______ _____ _____    ______ ____
ROOT
ATOM      1  O   UNL     1       7.751   6.394  16.265  0.00  0.00    +0.000 OA
ATOM      2  C   UNL     1       7.080   6.787  17.214  0.00  0.00    +0.000 C 
ATOM      3  N   UNL     1       7.326   7.961  17.889  0.00  0.00    +0.000 N 
ATOM      4  H   UNL     1       6.662   8.316  18.563  0.00  0.00    +0.000 HD
ENDROOT
BRANCH   2   5
ATOM      5  C   UNL     1       5.904   6.007  17.671  0.00  0.00    +0.000 A 
ATOM      6  C   UNL     1       6.041   4.722  18.191  0.00  0.00    +0.000 A 
ATOM      7  C   UNL     1       4.916   4.019  18.621  0.00  0.00    +0.000 A 
ATOM      8  C   UNL     1       3.631   4.561  18.521  0.00  0.00    +0.000 A 
ATOM      9  C   UNL     1       3.504   5.850  17.978  0.00  0.00    +0.000 A 
ATOM     10  C   UNL     1       4.632   6.571  17.561  0.00  0.00    +0.000 A 
BRANCH   8  11
ATOM     11  N   UNL     1       2.492   3.821  18.940  0.00  0.00    +0.000 N 
ATOM     12  C   UNL     1       1.677   4.210  20.071  0.00  0.00    +0.000 C 
ATOM     13  C   UNL     1       0.825   2.997  20.351  0.00  0.00    +0.000 C 
ATOM     14  C   UNL     1       0.649   2.358  18.986  0.00  0.00    +0.000 C 
ATOM     15  C   UNL     1       1.910   2.743  18.260  0.00  0.00    +0.000 C 
ATOM     16  O   UNL     1       2.268   2.177  17.238  0.00  0.00    +0.000 OA
ENDBRANCH   8  11
ENDBRANCH   2   5
BRANCH   3  17
ATOM     17  C   UNL     1       8.390   8.856  17.497  0.00  0.00    +0.000 C 
BRANCH  17  18
ATOM     18  C   UNL     1       8.342  10.181  18.253  0.00  0.00    +0.000 C 
BRANCH  18  19
ATOM     19  C   UNL     1       9.460  10.331  19.300  0.00  0.00    +0.000 C 
BRANCH  19  20
ATOM     20  N   UNL     1      10.102  11.662  19.328  0.00  0.00    +0.000 NA
ATOM     21  C   UNL     1      11.517  11.602  18.954  0.00  0.00    +0.000 C 
ATOM     22  C   UNL     1      12.332  12.674  19.678  0.00  0.00    +0.000 C 
ATOM     23  C   UNL     1      12.267  14.059  19.053  0.00  0.00    +0.000 C 
ATOM     24  C   UNL     1      10.861  14.632  18.935  0.00  0.00    +0.000 C 
ATOM     25  C   UNL     1       9.995  13.850  17.953  0.00  0.00    +0.000 C 
ATOM     26  C   UNL     1       9.299  12.622  18.552  0.00  0.00    +0.000 C 
ENDBRANCH  19  20
ENDBRANCH  18  19
ENDBRANCH  17  18
ENDBRANCH   3  17
TORSDOF 6
ENDMDL
MODEL 2
REMARK VINA RESULT:      -7.8      1.276      1.851
REMARK  Name = 
REMARK  6 active torsions:
REMARK  status: ('A' for Active; 'I' for Inactive)
REMARK    1  A    between atoms: C_2  and  C_14
REMARK    2  A    between atoms: N_3  and  C_4
REMARK    3  A    between atoms: C_4  and  C_5
REMARK    4  A    between atoms: C_5  and  C_6
REMARK    5  A    between atoms: C_6  and  N_7
REMARK    6  A    between atoms: C_17  and  N_18
REMARK                            x       y       z     vdW  Elec       q    Type
REMARK                         _______ _______ _______ _____ _____    ______ ____
ROOT
ATOM      1  O   UNL     1       7.775   6.875  16.455  0.00  0.00    +0.000 OA
ATOM      2  C   UNL     1       7.044   7.226  17.375  0.00  0.00    +0.000 C 
ATOM      3  N   UNL     1       7.190   8.414  18.056  0.00  0.00    +0.000 N 
ATOM      4  H   UNL     1       6.479   8.728  18.702  0.00  0.00    +0.000 HD
ENDROOT
BRANCH   2   5
ATOM      5  C   UNL     1       5.901   6.377  17.788  0.00  0.00    +0.000 A 
ATOM      6  C   UNL     1       6.076   5.280  18.628  0.00  0.00    +0.000 A 
ATOM      7  C   UNL     1       4.979   4.506  19.006  0.00  0.00    +0.000 A 
ATOM      8  C   UNL     1       3.691   4.784  18.537  0.00  0.00    +0.000 A 
ATOM      9  C   UNL     1       3.530   5.881  17.675  0.00  0.00    +0.000 A 
ATOM     10  C   UNL     1       4.625   6.675  17.307  0.00  0.00    +0.000 A 
BRANCH   8  11
ATOM     11  N   UNL     1       2.587   3.970  18.911  0.00  0.00    +0.000 N 
ATOM     12  C   UNL     1       2.289   2.710  18.264  0.00  0.00    +0.000 C 
ATOM     13  C   UNL     1       0.892   2.377  18.726  0.00  0.00    +0.000 C 
ATOM     14  C   UNL     1       0.813   2.994  20.110  0.00  0.00    +0.000 C 
ATOM     15  C   UNL     1       1.751   4.167  20.018  0.00  0.00    +0.000 C 
ATOM     16  O   UNL     1       1.737   5.074  20.836  0.00  0.00    +0.000 OA
ENDBRANCH   8  11
ENDBRANCH   2   5
BRANCH   3  17
ATOM     17  C   UNL     1       8.212   9.373  17.703  0.00  0.00    +0.000 C 
BRANCH  17  18
ATOM     18  C   UNL     1       9.200   9.612  18.842  0.00  0.00    +0.000 C 
BRANCH  18  19
ATOM     19  C   UNL     1       9.146  11.040  19.413  0.00  0.00    +0.000 C 
BRANCH  19  20
ATOM     20  N   UNL     1       9.698  12.080  18.521  0.00  0.00    +0.000 NA
ATOM     21  C   UNL     1       9.653  13.412  19.129  0.00  0.00    +0.000 C 
ATOM     22  C   UNL     1       9.463  14.502  18.073  0.00  0.00    +0.000 C 
ATOM     23  C   UNL     1      10.732  14.921  17.349  0.00  0.00    +0.000 C 
ATOM     24  C   UNL     1      11.453  13.786  16.633  0.00  0.00    +0.000 C 
ATOM     25  C   UNL     1      12.020  12.755  17.602  0.00  0.00    +0.000 C 
ATOM     26  C   UNL     1      11.027  11.669  18.036  0.00  0.00    +0.000 C 
ENDBRANCH  19  20
ENDBRANCH  18  19
ENDBRANCH  17  18
ENDBRANCH   3  17
TORSDOF 6
ENDMDL
MODEL 3
REMARK VINA RESULT:      -7.7      7.496     10.828
REMARK  Name = 
REMARK  6 active torsions:
REMARK  status: ('A' for Active; 'I' for Inactive)
REMARK    1  A    between atoms: C_2  and  C_14
REMARK    2  A    between atoms: N_3  and  C_4
REMARK    3  A    between atoms: C_4  and  C_5
REMARK    4  A    between atoms: C_5  and  C_6
REMARK    5  A    between atoms: C_6  and  N_7
REMARK    6  A    between atoms: C_17  and  N_18
REMARK                            x       y       z     vdW  Elec       q    Type
REMARK                         _______ _______ _______ _____ _____    ______ ____
ROOT
ATOM      1  O   UNL     1       1.032  10.558  19.919  0.00  0.00    +0.000 OA
ATOM      2  C   UNL     1       0.400  10.325  18.893  0.00  0.00    +0.000 C 
ATOM      3  N   UNL     1       0.916   9.637  17.818  0.00  0.00    +0.000 N 
ATOM      4  H   UNL     1       0.316   9.341  17.061  0.00  0.00    +0.000 HD
ENDROOT
BRANCH   2   5
ATOM      5  C   UNL     1      -1.014  10.754  18.774  0.00  0.00    +0.000 A 
ATOM      6  C   UNL     1      -1.523  11.805  19.534  0.00  0.00    +0.000 A 
ATOM      7  C   UNL     1      -2.855  12.190  19.390  0.00  0.00    +0.000 A 
ATOM      8  C   UNL     1      -3.719  11.527  18.514  0.00  0.00    +0.000 A 
ATOM      9  C   UNL     1      -3.200  10.457  17.767  0.00  0.00    +0.000 A 
ATOM     10  C   UNL     1      -1.857  10.076  17.892  0.00  0.00    +0.000 A 
BRANCH   8  11
ATOM     11  N   UNL     1      -5.081  11.916  18.399  0.00  0.00    +0.000 N 
ATOM     12  C   UNL     1      -5.690  12.277  17.136  0.00  0.00    +0.000 C 
ATOM     13  C   UNL     1      -6.994  12.928  17.524  0.00  0.00    +0.000 C 
ATOM     14  C   UNL     1      -7.377  12.227  18.814  0.00  0.00    +0.000 C 
ATOM     15  C   UNL     1      -6.047  11.855  19.413  0.00  0.00    +0.000 C 
ATOM     16  O   UNL     1      -5.931  11.535  20.586  0.00  0.00    +0.000 OA
ENDBRANCH   8  11
ENDBRANCH   2   5
BRANCH   3  17
ATOM     17  C   UNL     1       2.254   9.093  17.834  0.00  0.00    +0.000 C 
BRANCH  17  18
ATOM     18  C   UNL     1       2.260   7.570  17.946  0.00  0.00    +0.000 C 
BRANCH  18  19
ATOM     19  C   UNL     1       2.475   7.060  19.382  0.00  0.00    +0.000 C 
BRANCH  19  20
ATOM     20  N   UNL     1       2.412   5.591  19.529  0.00  0.00    +0.000 NA
ATOM     21  C   UNL     1       1.540   5.183  20.632  0.00  0.00    +0.000 C 
ATOM     22  C   UNL     1       2.028   3.885  21.279  0.00  0.00    +0.000 C 
ATOM     23  C   UNL     1       1.628   2.614  20.545  0.00  0.00    +0.000 C 
ATOM     24  C   UNL     1       2.098   2.547  19.098  0.00  0.00    +0.000 C 
ATOM     25  C   UNL     1       1.423   3.593  18.218  0.00  0.00    +0.000 C 
ATOM     26  C   UNL     1       2.096   4.971  18.231  0.00  0.00    +0.000 C 
ENDBRANCH  19  20
ENDBRANCH  18  19
ENDBRANCH  17  18
ENDBRANCH   3  17
TORSDOF 6
ENDMDL
MODEL 4
REMARK VINA RESULT:      -7.7      0.882      1.380
REMARK  Name = 
REMARK  6 active torsions:
REMARK  status: ('A' for Active; 'I' for Inactive)
REMARK    1  A    between atoms: C_2  and  C_14
REMARK    2  A    between atoms: N_3  and  C_4
REMARK    3  A    between atoms: C_4  and  C_5
REMARK    4  A    between atoms: C_5  and  C_6
REMARK    5  A    between atoms: C_6  and  N_7
REMARK    6  A    between atoms: C_17  and  N_18
REMARK                            x       y       z     vdW  Elec       q    Type
REMARK                         _______ _______ _______ _____ _____    ______ ____
ROOT
ATOM      1  O   UNL     1       7.775   6.806  16.391  0.00  0.00    +0.000 OA
ATOM      2  C   UNL     1       7.047   7.144  17.320  0.00  0.00    +0.000 C 
ATOM      3  N   UNL     1       7.201   8.319  18.021  0.00  0.00    +0.000 N 
ATOM      4  H   UNL     1       6.494   8.624  18.675  0.00  0.00    +0.000 HD
ENDROOT
BRANCH   2   5
ATOM      5  C   UNL     1       5.903   6.292  17.721  0.00  0.00    +0.000 A 
ATOM      6  C   UNL     1       6.095   5.060  18.342  0.00  0.00    +0.000 A 
ATOM      7  C   UNL     1       4.997   4.286  18.716  0.00  0.00    +0.000 A 
ATOM      8  C   UNL     1       3.687   4.702  18.458  0.00  0.00    +0.000 A 
ATOM      9  C   UNL     1       3.506   5.937  17.815  0.00  0.00    +0.000 A 
ATOM     10  C   UNL     1       4.604   6.729  17.453  0.00  0.00    +0.000 A 
BRANCH   8  11
ATOM     11  N   UNL     1       2.579   3.890  18.822  0.00  0.00    +0.000 N 
ATOM     12  C   UNL     1       1.566   4.321  19.761  0.00  0.00    +0.000 C 
ATOM     13  C   UNL     1       0.809   3.060  20.098  0.00  0.00    +0.000 C 
ATOM     14  C   UNL     1       0.909   2.231  18.831  0.00  0.00    +0.000 C 
ATOM     15  C   UNL     1       2.220   2.668  18.235  0.00  0.00    +0.000 C 
ATOM     16  O   UNL     1       2.786   2.022  17.367  0.00  0.00    +0.000 OA
ENDBRANCH   8  11
ENDBRANCH   2   5
BRANCH   3  17
ATOM     17  C   UNL     1       8.226   9.280  17.682  0.00  0.00    +0.000 C 
BRANCH  17  18
ATOM     18  C   UNL     1       9.163   9.565  18.853  0.00  0.00    +0.000 C 
BRANCH  18  19
ATOM     19  C   UNL     1       9.057  11.004  19.388  0.00  0.00    +0.000 C 
BRANCH  19  20
ATOM     20  N   UNL     1       9.629  12.035  18.498  0.00  0.00    +0.000 NA
ATOM     21  C   UNL     1       9.648  13.359  19.125  0.00  0.00    +0.000 C 
ATOM     22  C   UNL     1       9.475  14.471  18.088  0.00  0.00    +0.000 C 
ATOM     23  C   UNL     1      10.744  14.851  17.340  0.00  0.00    +0.000 C 
ATOM     24  C   UNL     1      11.404  13.700  16.593  0.00  0.00    +0.000 C 
ATOM     25  C   UNL     1      11.953  12.634  17.535  0.00  0.00    +0.000 C 
ATOM     26  C   UNL     1      10.930  11.581  17.977  0.00  0.00    +0.000 C 
ENDBRANCH  19  20
ENDBRANCH  18  19
ENDBRANCH  17  18
ENDBRANCH   3  17
TORSDOF 6
ENDMDL
MODEL 5
REMARK VINA RESULT:      -7.7      5.883      9.179
REMARK  Name = 
REMARK  6 active torsions:
REMARK  status: ('A' for Active; 'I' for Inactive)
REMARK    1  A    between atoms: C_2  and  C_14
REMARK    2  A    between atoms: N_3  and  C_4
REMARK    3  A    between atoms: C_4  and  C_5
REMARK    4  A    between atoms: C_5  and  C_6
REMARK    5  A    between atoms: C_6  and  N_7
REMARK    6  A    between atoms: C_17  and  N_18
REMARK                            x       y       z     vdW  Elec       q    Type
REMARK                         _______ _______ _______ _____ _____    ______ ____
ROOT
ATOM      1  O   UNL     1       4.522   5.700  19.589  0.00  0.00    +0.000 OA
ATOM      2  C   UNL     1       3.905   6.192  18.649  0.00  0.00    +0.000 C 
ATOM      3  N   UNL     1       4.058   5.788  17.342  0.00  0.00    +0.000 N 
ATOM      4  H   UNL     1       3.426   6.116  16.625  0.00  0.00    +0.000 HD
ENDROOT
BRANCH   2   5
ATOM      5  C   UNL     1       2.900   7.255  18.889  0.00  0.00    +0.000 A 
ATOM      6  C   UNL     1       2.180   7.320  20.079  0.00  0.00    +0.000 A 
ATOM      7  C   UNL     1       1.249   8.339  20.278  0.00  0.00    +0.000 A 
ATOM      8  C   UNL     1       0.990   9.297  19.293  0.00  0.00    +0.000 A 
ATOM      9  C   UNL     1       1.709   9.210  18.090  0.00  0.00    +0.000 A 
ATOM     10  C   UNL     1       2.660   8.200  17.890  0.00  0.00    +0.000 A 
BRANCH   8  11
ATOM     11  N   UNL     1       0.019  10.313  19.501  0.00  0.00    +0.000 N 
ATOM     12  C   UNL     1      -1.235  10.359  18.781  0.00  0.00    +0.000 C 
ATOM     13  C   UNL     1      -1.774  11.740  19.058  0.00  0.00    +0.000 C 
ATOM     14  C   UNL     1      -1.244  12.063  20.442  0.00  0.00    +0.000 C 
ATOM     15  C   UNL     1       0.047  11.291  20.505  0.00  0.00    +0.000 C 
ATOM     16  O   UNL     1       0.901  11.525  21.346  0.00  0.00    +0.000 OA
ENDBRANCH   8  11
ENDBRANCH   2   5
BRANCH   3  17
ATOM     17  C   UNL     1       4.945   4.707  16.977  0.00  0.00    +0.000 C 
BRANCH  17  18
ATOM     18  C   UNL     1       4.192   3.506  16.411  0.00  0.00    +0.000 C 
BRANCH  18  19
ATOM     19  C   UNL     1       3.871   2.430  17.463  0.00  0.00    +0.000 C 
BRANCH  19  20
ATOM     20  N   UNL     1       3.205   2.939  18.680  0.00  0.00    +0.000 NA
ATOM     21  C   UNL     1       1.760   2.704  18.660  0.00  0.00    +0.000 C 
ATOM     22  C   UNL     1       1.004   3.806  19.406  0.00  0.00    +0.000 C 
ATOM     23  C   UNL     1       0.968   3.647  20.917  0.00  0.00    +0.000 C 
ATOM     24  C   UNL     1       2.339   3.578  21.577  0.00  0.00    +0.000 C 
ATOM     25  C   UNL     1       3.109   2.321  21.190  0.00  0.00    +0.000 C 
ATOM     26  C   UNL     1       3.896   2.430  19.878  0.00  0.00    +0.000 C 
ENDBRANCH  19  20
ENDBRANCH  18  19
ENDBRANCH  17  18
ENDBRANCH   3  17
TORSDOF 6
ENDMDL
MODEL 6
REMARK VINA RESULT:      -7.6      1.420      1.698
REMARK  Name = 
REMARK  6 active torsions:
REMARK  status: ('A' for Active; 'I' for Inactive)
REMARK    1  A    between atoms: C_2  and  C_14
REMARK    2  A    between atoms: N_3  and  C_4
REMARK    3  A    between atoms: C_4  and  C_5
REMARK    4  A    between atoms: C_5  and  C_6
REMARK    5  A    between atoms: C_6  and  N_7
REMARK    6  A    between atoms: C_17  and  N_18
REMARK                            x       y       z     vdW  Elec       q    Type
REMARK                         _______ _______ _______ _____ _____    ______ ____
ROOT
ATOM      1  O   UNL     1       7.750   6.577  16.278  0.00  0.00    +0.000 OA
ATOM      2  C   UNL     1       7.064   6.961  17.220  0.00  0.00    +0.000 C 
ATOM      3  N   UNL     1       7.278   8.147  17.885  0.00  0.00    +0.000 N 
ATOM      4  H   UNL     1       6.602   8.492  18.553  0.00  0.00    +0.000 HD
ENDROOT
BRANCH   2   5
ATOM      5  C   UNL     1       5.906   6.157  17.678  0.00  0.00    +0.000 A 
ATOM      6  C   UNL     1       6.073   5.038  18.490  0.00  0.00    +0.000 A 
ATOM      7  C   UNL     1       4.961   4.309  18.913  0.00  0.00    +0.000 A 
ATOM      8  C   UNL     1       3.665   4.655  18.517  0.00  0.00    +0.000 A 
ATOM      9  C   UNL     1       3.511   5.774  17.683  0.00  0.00    +0.000 A 
ATOM     10  C   UNL     1       4.622   6.523  17.270  0.00  0.00    +0.000 A 
BRANCH   8  11
ATOM     11  N   UNL     1       2.546   3.885  18.935  0.00  0.00    +0.000 N 
ATOM     12  C   UNL     1       2.213   2.604  18.350  0.00  0.00    +0.000 C 
ATOM     13  C   UNL     1       0.812   2.326  18.836  0.00  0.00    +0.000 C 
ATOM     14  C   UNL     1       0.758   3.009  20.190  0.00  0.00    +0.000 C 
ATOM     15  C   UNL     1       1.723   4.153  20.037  0.00  0.00    +0.000 C 
ATOM     16  O   UNL     1       1.736   5.098  20.812  0.00  0.00    +0.000 OA
ENDBRANCH   8  11
ENDBRANCH   2   5
BRANCH   3  17
ATOM     17  C   UNL     1       8.322   9.065  17.491  0.00  0.00    +0.000 C 
BRANCH  17  18
ATOM     18  C   UNL     1       8.860   9.873  18.668  0.00  0.00    +0.000 C 
BRANCH  18  19
ATOM     19  C   UNL     1       9.707  11.086  18.245  0.00  0.00    +0.000 C 
BRANCH  19  20
ATOM     20  N   UNL     1       9.598  12.256  19.141  0.00  0.00    +0.000 NA
ATOM     21  C   UNL     1      10.479  12.145  20.306  0.00  0.00    +0.000 C 
ATOM     22  C   UNL     1       9.876  12.836  21.530  0.00  0.00    +0.000 C 
ATOM     23  C   UNL     1      10.072  14.343  21.576  0.00  0.00    +0.000 C 
ATOM     24  C   UNL     1       9.510  15.089  20.372  0.00  0.00    +0.000 C 
ATOM     25  C   UNL     1      10.253  14.757  19.084  0.00  0.00    +0.000 C 
ATOM     26  C   UNL     1       9.757  13.497  18.364  0.00  0.00    +0.000 C 
ENDBRANCH  19  20
ENDBRANCH  18  19
ENDBRANCH  17  18
ENDBRANCH   3  17
TORSDOF 6
ENDMDL
MODEL 7
REMARK VINA RESULT:      -7.6      4.752      7.875
REMARK  Name = 
REMARK  6 active torsions:
REMARK  status: ('A' for Active; 'I' for Inactive)
REMARK    1  A    between atoms: C_2  and  C_14
REMARK    2  A    between atoms: N_3  and  C_4
REMARK    3  A    between atoms: C_4  and  C_5
REMARK    4  A    between atoms: C_5  and  C_6
REMARK    5  A    between atoms: C_6  and  N_7
REMARK    6  A    between atoms: C_17  and  N_18
REMARK                            x       y       z     vdW  Elec       q    Type
REMARK                         _______ _______ _______ _____ _____    ______ ____
ROOT
ATOM      1  O   UNL     1       3.193   5.337  20.449  0.00  0.00    +0.000 OA
ATOM      2  C   UNL     1       2.512   5.662  19.481  0.00  0.00    +0.000 C 
ATOM      3  N   UNL     1       2.044   4.769  18.543  0.00  0.00    +0.000 N 
ATOM      4  H   UNL     1       1.367   5.058  17.851  0.00  0.00    +0.000 HD
ENDROOT
BRANCH   2   5
ATOM      5  C   UNL     1       2.112   7.077  19.290  0.00  0.00    +0.000 A 
ATOM      6  C   UNL     1       2.280   7.721  18.066  0.00  0.00    +0.000 A 
ATOM      7  C   UNL     1       1.884   9.049  17.916  0.00  0.00    +0.000 A 
ATOM      8  C   UNL     1       1.341   9.777  18.980  0.00  0.00    +0.000 A 
ATOM      9  C   UNL     1       1.194   9.122  20.214  0.00  0.00    +0.000 A 
ATOM     10  C   UNL     1       1.572   7.781  20.367  0.00  0.00    +0.000 A 
BRANCH   8  11
ATOM     11  N   UNL     1       0.967  11.138  18.817  0.00  0.00    +0.000 N 
ATOM     12  C   UNL     1       1.929  12.191  18.570  0.00  0.00    +0.000 C 
ATOM     13  C   UNL     1       1.155  13.465  18.804  0.00  0.00    +0.000 C 
ATOM     14  C   UNL     1      -0.264  13.102  18.406  0.00  0.00    +0.000 C 
ATOM     15  C   UNL     1      -0.341  11.630  18.709  0.00  0.00    +0.000 C 
ATOM     16  O   UNL     1      -1.408  11.040  18.795  0.00  0.00    +0.000 OA
ENDBRANCH   8  11
ENDBRANCH   2   5
BRANCH   3  17
ATOM     17  C   UNL     1       2.291   3.350  18.653  0.00  0.00    +0.000 C 
BRANCH  17  18
ATOM     18  C   UNL     1       3.590   2.933  17.967  0.00  0.00    +0.000 C 
BRANCH  18  19
ATOM     19  C   UNL     1       4.037   3.902  16.858  0.00  0.00    +0.000 C 
BRANCH  19  20
ATOM     20  N   UNL     1       5.073   4.872  17.270  0.00  0.00    +0.000 NA
ATOM     21  C   UNL     1       5.991   4.313  18.264  0.00  0.00    +0.000 C 
ATOM     22  C   UNL     1       6.504   5.392  19.220  0.00  0.00    +0.000 C 
ATOM     23  C   UNL     1       7.657   6.227  18.684  0.00  0.00    +0.000 C 
ATOM     24  C   UNL     1       7.356   6.952  17.379  0.00  0.00    +0.000 C 
ATOM     25  C   UNL     1       7.152   5.992  16.214  0.00  0.00    +0.000 C 
ATOM     26  C   UNL     1       5.726   5.442  16.079  0.00  0.00    +0.000 C 
ENDBRANCH  19  20
ENDBRANCH  18  19
ENDBRANCH  17  18
ENDBRANCH   3  17
TORSDOF 6
ENDMDL
MODEL 8
REMARK VINA RESULT:      -7.6      2.208     10.582
REMARK  Name = 
REMARK  6 active torsions:
REMARK  status: ('A' for Active; 'I' for Inactive)
REMARK    1  A    between atoms: C_2  and  C_14
REMARK    2  A    between atoms: N_3  and  C_4
REMARK    3  A    between atoms: C_4  and  C_5
REMARK    4  A    between atoms: C_5  and  C_6
REMARK    5  A    between atoms: C_6  and  N_7
REMARK    6  A    between atoms: C_17  and  N_18
REMARK                            x       y       z     vdW  Elec       q    Type
REMARK                         _______ _______ _______ _____ _____    ______ ____
ROOT
ATOM      1  O   UNL     1       7.361   8.264  16.953  0.00  0.00    +0.000 OA
ATOM      2  C   UNL     1       8.014   8.354  17.988  0.00  0.00    +0.000 C 
ATOM      3  N   UNL     1       8.289   7.287  18.813  0.00  0.00    +0.000 N 
ATOM      4  H   UNL     1       8.952   7.379  19.570  0.00  0.00    +0.000 HD
ENDROOT
BRANCH   2   5
ATOM      5  C   UNL     1       8.594   9.657  18.394  0.00  0.00    +0.000 A 
ATOM      6  C   UNL     1       8.462  10.792  17.597  0.00  0.00    +0.000 A 
ATOM      7  C   UNL     1       9.011  12.005  18.012  0.00  0.00    +0.000 A 
ATOM      8  C   UNL     1       9.724  12.114  19.210  0.00  0.00    +0.000 A 
ATOM      9  C   UNL     1       9.867  10.959  19.996  0.00  0.00    +0.000 A 
ATOM     10  C   UNL     1       9.301   9.741  19.594  0.00  0.00    +0.000 A 
BRANCH   8  11
ATOM     11  N   UNL     1      10.299  13.352  19.606  0.00  0.00    +0.000 N 
ATOM     12  C   UNL     1      10.054  13.952  20.900  0.00  0.00    +0.000 C 
ATOM     13  C   UNL     1      10.562  15.365  20.757  0.00  0.00    +0.000 C 
ATOM     14  C   UNL     1      11.695  15.241  19.756  0.00  0.00    +0.000 C 
ATOM     15  C   UNL     1      11.277  14.072  18.906  0.00  0.00    +0.000 C 
ATOM     16  O   UNL     1      11.785  13.847  17.818  0.00  0.00    +0.000 OA
ENDBRANCH   8  11
ENDBRANCH   2   5
BRANCH   3  17
ATOM     17  C   UNL     1       7.854   5.947  18.495  0.00  0.00    +0.000 C 
BRANCH  17  18
ATOM     18  C   UNL     1       6.712   5.479  19.393  0.00  0.00    +0.000 C 
BRANCH  18  19
ATOM     19  C   UNL     1       5.331   5.544  18.716  0.00  0.00    +0.000 C 
BRANCH  19  20
ATOM     20  N   UNL     1       4.234   4.936  19.497  0.00  0.00    +0.000 NA
ATOM     21  C   UNL     1       2.931   5.520  19.168  0.00  0.00    +0.000 C 
ATOM     22  C   UNL     1       1.997   5.520  20.380  0.00  0.00    +0.000 C 
ATOM     23  C   UNL     1       1.293   4.198  20.645  0.00  0.00    +0.000 C 
ATOM     24  C   UNL     1       2.230   3.016  20.856  0.00  0.00    +0.000 C 
ATOM     25  C   UNL     1       3.010   2.660  19.596  0.00  0.00    +0.000 C 
ATOM     26  C   UNL     1       4.297   3.469  19.389  0.00  0.00    +0.000 C 
ENDBRANCH  19  20
ENDBRANCH  18  19
ENDBRANCH  17  18
ENDBRANCH   3  17
TORSDOF 6
ENDMDL
MODEL 9
REMARK VINA RESULT:      -7.6      2.089     10.623
REMARK  Name = 
REMARK  6 active torsions:
REMARK  status: ('A' for Active; 'I' for Inactive)
REMARK    1  A    between atoms: C_2  and  C_14
REMARK    2  A    between atoms: N_3  and  C_4
REMARK    3  A    between atoms: C_4  and  C_5
REMARK    4  A    between atoms: C_5  and  C_6
REMARK    5  A    between atoms: C_6  and  N_7
REMARK    6  A    between atoms: C_17  and  N_18
REMARK                            x       y       z     vdW  Elec       q    Type
REMARK                         _______ _______ _______ _____ _____    ______ ____
ROOT
ATOM      1  O   UNL     1       7.203   8.178  16.926  0.00  0.00    +0.000 OA
ATOM      2  C   UNL     1       7.899   8.249  17.933  0.00  0.00    +0.000 C 
ATOM      3  N   UNL     1       8.184   7.171  18.741  0.00  0.00    +0.000 N 
ATOM      4  H   UNL     1       8.878   7.244  19.471  0.00  0.00    +0.000 HD
ENDROOT
BRANCH   2   5
ATOM      5  C   UNL     1       8.523   9.536  18.322  0.00  0.00    +0.000 A 
ATOM      6  C   UNL     1       9.283   9.655  19.483  0.00  0.00    +0.000 A 
ATOM      7  C   UNL     1       9.865  10.878  19.816  0.00  0.00    +0.000 A 
ATOM      8  C   UNL     1       9.683  12.015  19.022  0.00  0.00    +0.000 A 
ATOM      9  C   UNL     1       8.900  11.887  17.864  0.00  0.00    +0.000 A 
ATOM     10  C   UNL     1       8.328  10.657  17.513  0.00  0.00    +0.000 A 
BRANCH   8  11
ATOM     11  N   UNL     1      10.262  13.260  19.389  0.00  0.00    +0.000 N 
ATOM     12  C   UNL     1       9.812  14.027  20.531  0.00  0.00    +0.000 C 
ATOM     13  C   UNL     1      10.445  15.383  20.342  0.00  0.00    +0.000 C 
ATOM     14  C   UNL     1      11.741  15.077  19.613  0.00  0.00    +0.000 C 
ATOM     15  C   UNL     1      11.411  13.836  18.829  0.00  0.00    +0.000 C 
ATOM     16  O   UNL     1      12.104  13.452  17.900  0.00  0.00    +0.000 OA
ENDBRANCH   8  11
ENDBRANCH   2   5
BRANCH   3  17
ATOM     17  C   UNL     1       7.707   5.842  18.434  0.00  0.00    +0.000 C 
BRANCH  17  18
ATOM     18  C   UNL     1       6.360   5.544  19.087  0.00  0.00    +0.000 C 
BRANCH  18  19
ATOM     19  C   UNL     1       5.557   4.447  18.365  0.00  0.00    +0.000 C 
BRANCH  19  20
ATOM     20  N   UNL     1       4.326   4.024  19.064  0.00  0.00    +0.000 NA
ATOM     21  C   UNL     1       3.335   5.099  19.140  0.00  0.00    +0.000 C 
ATOM     22  C   UNL     1       2.493   4.994  20.413  0.00  0.00    +0.000 C 
ATOM     23  C   UNL     1       1.347   3.997  20.342  0.00  0.00    +0.000 C 
ATOM     24  C   UNL     1       1.772   2.570  20.019  0.00  0.00    +0.000 C 
ATOM     25  C   UNL     1       2.335   2.436  18.609  0.00  0.00    +0.000 C 
ATOM     26  C   UNL     1       3.828   2.765  18.483  0.00  0.00    +0.000 C 
ENDBRANCH  19  20
ENDBRANCH  18  19
ENDBRANCH  17  18
ENDBRANCH   3  17
TORSDOF 6
ENDMDL
