MODEL 1
REMARK VINA RESULT:      -7.3      0.000      0.000
REMARK  Name = 
REMARK  8 active torsions:
REMARK  status: ('A' for Active; 'I' for Inactive)
REMARK    1  A    between atoms: C_1  and  C_2
REMARK    2  A    between atoms: C_3  and  O_4
REMARK    3  A    between atoms: C_5  and  O_6
REMARK    4  A    between atoms: N_9  and  C_10
REMARK    5  A    between atoms: C_10  and  C_11
REMARK    6  A    between atoms: C_10  and  C_13
REMARK    7  A    between atoms: C_11  and  O_12
REMARK    8  A    between atoms: C_13  and  C_14
REMARK                            x       y       z     vdW  Elec       q    Type
REMARK                         _______ _______ _______ _____ _____    ______ ____
ROOT
ATOM      1  C   UNL     1       5.465   4.099  15.342  0.00  0.00    +0.000 C 
ATOM      2  C   UNL     1       5.728   4.563  16.752  0.00  0.00    +0.000 A 
ATOM      3  C   UNL     1       6.752   5.506  16.995  0.00  0.00    +0.000 A 
ATOM      4  C   UNL     1       7.082   5.862  18.292  0.00  0.00    +0.000 A 
ATOM      5  C   UNL     1       6.406   5.314  19.353  0.00  0.00    +0.000 A 
ATOM      6  C   UNL     1       5.390   4.411  19.097  0.00  0.00    +0.000 A 
ATOM      7  N   UNL     1       5.022   4.059  17.832  0.00  0.00    +0.000 N 
ENDROOT
BRANCH   3   8
ATOM      8  O   UNL     1       7.503   6.115  16.023  0.00  0.00    +0.000 OA
ATOM      9  H   UNL     1       7.572   5.565  15.223  0.00  0.00    +0.000 HD
ENDBRANCH   3   8
BRANCH   4  10
ATOM     10  O   UNL     1       8.082   6.752  18.541  0.00  0.00    +0.000 OA
ATOM     11  H   UNL     1       7.727   7.640  18.331  0.00  0.00    +0.000 HD
ENDBRANCH   4  10
BRANCH   7  12
ATOM     12  C   UNL     1       3.853   3.095  17.645  0.00  0.00    +0.000 C 
BRANCH  12  13
ATOM     13  C   UNL     1       3.835   2.082  18.808  0.00  0.00    +0.000 C 
BRANCH  13  14
ATOM     14  O   UNL     1       4.008   0.756  18.335  0.00  0.00    +0.000 OA
ATOM     15  H   UNL     1       3.356   0.176  18.777  0.00  0.00    +0.000 HD
ENDBRANCH  13  14
ENDBRANCH  12  13
BRANCH  12  16
ATOM     16  C   UNL     1       2.469   3.782  17.580  0.00  0.00    +0.000 C 
BRANCH  16  17
ATOM     17  C   UNL     1       2.209   4.988  18.448  0.00  0.00    +0.000 A 
ATOM     18  C   UNL     1       1.828   4.888  19.790  0.00  0.00    +0.000 A 
ATOM     19  C   UNL     1       1.738   6.031  20.591  0.00  0.00    +0.000 A 
ATOM     20  C   UNL     1       2.036   7.285  20.062  0.00  0.00    +0.000 A 
ATOM     21  C   UNL     1       2.415   7.403  18.732  0.00  0.00    +0.000 A 
ATOM     22  C   UNL     1       2.497   6.268  17.932  0.00  0.00    +0.000 A 
ENDBRANCH  16  17
ENDBRANCH  12  16
ENDBRANCH   7  12
TORSDOF 7
ENDMDL
MODEL 2
REMARK VINA RESULT:      -7.1      2.159      3.723
REMARK  Name = 
REMARK  8 active torsions:
REMARK  status: ('A' for Active; 'I' for Inactive)
REMARK    1  A    between atoms: C_1  and  C_2
REMARK    2  A    between atoms: C_3  and  O_4
REMARK    3  A    between atoms: C_5  and  O_6
REMARK    4  A    between atoms: N_9  and  C_10
REMARK    5  A    between atoms: C_10  and  C_11
REMARK    6  A    between atoms: C_10  and  C_13
REMARK    7  A    between atoms: C_11  and  O_12
REMARK    8  A    between atoms: C_13  and  C_14
REMARK                            x       y       z     vdW  Elec       q    Type
REMARK                         _______ _______ _______ _____ _____    ______ ____
ROOT
ATOM      1  C   UNL     1       5.954   5.052  19.392  0.00  0.00    +0.000 C 
ATOM      2  C   UNL     1       5.840   5.291  17.907  0.00  0.00    +0.000 A 
ATOM      3  C   UNL     1       6.885   4.873  17.053  0.00  0.00    +0.000 A 
ATOM      4  C   UNL     1       6.850   5.180  15.703  0.00  0.00    +0.000 A 
ATOM      5  C   UNL     1       5.791   5.878  15.180  0.00  0.00    +0.000 A 
ATOM      6  C   UNL     1       4.764   6.259  16.026  0.00  0.00    +0.000 A 
ATOM      7  N   UNL     1       4.755   5.951  17.354  0.00  0.00    +0.000 N 
ENDROOT
BRANCH   3   8
ATOM      8  O   UNL     1       7.996   4.179  17.456  0.00  0.00    +0.000 OA
ATOM      9  H   UNL     1       8.385   4.557  18.264  0.00  0.00    +0.000 HD
ENDBRANCH   3   8
BRANCH   4  10
ATOM     10  O   UNL     1       7.860   4.802  14.873  0.00  0.00    +0.000 OA
ATOM     11  H   UNL     1       7.742   3.846  14.701  0.00  0.00    +0.000 HD
ENDBRANCH   4  10
BRANCH   7  12
ATOM     12  C   UNL     1       3.554   6.367  18.199  0.00  0.00    +0.000 C 
BRANCH  12  13
ATOM     13  C   UNL     1       3.162   7.818  17.850  0.00  0.00    +0.000 C 
BRANCH  13  14
ATOM     14  O   UNL     1       2.080   8.263  18.653  0.00  0.00    +0.000 OA
ATOM     15  H   UNL     1       2.421   8.505  19.536  0.00  0.00    +0.000 HD
ENDBRANCH  13  14
ENDBRANCH  12  13
BRANCH  12  16
ATOM     16  C   UNL     1       2.308   5.470  18.014  0.00  0.00    +0.000 C 
BRANCH  16  17
ATOM     17  C   UNL     1       1.912   4.530  19.126  0.00  0.00    +0.000 A 
ATOM     18  C   UNL     1       1.273   3.308  18.893  0.00  0.00    +0.000 A 
ATOM     19  C   UNL     1       1.056   2.408  19.943  0.00  0.00    +0.000 A 
ATOM     20  C   UNL     1       1.482   2.717  21.233  0.00  0.00    +0.000 A 
ATOM     21  C   UNL     1       2.117   3.925  21.481  0.00  0.00    +0.000 A 
ATOM     22  C   UNL     1       2.327   4.825  20.440  0.00  0.00    +0.000 A 
ENDBRANCH  16  17
ENDBRANCH  12  16
ENDBRANCH   7  12
TORSDOF 7
ENDMDL
MODEL 3
REMARK VINA RESULT:      -7.1      2.161      3.728
REMARK  Name = 
REMARK  8 active torsions:
REMARK  status: ('A' for Active; 'I' for Inactive)
REMARK    1  A    between atoms: C_1  and  C_2
REMARK    2  A    between atoms: C_3  and  O_4
REMARK    3  A    between atoms: C_5  and  O_6
REMARK    4  A    between atoms: N_9  and  C_10
REMARK    5  A    between atoms: C_10  and  C_11
REMARK    6  A    between atoms: C_10  and  C_13
REMARK    7  A    between atoms: C_11  and  O_12
REMARK    8  A    between atoms: C_13  and  C_14
REMARK                            x       y       z     vdW  Elec       q    Type
REMARK                         _______ _______ _______ _____ _____    ______ ____
ROOT
ATOM      1  C   UNL     1       6.097   5.227  19.370  0.00  0.00    +0.000 C 
ATOM      2  C   UNL     1       5.930   5.365  17.878  0.00  0.00    +0.000 A 
ATOM      3  C   UNL     1       6.938   4.877  17.016  0.00  0.00    +0.000 A 
ATOM      4  C   UNL     1       6.855   5.091  15.651  0.00  0.00    +0.000 A 
ATOM      5  C   UNL     1       5.783   5.763  15.120  0.00  0.00    +0.000 A 
ATOM      6  C   UNL     1       4.793   6.213  15.975  0.00  0.00    +0.000 A 
ATOM      7  N   UNL     1       4.830   5.997  17.321  0.00  0.00    +0.000 N 
ENDROOT
BRANCH   3   8
ATOM      8  O   UNL     1       8.058   4.200  17.425  0.00  0.00    +0.000 OA
ATOM      9  H   UNL     1       7.882   3.251  17.550  0.00  0.00    +0.000 HD
ENDBRANCH   3   8
BRANCH   4  10
ATOM     10  O   UNL     1       7.831   4.647  14.812  0.00  0.00    +0.000 OA
ATOM     11  H   UNL     1       7.424   4.564  13.925  0.00  0.00    +0.000 HD
ENDBRANCH   4  10
BRANCH   7  12
ATOM     12  C   UNL     1       3.665   6.483  18.178  0.00  0.00    +0.000 C 
BRANCH  12  13
ATOM     13  C   UNL     1       3.306   7.929  17.780  0.00  0.00    +0.000 C 
BRANCH  13  14
ATOM     14  O   UNL     1       1.916   8.171  17.928  0.00  0.00    +0.000 OA
ATOM     15  H   UNL     1       1.443   7.316  17.916  0.00  0.00    +0.000 HD
ENDBRANCH  13  14
ENDBRANCH  12  13
BRANCH  12  16
ATOM     16  C   UNL     1       2.389   5.617  18.064  0.00  0.00    +0.000 C 
BRANCH  16  17
ATOM     17  C   UNL     1       2.094   4.604  19.142  0.00  0.00    +0.000 A 
ATOM     18  C   UNL     1       2.454   4.795  20.480  0.00  0.00    +0.000 A 
ATOM     19  C   UNL     1       2.033   3.894  21.465  0.00  0.00    +0.000 A 
ATOM     20  C   UNL     1       1.240   2.800  21.125  0.00  0.00    +0.000 A 
ATOM     21  C   UNL     1       0.873   2.596  19.802  0.00  0.00    +0.000 A 
ATOM     22  C   UNL     1       1.299   3.486  18.820  0.00  0.00    +0.000 A 
ENDBRANCH  16  17
ENDBRANCH  12  16
ENDBRANCH   7  12
TORSDOF 7
ENDMDL
MODEL 4
REMARK VINA RESULT:      -7.0      0.509      1.215
REMARK  Name = 
REMARK  8 active torsions:
REMARK  status: ('A' for Active; 'I' for Inactive)
REMARK    1  A    between atoms: C_1  and  C_2
REMARK    2  A    between atoms: C_3  and  O_4
REMARK    3  A    between atoms: C_5  and  O_6
REMARK    4  A    between atoms: N_9  and  C_10
REMARK    5  A    between atoms: C_10  and  C_11
REMARK    6  A    between atoms: C_10  and  C_13
REMARK    7  A    between atoms: C_11  and  O_12
REMARK    8  A    between atoms: C_13  and  C_14
REMARK                            x       y       z     vdW  Elec       q    Type
REMARK                         _______ _______ _______ _____ _____    ______ ____
ROOT
ATOM      1  C   UNL     1       5.307   4.466  15.225  0.00  0.00    +0.000 C 
ATOM      2  C   UNL     1       5.632   4.767  16.666  0.00  0.00    +0.000 A 
ATOM      3  C   UNL     1       6.722   5.612  16.972  0.00  0.00    +0.000 A 
ATOM      4  C   UNL     1       7.104   5.812  18.288  0.00  0.00    +0.000 A 
ATOM      5  C   UNL     1       6.415   5.206  19.308  0.00  0.00    +0.000 A 
ATOM      6  C   UNL     1       5.335   4.401  18.992  0.00  0.00    +0.000 A 
ATOM      7  N   UNL     1       4.917   4.203  17.710  0.00  0.00    +0.000 N 
ENDROOT
BRANCH   3   8
ATOM      8  O   UNL     1       7.492   6.265  16.044  0.00  0.00    +0.000 OA
ATOM      9  H   UNL     1       8.441   6.096  16.178  0.00  0.00    +0.000 HD
ENDBRANCH   3   8
BRANCH   4  10
ATOM     10  O   UNL     1       8.166   6.606  18.595  0.00  0.00    +0.000 OA
ATOM     11  H   UNL     1       8.972   6.108  18.347  0.00  0.00    +0.000 HD
ENDBRANCH   4  10
BRANCH   7  12
ATOM     12  C   UNL     1       3.682   3.341  17.462  0.00  0.00    +0.000 C 
BRANCH  12  13
ATOM     13  C   UNL     1       3.680   2.154  18.447  0.00  0.00    +0.000 C 
BRANCH  13  14
ATOM     14  O   UNL     1       2.371   1.638  18.626  0.00  0.00    +0.000 OA
ATOM     15  H   UNL     1       1.837   1.851  17.835  0.00  0.00    +0.000 HD
ENDBRANCH  13  14
ENDBRANCH  12  13
BRANCH  12  16
ATOM     16  C   UNL     1       2.341   4.097  17.611  0.00  0.00    +0.000 C 
BRANCH  16  17
ATOM     17  C   UNL     1       2.273   5.294  18.526  0.00  0.00    +0.000 A 
ATOM     18  C   UNL     1       2.469   6.604  18.076  0.00  0.00    +0.000 A 
ATOM     19  C   UNL     1       2.255   7.689  18.932  0.00  0.00    +0.000 A 
ATOM     20  C   UNL     1       1.834   7.478  20.244  0.00  0.00    +0.000 A 
ATOM     21  C   UNL     1       1.636   6.185  20.707  0.00  0.00    +0.000 A 
ATOM     22  C   UNL     1       1.856   5.103  19.859  0.00  0.00    +0.000 A 
ENDBRANCH  16  17
ENDBRANCH  12  16
ENDBRANCH   7  12
TORSDOF 7
ENDMDL
MODEL 5
REMARK VINA RESULT:      -6.7      2.411      5.534
REMARK  Name = 
REMARK  8 active torsions:
REMARK  status: ('A' for Active; 'I' for Inactive)
REMARK    1  A    between atoms: C_1  and  C_2
REMARK    2  A    between atoms: C_3  and  O_4
REMARK    3  A    between atoms: C_5  and  O_6
REMARK    4  A    between atoms: N_9  and  C_10
REMARK    5  A    between atoms: C_10  and  C_11
REMARK    6  A    between atoms: C_10  and  C_13
REMARK    7  A    between atoms: C_11  and  O_12
REMARK    8  A    between atoms: C_13  and  C_14
REMARK                            x       y       z     vdW  Elec       q    Type
REMARK                         _______ _______ _______ _____ _____    ______ ____
ROOT
ATOM      1  C   UNL     1       2.664   3.608  16.978  0.00  0.00    +0.000 C 
ATOM      2  C   UNL     1       2.488   3.986  18.427  0.00  0.00    +0.000 A 
ATOM      3  C   UNL     1       2.202   2.982  19.379  0.00  0.00    +0.000 A 
ATOM      4  C   UNL     1       1.928   3.322  20.694  0.00  0.00    +0.000 A 
ATOM      5  C   UNL     1       1.950   4.635  21.087  0.00  0.00    +0.000 A 
ATOM      6  C   UNL     1       2.256   5.605  20.148  0.00  0.00    +0.000 A 
ATOM      7  N   UNL     1       2.555   5.303  18.853  0.00  0.00    +0.000 N 
ENDROOT
BRANCH   3   8
ATOM      8  O   UNL     1       2.143   1.639  19.107  0.00  0.00    +0.000 OA
ATOM      9  H   UNL     1       2.893   1.348  18.561  0.00  0.00    +0.000 HD
ENDBRANCH   3   8
BRANCH   4  10
ATOM     10  O   UNL     1       1.629   2.366  21.615  0.00  0.00    +0.000 OA
ATOM     11  H   UNL     1       2.089   2.618  22.442  0.00  0.00    +0.000 HD
ENDBRANCH   4  10
BRANCH   7  12
ATOM     12  C   UNL     1       2.933   6.435  17.901  0.00  0.00    +0.000 C 
BRANCH  12  13
ATOM     13  C   UNL     1       2.095   7.686  18.236  0.00  0.00    +0.000 C 
BRANCH  13  14
ATOM     14  O   UNL     1       2.412   8.763  17.369  0.00  0.00    +0.000 OA
ATOM     15  H   UNL     1       3.297   9.106  17.602  0.00  0.00    +0.000 HD
ENDBRANCH  13  14
ENDBRANCH  12  13
BRANCH  12  16
ATOM     16  C   UNL     1       4.428   6.827  17.944  0.00  0.00    +0.000 C 
BRANCH  16  17
ATOM     17  C   UNL     1       5.410   6.062  17.091  0.00  0.00    +0.000 A 
ATOM     18  C   UNL     1       6.448   5.297  17.633  0.00  0.00    +0.000 A 
ATOM     19  C   UNL     1       7.243   4.493  16.809  0.00  0.00    +0.000 A 
ATOM     20  C   UNL     1       7.002   4.437  15.438  0.00  0.00    +0.000 A 
ATOM     21  C   UNL     1       5.977   5.189  14.884  0.00  0.00    +0.000 A 
ATOM     22  C   UNL     1       5.191   5.997  15.701  0.00  0.00    +0.000 A 
ENDBRANCH  16  17
ENDBRANCH  12  16
ENDBRANCH   7  12
TORSDOF 7
ENDMDL
MODEL 6
REMARK VINA RESULT:      -6.7      2.456      5.643
REMARK  Name = 
REMARK  8 active torsions:
REMARK  status: ('A' for Active; 'I' for Inactive)
REMARK    1  A    between atoms: C_1  and  C_2
REMARK    2  A    between atoms: C_3  and  O_4
REMARK    3  A    between atoms: C_5  and  O_6
REMARK    4  A    between atoms: N_9  and  C_10
REMARK    5  A    between atoms: C_10  and  C_11
REMARK    6  A    between atoms: C_10  and  C_13
REMARK    7  A    between atoms: C_11  and  O_12
REMARK    8  A    between atoms: C_13  and  C_14
REMARK                            x       y       z     vdW  Elec       q    Type
REMARK                         _______ _______ _______ _____ _____    ______ ____
ROOT
ATOM      1  C   UNL     1       2.399   3.607  17.081  0.00  0.00    +0.000 C 
ATOM      2  C   UNL     1       2.360   3.984  18.540  0.00  0.00    +0.000 A 
ATOM      3  C   UNL     1       2.092   2.991  19.509  0.00  0.00    +0.000 A 
ATOM      4  C   UNL     1       1.942   3.337  20.842  0.00  0.00    +0.000 A 
ATOM      5  C   UNL     1       2.072   4.644  21.236  0.00  0.00    +0.000 A 
ATOM      6  C   UNL     1       2.360   5.601  20.279  0.00  0.00    +0.000 A 
ATOM      7  N   UNL     1       2.538   5.292  18.963  0.00  0.00    +0.000 N 
ENDROOT
BRANCH   3   8
ATOM      8  O   UNL     1       1.932   1.657  19.239  0.00  0.00    +0.000 OA
ATOM      9  H   UNL     1       0.995   1.418  19.136  0.00  0.00    +0.000 HD
ENDBRANCH   3   8
BRANCH   4  10
ATOM     10  O   UNL     1       1.661   2.393  21.782  0.00  0.00    +0.000 OA
ATOM     11  H   UNL     1       2.351   2.468  22.472  0.00  0.00    +0.000 HD
ENDBRANCH   4  10
BRANCH   7  12
ATOM     12  C   UNL     1       2.905   6.407  17.987  0.00  0.00    +0.000 C 
BRANCH  12  13
ATOM     13  C   UNL     1       2.175   7.703  18.394  0.00  0.00    +0.000 C 
BRANCH  13  14
ATOM     14  O   UNL     1       2.307   8.701  17.394  0.00  0.00    +0.000 OA
ATOM     15  H   UNL     1       2.727   8.305  16.606  0.00  0.00    +0.000 HD
ENDBRANCH  13  14
ENDBRANCH  12  13
BRANCH  12  16
ATOM     16  C   UNL     1       4.420   6.707  17.908  0.00  0.00    +0.000 C 
BRANCH  16  17
ATOM     17  C   UNL     1       5.290   5.852  17.022  0.00  0.00    +0.000 A 
ATOM     18  C   UNL     1       5.146   5.811  15.631  0.00  0.00    +0.000 A 
ATOM     19  C   UNL     1       6.067   5.115  14.841  0.00  0.00    +0.000 A 
ATOM     20  C   UNL     1       7.147   4.461  15.431  0.00  0.00    +0.000 A 
ATOM     21  C   UNL     1       7.305   4.491  16.809  0.00  0.00    +0.000 A 
ATOM     22  C   UNL     1       6.385   5.176  17.597  0.00  0.00    +0.000 A 
ENDBRANCH  16  17
ENDBRANCH  12  16
ENDBRANCH   7  12
TORSDOF 7
ENDMDL
MODEL 7
REMARK VINA RESULT:      -6.6      1.628      4.341
REMARK  Name = 
REMARK  8 active torsions:
REMARK  status: ('A' for Active; 'I' for Inactive)
REMARK    1  A    between atoms: C_1  and  C_2
REMARK    2  A    between atoms: C_3  and  O_4
REMARK    3  A    between atoms: C_5  and  O_6
REMARK    4  A    between atoms: N_9  and  C_10
REMARK    5  A    between atoms: C_10  and  C_11
REMARK    6  A    between atoms: C_10  and  C_13
REMARK    7  A    between atoms: C_11  and  O_12
REMARK    8  A    between atoms: C_13  and  C_14
REMARK                            x       y       z     vdW  Elec       q    Type
REMARK                         _______ _______ _______ _____ _____    ______ ____
ROOT
ATOM      1  C   UNL     1       6.005   4.935  19.291  0.00  0.00    +0.000 C 
ATOM      2  C   UNL     1       4.724   4.375  18.728  0.00  0.00    +0.000 A 
ATOM      3  C   UNL     1       4.364   3.038  19.011  0.00  0.00    +0.000 A 
ATOM      4  C   UNL     1       3.250   2.472  18.415  0.00  0.00    +0.000 A 
ATOM      5  C   UNL     1       2.474   3.211  17.557  0.00  0.00    +0.000 A 
ATOM      6  C   UNL     1       2.826   4.526  17.310  0.00  0.00    +0.000 A 
ATOM      7  N   UNL     1       3.902   5.121  17.899  0.00  0.00    +0.000 N 
ENDROOT
BRANCH   3   8
ATOM      8  O   UNL     1       5.061   2.199  19.841  0.00  0.00    +0.000 OA
ATOM      9  H   UNL     1       5.265   1.351  19.410  0.00  0.00    +0.000 HD
ENDBRANCH   3   8
BRANCH   4  10
ATOM     10  O   UNL     1       2.905   1.179  18.661  0.00  0.00    +0.000 OA
ATOM     11  H   UNL     1       3.231   0.651  17.904  0.00  0.00    +0.000 HD
ENDBRANCH   4  10
BRANCH   7  12
ATOM     12  C   UNL     1       4.181   6.593  17.607  0.00  0.00    +0.000 C 
BRANCH  12  13
ATOM     13  C   UNL     1       5.057   6.706  16.342  0.00  0.00    +0.000 C 
BRANCH  13  14
ATOM     14  O   UNL     1       6.360   7.167  16.659  0.00  0.00    +0.000 OA
ATOM     15  H   UNL     1       7.013   6.634  16.165  0.00  0.00    +0.000 HD
ENDBRANCH  13  14
ENDBRANCH  12  13
BRANCH  12  16
ATOM     16  C   UNL     1       2.911   7.450  17.396  0.00  0.00    +0.000 C 
BRANCH  16  17
ATOM     17  C   UNL     1       2.235   8.064  18.597  0.00  0.00    +0.000 A 
ATOM     18  C   UNL     1       1.496   9.249  18.527  0.00  0.00    +0.000 A 
ATOM     19  C   UNL     1       0.770   9.700  19.634  0.00  0.00    +0.000 A 
ATOM     20  C   UNL     1       0.767   8.968  20.819  0.00  0.00    +0.000 A 
ATOM     21  C   UNL     1       1.495   7.790  20.906  0.00  0.00    +0.000 A 
ATOM     22  C   UNL     1       2.225   7.344  19.808  0.00  0.00    +0.000 A 
ENDBRANCH  16  17
ENDBRANCH  12  16
ENDBRANCH   7  12
TORSDOF 7
ENDMDL
MODEL 8
REMARK VINA RESULT:      -6.6      1.624      2.351
REMARK  Name = 
REMARK  8 active torsions:
REMARK  status: ('A' for Active; 'I' for Inactive)
REMARK    1  A    between atoms: C_1  and  C_2
REMARK    2  A    between atoms: C_3  and  O_4
REMARK    3  A    between atoms: C_5  and  O_6
REMARK    4  A    between atoms: N_9  and  C_10
REMARK    5  A    between atoms: C_10  and  C_11
REMARK    6  A    between atoms: C_10  and  C_13
REMARK    7  A    between atoms: C_11  and  O_12
REMARK    8  A    between atoms: C_13  and  C_14
REMARK                            x       y       z     vdW  Elec       q    Type
REMARK                         _______ _______ _______ _____ _____    ______ ____
ROOT
ATOM      1  C   UNL     1       5.262   6.759  15.651  0.00  0.00    +0.000 C 
ATOM      2  C   UNL     1       5.805   6.348  16.996  0.00  0.00    +0.000 A 
ATOM      3  C   UNL     1       6.980   6.959  17.489  0.00  0.00    +0.000 A 
ATOM      4  C   UNL     1       7.555   6.519  18.669  0.00  0.00    +0.000 A 
ATOM      5  C   UNL     1       6.979   5.498  19.381  0.00  0.00    +0.000 A 
ATOM      6  C   UNL     1       5.815   4.927  18.897  0.00  0.00    +0.000 A 
ATOM      7  N   UNL     1       5.209   5.353  17.753  0.00  0.00    +0.000 N 
ENDROOT
BRANCH   3   8
ATOM      8  O   UNL     1       7.652   7.980  16.866  0.00  0.00    +0.000 OA
ATOM      9  H   UNL     1       7.303   8.851  17.122  0.00  0.00    +0.000 HD
ENDBRANCH   3   8
BRANCH   4  10
ATOM     10  O   UNL     1       8.699   7.084  19.143  0.00  0.00    +0.000 OA
ATOM     11  H   UNL     1       9.135   7.521  18.382  0.00  0.00    +0.000 HD
ENDBRANCH   4  10
BRANCH   7  12
ATOM     12  C   UNL     1       3.898   4.698  17.326  0.00  0.00    +0.000 C 
BRANCH  12  13
ATOM     13  C   UNL     1       3.979   3.178  17.577  0.00  0.00    +0.000 C 
BRANCH  13  14
ATOM     14  O   UNL     1       4.901   2.561  16.693  0.00  0.00    +0.000 OA
ATOM     15  H   UNL     1       4.969   3.101  15.881  0.00  0.00    +0.000 HD
ENDBRANCH  13  14
ENDBRANCH  12  13
BRANCH  12  16
ATOM     16  C   UNL     1       2.648   5.244  18.056  0.00  0.00    +0.000 C 
BRANCH  16  17
ATOM     17  C   UNL     1       2.061   4.449  19.195  0.00  0.00    +0.000 A 
ATOM     18  C   UNL     1       1.117   3.435  19.003  0.00  0.00    +0.000 A 
ATOM     19  C   UNL     1       0.710   2.631  20.074  0.00  0.00    +0.000 A 
ATOM     20  C   UNL     1       1.249   2.826  21.344  0.00  0.00    +0.000 A 
ATOM     21  C   UNL     1       2.186   3.827  21.552  0.00  0.00    +0.000 A 
ATOM     22  C   UNL     1       2.586   4.634  20.490  0.00  0.00    +0.000 A 
ENDBRANCH  16  17
ENDBRANCH  12  16
ENDBRANCH   7  12
TORSDOF 7
ENDMDL
MODEL 9
REMARK VINA RESULT:      -6.5      2.391      5.279
REMARK  Name = 
REMARK  8 active torsions:
REMARK  status: ('A' for Active; 'I' for Inactive)
REMARK    1  A    between atoms: C_1  and  C_2
REMARK    2  A    between atoms: C_3  and  O_4
REMARK    3  A    between atoms: C_5  and  O_6
REMARK    4  A    between atoms: N_9  and  C_10
REMARK    5  A    between atoms: C_10  and  C_11
REMARK    6  A    between atoms: C_10  and  C_13
REMARK    7  A    between atoms: C_11  and  O_12
REMARK    8  A    between atoms: C_13  and  C_14
REMARK                            x       y       z     vdW  Elec       q    Type
REMARK                         _______ _______ _______ _____ _____    ______ ____
ROOT
ATOM      1  C   UNL     1       2.362   3.192  17.155  0.00  0.00    +0.000 C 
ATOM      2  C   UNL     1       2.379   3.700  18.574  0.00  0.00    +0.000 A 
ATOM      3  C   UNL     1       2.187   2.793  19.641  0.00  0.00    +0.000 A 
ATOM      4  C   UNL     1       2.090   3.255  20.943  0.00  0.00    +0.000 A 
ATOM      5  C   UNL     1       2.198   4.596  21.211  0.00  0.00    +0.000 A 
ATOM      6  C   UNL     1       2.410   5.468  20.158  0.00  0.00    +0.000 A 
ATOM      7  N   UNL     1       2.536   5.045  18.868  0.00  0.00    +0.000 N 
ENDROOT
BRANCH   3   8
ATOM      8  O   UNL     1       2.057   1.435  19.500  0.00  0.00    +0.000 OA
ATOM      9  H   UNL     1       2.623   1.090  18.789  0.00  0.00    +0.000 HD
ENDBRANCH   3   8
BRANCH   4  10
ATOM     10  O   UNL     1       1.882   2.394  21.976  0.00  0.00    +0.000 OA
ATOM     11  H   UNL     1       2.757   2.221  22.380  0.00  0.00    +0.000 HD
ENDBRANCH   4  10
BRANCH   7  12
ATOM     12  C   UNL     1       2.823   6.075  17.779  0.00  0.00    +0.000 C 
BRANCH  12  13
ATOM     13  C   UNL     1       2.846   7.486  18.402  0.00  0.00    +0.000 C 
BRANCH  13  14
ATOM     14  O   UNL     1       2.712   8.488  17.408  0.00  0.00    +0.000 OA
ATOM     15  H   UNL     1       1.766   8.580  17.179  0.00  0.00    +0.000 HD
ENDBRANCH  13  14
ENDBRANCH  12  13
BRANCH  12  16
ATOM     16  C   UNL     1       4.159   5.853  17.031  0.00  0.00    +0.000 C 
BRANCH  16  17
ATOM     17  C   UNL     1       5.455   6.111  17.758  0.00  0.00    +0.000 A 
ATOM     18  C   UNL     1       5.880   5.340  18.845  0.00  0.00    +0.000 A 
ATOM     19  C   UNL     1       7.154   5.527  19.394  0.00  0.00    +0.000 A 
ATOM     20  C   UNL     1       8.019   6.477  18.856  0.00  0.00    +0.000 A 
ATOM     21  C   UNL     1       7.613   7.250  17.777  0.00  0.00    +0.000 A 
ATOM     22  C   UNL     1       6.343   7.072  17.235  0.00  0.00    +0.000 A 
ENDBRANCH  16  17
ENDBRANCH  12  16
ENDBRANCH   7  12
TORSDOF 7
ENDMDL
