MODEL 1
REMARK VINA RESULT:      -8.0      0.000      0.000
REMARK  Name = 
REMARK  13 active torsions:
REMARK  status: ('A' for Active; 'I' for Inactive)
REMARK    1  A    between atoms: C_1  and  C_2
REMARK    2  A    between atoms: C_2  and  C_3
REMARK    3  A    between atoms: C_3  and  C_4
REMARK    4  A    between atoms: C_4  and  C_5
REMARK    5  A    between atoms: C_5  and  O_6
REMARK    6  A    between atoms: O_6  and  C_7
REMARK    7  A    between atoms: C_7  and  C_9
REMARK    8  A    between atoms: C_11  and  C_12
REMARK    9  A    between atoms: C_13  and  C_14
REMARK   10  A    between atoms: C_16  and  C_17
REMARK   11  A    between atoms: N_19  and  C_20
REMARK   12  A    between atoms: C_22  and  C_23
REMARK   13  A    between atoms: C_26  and  C_27
REMARK                            x       y       z     vdW  Elec       q    Type
REMARK                         _______ _______ _______ _____ _____    ______ ____
ROOT
ATOM      1  C   UNL     1       6.912   5.584  16.208  0.00  0.00    +0.000 A 
ATOM      2  N   UNL     1       7.664   5.639  15.060  0.00  0.00    +0.000 NA
ATOM      3  C   UNL     1       7.221   4.975  13.970  0.00  0.00    +0.000 A 
ATOM      4  C   UNL     1       8.099   5.057  12.757  0.00  0.00    +0.000 C 
ATOM      5  C   UNL     1       6.005   4.294  13.996  0.00  0.00    +0.000 A 
ATOM      6  C   UNL     1       5.420   3.637  12.783  0.00  0.00    +0.000 C 
ATOM      7  N   UNL     1       5.257   4.205  15.135  0.00  0.00    +0.000 NA
ATOM      8  C   UNL     1       5.746   4.829  16.259  0.00  0.00    +0.000 A 
ENDROOT
BRANCH   8   9
ATOM      9  C   UNL     1       4.956   4.529  17.495  0.00  0.00    +0.000 C 
ATOM     10  O   UNL     1       5.457   3.875  18.403  0.00  0.00    +0.000 OA
ATOM     11  N   UNL     1       3.618   4.902  17.463  0.00  0.00    +0.000 N 
ATOM     12  H   UNL     1       3.273   5.178  16.546  0.00  0.00    +0.000 HD
BRANCH  11  13
ATOM     13  C   UNL     1       2.682   4.726  18.518  0.00  0.00    +0.000 A 
ATOM     14  C   UNL     1       2.354   5.772  19.398  0.00  0.00    +0.000 A 
ATOM     15  C   UNL     1       1.426   5.610  20.438  0.00  0.00    +0.000 A 
ATOM     16  C   UNL     1       1.089   6.752  21.351  0.00  0.00    +0.000 C 
ATOM     17  C   UNL     1       0.818   4.368  20.610  0.00  0.00    +0.000 A 
ATOM     18  C   UNL     1       1.119   3.318  19.740  0.00  0.00    +0.000 A 
ATOM     19  C   UNL     1       2.041   3.482  18.689  0.00  0.00    +0.000 A 
ATOM     20  C   UNL     1       2.312   2.310  17.788  0.00  0.00    +0.000 C 
ENDBRANCH  11  13
ENDBRANCH   8   9
BRANCH   1  21
ATOM     21  C   UNL     1       7.467   6.488  17.261  0.00  0.00    +0.000 C 
ATOM     22  O   UNL     1       7.513   6.193  18.445  0.00  0.00    +0.000 OA
BRANCH  21  23
ATOM     23  O   UNL     1       7.719   7.716  16.782  0.00  0.00    +0.000 OA
BRANCH  23  24
ATOM     24  C   UNL     1       7.480   8.771  17.709  0.00  0.00    +0.000 C 
BRANCH  24  25
ATOM     25  C   UNL     1       8.759   9.181  18.415  0.00  0.00    +0.000 C 
BRANCH  25  26
ATOM     26  C   UNL     1       9.028  10.657  18.136  0.00  0.00    +0.000 C 
BRANCH  26  28
ATOM     27  C   UNL     1      10.931  11.472  19.539  0.00  0.00    +0.000 C 
ATOM     28  C   UNL     1       9.419  11.413  19.398  0.00  0.00    +0.000 C 
ENDBRANCH  26  28
ENDBRANCH  25  26
ENDBRANCH  24  25
ENDBRANCH  23  24
ENDBRANCH  21  23
ENDBRANCH   1  21
TORSDOF 8
ENDMDL
MODEL 2
REMARK VINA RESULT:      -7.9      3.297      7.907
REMARK  Name = 
REMARK  13 active torsions:
REMARK  status: ('A' for Active; 'I' for Inactive)
REMARK    1  A    between atoms: C_1  and  C_2
REMARK    2  A    between atoms: C_2  and  C_3
REMARK    3  A    between atoms: C_3  and  C_4
REMARK    4  A    between atoms: C_4  and  C_5
REMARK    5  A    between atoms: C_5  and  O_6
REMARK    6  A    between atoms: O_6  and  C_7
REMARK    7  A    between atoms: C_7  and  C_9
REMARK    8  A    between atoms: C_11  and  C_12
REMARK    9  A    between atoms: C_13  and  C_14
REMARK   10  A    between atoms: C_16  and  C_17
REMARK   11  A    between atoms: N_19  and  C_20
REMARK   12  A    between atoms: C_22  and  C_23
REMARK   13  A    between atoms: C_26  and  C_27
REMARK                            x       y       z     vdW  Elec       q    Type
REMARK                         _______ _______ _______ _____ _____    ______ ____
ROOT
ATOM      1  C   UNL     1       1.761   6.532  20.325  0.00  0.00    +0.000 A 
ATOM      2  N   UNL     1       1.201   7.442  21.188  0.00  0.00    +0.000 NA
ATOM      3  C   UNL     1       1.062   8.719  20.774  0.00  0.00    +0.000 A 
ATOM      4  C   UNL     1       0.464   9.666  21.772  0.00  0.00    +0.000 C 
ATOM      5  C   UNL     1       1.430   9.094  19.482  0.00  0.00    +0.000 A 
ATOM      6  C   UNL     1       1.193  10.470  18.941  0.00  0.00    +0.000 C 
ATOM      7  N   UNL     1       2.014   8.211  18.619  0.00  0.00    +0.000 NA
ATOM      8  C   UNL     1       2.212   6.928  19.071  0.00  0.00    +0.000 A 
ENDROOT
BRANCH   8   9
ATOM      9  C   UNL     1       3.015   6.085  18.129  0.00  0.00    +0.000 C 
ATOM     10  O   UNL     1       2.466   5.221  17.455  0.00  0.00    +0.000 OA
ATOM     11  N   UNL     1       4.393   6.250  18.194  0.00  0.00    +0.000 N 
ATOM     12  H   UNL     1       4.722   6.793  18.990  0.00  0.00    +0.000 HD
BRANCH  11  13
ATOM     13  C   UNL     1       5.349   5.567  17.394  0.00  0.00    +0.000 A 
ATOM     14  C   UNL     1       5.087   5.232  16.053  0.00  0.00    +0.000 A 
ATOM     15  C   UNL     1       6.027   4.564  15.254  0.00  0.00    +0.000 A 
ATOM     16  C   UNL     1       5.720   4.234  13.822  0.00  0.00    +0.000 C 
ATOM     17  C   UNL     1       7.256   4.214  15.809  0.00  0.00    +0.000 A 
ATOM     18  C   UNL     1       7.543   4.548  17.134  0.00  0.00    +0.000 A 
ATOM     19  C   UNL     1       6.605   5.228  17.935  0.00  0.00    +0.000 A 
ATOM     20  C   UNL     1       6.985   5.561  19.351  0.00  0.00    +0.000 C 
ENDBRANCH  11  13
ENDBRANCH   8   9
BRANCH   1  21
ATOM     21  C   UNL     1       1.703   5.148  20.885  0.00  0.00    +0.000 C 
ATOM     22  O   UNL     1       2.543   4.694  21.646  0.00  0.00    +0.000 OA
BRANCH  21  23
ATOM     23  O   UNL     1       0.740   4.415  20.306  0.00  0.00    +0.000 OA
BRANCH  23  24
ATOM     24  C   UNL     1       0.992   3.013  20.293  0.00  0.00    +0.000 C 
BRANCH  24  25
ATOM     25  C   UNL     1       1.137   2.495  18.875  0.00  0.00    +0.000 C 
BRANCH  25  26
ATOM     26  C   UNL     1       2.443   1.713  18.764  0.00  0.00    +0.000 C 
BRANCH  26  28
ATOM     27  C   UNL     1       4.509   2.130  20.108  0.00  0.00    +0.000 C 
ATOM     28  C   UNL     1       3.660   2.609  18.943  0.00  0.00    +0.000 C 
ENDBRANCH  26  28
ENDBRANCH  25  26
ENDBRANCH  24  25
ENDBRANCH  23  24
ENDBRANCH  21  23
ENDBRANCH   1  21
TORSDOF 8
ENDMDL
MODEL 3
REMARK VINA RESULT:      -7.7      0.783      1.702
REMARK  Name = 
REMARK  13 active torsions:
REMARK  status: ('A' for Active; 'I' for Inactive)
REMARK    1  A    between atoms: C_1  and  C_2
REMARK    2  A    between atoms: C_2  and  C_3
REMARK    3  A    between atoms: C_3  and  C_4
REMARK    4  A    between atoms: C_4  and  C_5
REMARK    5  A    between atoms: C_5  and  O_6
REMARK    6  A    between atoms: O_6  and  C_7
REMARK    7  A    between atoms: C_7  and  C_9
REMARK    8  A    between atoms: C_11  and  C_12
REMARK    9  A    between atoms: C_13  and  C_14
REMARK   10  A    between atoms: C_16  and  C_17
REMARK   11  A    between atoms: N_19  and  C_20
REMARK   12  A    between atoms: C_22  and  C_23
REMARK   13  A    between atoms: C_26  and  C_27
REMARK                            x       y       z     vdW  Elec       q    Type
REMARK                         _______ _______ _______ _____ _____    ______ ____
ROOT
ATOM      1  C   UNL     1       6.939   5.512  16.217  0.00  0.00    +0.000 A 
ATOM      2  N   UNL     1       7.650   5.545  15.042  0.00  0.00    +0.000 NA
ATOM      3  C   UNL     1       7.139   4.912  13.964  0.00  0.00    +0.000 A 
ATOM      4  C   UNL     1       7.975   4.966  12.720  0.00  0.00    +0.000 C 
ATOM      5  C   UNL     1       5.896   4.284  14.029  0.00  0.00    +0.000 A 
ATOM      6  C   UNL     1       5.239   3.666  12.834  0.00  0.00    +0.000 C 
ATOM      7  N   UNL     1       5.187   4.218  15.194  0.00  0.00    +0.000 NA
ATOM      8  C   UNL     1       5.744   4.809  16.304  0.00  0.00    +0.000 A 
ENDROOT
BRANCH   8   9
ATOM      9  C   UNL     1       4.987   4.532  17.566  0.00  0.00    +0.000 C 
ATOM     10  O   UNL     1       5.338   3.622  18.308  0.00  0.00    +0.000 OA
ATOM     11  N   UNL     1       3.814   5.258  17.740  0.00  0.00    +0.000 N 
ATOM     12  H   UNL     1       3.503   5.770  16.917  0.00  0.00    +0.000 HD
BRANCH  11  13
ATOM     13  C   UNL     1       2.942   5.169  18.859  0.00  0.00    +0.000 A 
ATOM     14  C   UNL     1       2.703   3.948  19.515  0.00  0.00    +0.000 A 
ATOM     15  C   UNL     1       1.849   3.853  20.624  0.00  0.00    +0.000 A 
ATOM     16  C   UNL     1       1.626   2.536  21.310  0.00  0.00    +0.000 C 
ATOM     17  C   UNL     1       1.211   5.003  21.084  0.00  0.00    +0.000 A 
ATOM     18  C   UNL     1       1.443   6.228  20.455  0.00  0.00    +0.000 A 
ATOM     19  C   UNL     1       2.309   6.328  19.349  0.00  0.00    +0.000 A 
ATOM     20  C   UNL     1       2.517   7.680  18.727  0.00  0.00    +0.000 C 
ENDBRANCH  11  13
ENDBRANCH   8   9
BRANCH   1  21
ATOM     21  C   UNL     1       7.571   6.381  17.255  0.00  0.00    +0.000 C 
ATOM     22  O   UNL     1       7.683   6.056  18.427  0.00  0.00    +0.000 OA
BRANCH  21  23
ATOM     23  O   UNL     1       7.816   7.616  16.792  0.00  0.00    +0.000 OA
BRANCH  23  24
ATOM     24  C   UNL     1       7.429   8.665  17.675  0.00  0.00    +0.000 C 
BRANCH  24  25
ATOM     25  C   UNL     1       8.620   9.196  18.451  0.00  0.00    +0.000 C 
BRANCH  25  26
ATOM     26  C   UNL     1       8.829  10.664  18.094  0.00  0.00    +0.000 C 
BRANCH  26  28
ATOM     27  C   UNL     1      10.144  12.719  18.644  0.00  0.00    +0.000 C 
ATOM     28  C   UNL     1      10.148  11.200  18.634  0.00  0.00    +0.000 C 
ENDBRANCH  26  28
ENDBRANCH  25  26
ENDBRANCH  24  25
ENDBRANCH  23  24
ENDBRANCH  21  23
ENDBRANCH   1  21
TORSDOF 8
ENDMDL
MODEL 4
REMARK VINA RESULT:      -7.3      3.285      7.913
REMARK  Name = 
REMARK  13 active torsions:
REMARK  status: ('A' for Active; 'I' for Inactive)
REMARK    1  A    between atoms: C_1  and  C_2
REMARK    2  A    between atoms: C_2  and  C_3
REMARK    3  A    between atoms: C_3  and  C_4
REMARK    4  A    between atoms: C_4  and  C_5
REMARK    5  A    between atoms: C_5  and  O_6
REMARK    6  A    between atoms: O_6  and  C_7
REMARK    7  A    between atoms: C_7  and  C_9
REMARK    8  A    between atoms: C_11  and  C_12
REMARK    9  A    between atoms: C_13  and  C_14
REMARK   10  A    between atoms: C_16  and  C_17
REMARK   11  A    between atoms: N_19  and  C_20
REMARK   12  A    between atoms: C_22  and  C_23
REMARK   13  A    between atoms: C_26  and  C_27
REMARK                            x       y       z     vdW  Elec       q    Type
REMARK                         _______ _______ _______ _____ _____    ______ ____
ROOT
ATOM      1  C   UNL     1       1.807   6.591  20.122  0.00  0.00    +0.000 A 
ATOM      2  N   UNL     1       1.036   7.091  21.142  0.00  0.00    +0.000 NA
ATOM      3  C   UNL     1       0.753   8.411  21.145  0.00  0.00    +0.000 A 
ATOM      4  C   UNL     1      -0.074   8.897  22.298  0.00  0.00    +0.000 C 
ATOM      5  C   UNL     1       1.189   9.237  20.110  0.00  0.00    +0.000 A 
ATOM      6  C   UNL     1       0.808  10.681  20.012  0.00  0.00    +0.000 C 
ATOM      7  N   UNL     1       1.979   8.764  19.101  0.00  0.00    +0.000 NA
ATOM      8  C   UNL     1       2.318   7.431  19.140  0.00  0.00    +0.000 A 
ENDROOT
BRANCH   8   9
ATOM      9  C   UNL     1       3.326   7.045  18.101  0.00  0.00    +0.000 C 
ATOM     10  O   UNL     1       3.350   7.624  17.021  0.00  0.00    +0.000 OA
ATOM     11  N   UNL     1       4.093   5.923  18.390  0.00  0.00    +0.000 N 
ATOM     12  H   UNL     1       3.773   5.381  19.190  0.00  0.00    +0.000 HD
BRANCH  11  13
ATOM     13  C   UNL     1       5.112   5.379  17.561  0.00  0.00    +0.000 A 
ATOM     14  C   UNL     1       4.874   5.054  16.214  0.00  0.00    +0.000 A 
ATOM     15  C   UNL     1       5.875   4.523  15.386  0.00  0.00    +0.000 A 
ATOM     16  C   UNL     1       5.591   4.200  13.949  0.00  0.00    +0.000 C 
ATOM     17  C   UNL     1       7.143   4.303  15.921  0.00  0.00    +0.000 A 
ATOM     18  C   UNL     1       7.405   4.630  17.253  0.00  0.00    +0.000 A 
ATOM     19  C   UNL     1       6.405   5.173  18.081  0.00  0.00    +0.000 A 
ATOM     20  C   UNL     1       6.760   5.507  19.503  0.00  0.00    +0.000 C 
ENDBRANCH  11  13
ENDBRANCH   8   9
BRANCH   1  21
ATOM     21  C   UNL     1       1.896   5.101  20.192  0.00  0.00    +0.000 C 
ATOM     22  O   UNL     1       0.947   4.359  19.988  0.00  0.00    +0.000 OA
BRANCH  21  23
ATOM     23  O   UNL     1       3.073   4.693  20.690  0.00  0.00    +0.000 OA
BRANCH  23  24
ATOM     24  C   UNL     1       3.125   3.311  21.027  0.00  0.00    +0.000 C 
BRANCH  24  25
ATOM     25  C   UNL     1       4.088   2.562  20.125  0.00  0.00    +0.000 C 
BRANCH  25  26
ATOM     26  C   UNL     1       3.287   1.692  19.160  0.00  0.00    +0.000 C 
BRANCH  26  28
ATOM     27  C   UNL     1       2.312   2.920  17.212  0.00  0.00    +0.000 C 
ATOM     28  C   UNL     1       3.496   2.108  17.710  0.00  0.00    +0.000 C 
ENDBRANCH  26  28
ENDBRANCH  25  26
ENDBRANCH  24  25
ENDBRANCH  23  24
ENDBRANCH  21  23
ENDBRANCH   1  21
TORSDOF 8
ENDMDL
MODEL 5
REMARK VINA RESULT:      -7.3      3.206      6.765
REMARK  Name = 
REMARK  13 active torsions:
REMARK  status: ('A' for Active; 'I' for Inactive)
REMARK    1  A    between atoms: C_1  and  C_2
REMARK    2  A    between atoms: C_2  and  C_3
REMARK    3  A    between atoms: C_3  and  C_4
REMARK    4  A    between atoms: C_4  and  C_5
REMARK    5  A    between atoms: C_5  and  O_6
REMARK    6  A    between atoms: O_6  and  C_7
REMARK    7  A    between atoms: C_7  and  C_9
REMARK    8  A    between atoms: C_11  and  C_12
REMARK    9  A    between atoms: C_13  and  C_14
REMARK   10  A    between atoms: C_16  and  C_17
REMARK   11  A    between atoms: N_19  and  C_20
REMARK   12  A    between atoms: C_22  and  C_23
REMARK   13  A    between atoms: C_26  and  C_27
REMARK                            x       y       z     vdW  Elec       q    Type
REMARK                         _______ _______ _______ _____ _____    ______ ____
ROOT
ATOM      1  C   UNL     1       3.285   5.716  17.800  0.00  0.00    +0.000 A 
ATOM      2  N   UNL     1       4.268   4.814  17.474  0.00  0.00    +0.000 NA
ATOM      3  C   UNL     1       5.512   5.280  17.233  0.00  0.00    +0.000 A 
ATOM      4  C   UNL     1       6.534   4.247  16.861  0.00  0.00    +0.000 C 
ATOM      5  C   UNL     1       5.803   6.638  17.363  0.00  0.00    +0.000 A 
ATOM      6  C   UNL     1       7.189   7.186  17.215  0.00  0.00    +0.000 C 
ATOM      7  N   UNL     1       4.834   7.553  17.659  0.00  0.00    +0.000 NA
ATOM      8  C   UNL     1       3.555   7.079  17.839  0.00  0.00    +0.000 A 
ENDROOT
BRANCH   8   9
ATOM      9  C   UNL     1       2.534   8.165  17.981  0.00  0.00    +0.000 C 
ATOM     10  O   UNL     1       2.352   8.963  17.068  0.00  0.00    +0.000 OA
ATOM     11  N   UNL     1       1.948   8.284  19.236  0.00  0.00    +0.000 N 
ATOM     12  H   UNL     1       2.395   7.740  19.970  0.00  0.00    +0.000 HD
BRANCH  11  13
ATOM     13  C   UNL     1       0.953   9.232  19.599  0.00  0.00    +0.000 A 
ATOM     14  C   UNL     1       0.178   9.899  18.633  0.00  0.00    +0.000 A 
ATOM     15  C   UNL     1      -0.811  10.830  18.984  0.00  0.00    +0.000 A 
ATOM     16  C   UNL     1      -1.630  11.513  17.928  0.00  0.00    +0.000 C 
ATOM     17  C   UNL     1      -1.025  11.110  20.332  0.00  0.00    +0.000 A 
ATOM     18  C   UNL     1      -0.276  10.451  21.308  0.00  0.00    +0.000 A 
ATOM     19  C   UNL     1       0.709   9.507  20.960  0.00  0.00    +0.000 A 
ATOM     20  C   UNL     1       1.473   8.832  22.064  0.00  0.00    +0.000 C 
ENDBRANCH  11  13
ENDBRANCH   8   9
BRANCH   1  21
ATOM     21  C   UNL     1       2.017   5.020  18.177  0.00  0.00    +0.000 C 
ATOM     22  O   UNL     1       1.220   4.584  17.360  0.00  0.00    +0.000 OA
BRANCH  21  23
ATOM     23  O   UNL     1       1.771   5.107  19.492  0.00  0.00    +0.000 OA
BRANCH  23  24
ATOM     24  C   UNL     1       0.954   4.062  20.011  0.00  0.00    +0.000 C 
BRANCH  24  25
ATOM     25  C   UNL     1       1.798   2.909  20.522  0.00  0.00    +0.000 C 
BRANCH  25  26
ATOM     26  C   UNL     1       1.876   1.835  19.440  0.00  0.00    +0.000 C 
BRANCH  26  28
ATOM     27  C   UNL     1       4.314   2.220  19.842  0.00  0.00    +0.000 C 
ATOM     28  C   UNL     1       3.275   1.720  18.852  0.00  0.00    +0.000 C 
ENDBRANCH  26  28
ENDBRANCH  25  26
ENDBRANCH  24  25
ENDBRANCH  23  24
ENDBRANCH  21  23
ENDBRANCH   1  21
TORSDOF 8
ENDMDL
MODEL 6
REMARK VINA RESULT:      -7.1      2.623      7.939
REMARK  Name = 
REMARK  13 active torsions:
REMARK  status: ('A' for Active; 'I' for Inactive)
REMARK    1  A    between atoms: C_1  and  C_2
REMARK    2  A    between atoms: C_2  and  C_3
REMARK    3  A    between atoms: C_3  and  C_4
REMARK    4  A    between atoms: C_4  and  C_5
REMARK    5  A    between atoms: C_5  and  O_6
REMARK    6  A    between atoms: O_6  and  C_7
REMARK    7  A    between atoms: C_7  and  C_9
REMARK    8  A    between atoms: C_11  and  C_12
REMARK    9  A    between atoms: C_13  and  C_14
REMARK   10  A    between atoms: C_16  and  C_17
REMARK   11  A    between atoms: N_19  and  C_20
REMARK   12  A    between atoms: C_22  and  C_23
REMARK   13  A    between atoms: C_26  and  C_27
REMARK                            x       y       z     vdW  Elec       q    Type
REMARK                         _______ _______ _______ _____ _____    ______ ____
ROOT
ATOM      1  C   UNL     1       1.973   6.460  20.143  0.00  0.00    +0.000 A 
ATOM      2  N   UNL     1       1.143   7.351  20.777  0.00  0.00    +0.000 NA
ATOM      3  C   UNL     1       1.042   8.602  20.279  0.00  0.00    +0.000 A 
ATOM      4  C   UNL     1       0.137   9.531  21.032  0.00  0.00    +0.000 C 
ATOM      5  C   UNL     1       1.724   8.965  19.119  0.00  0.00    +0.000 A 
ATOM      6  C   UNL     1       1.558  10.303  18.467  0.00  0.00    +0.000 C 
ATOM      7  N   UNL     1       2.575   8.102  18.489  0.00  0.00    +0.000 NA
ATOM      8  C   UNL     1       2.723   6.850  19.039  0.00  0.00    +0.000 A 
ENDROOT
BRANCH   8   9
ATOM      9  C   UNL     1       3.804   6.041  18.391  0.00  0.00    +0.000 C 
ATOM     10  O   UNL     1       4.372   5.155  19.019  0.00  0.00    +0.000 OA
ATOM     11  N   UNL     1       4.199   6.463  17.127  0.00  0.00    +0.000 N 
ATOM     12  H   UNL     1       3.840   7.374  16.848  0.00  0.00    +0.000 HD
BRANCH  11  13
ATOM     13  C   UNL     1       5.195   5.847  16.321  0.00  0.00    +0.000 A 
ATOM     14  C   UNL     1       4.860   5.004  15.246  0.00  0.00    +0.000 A 
ATOM     15  C   UNL     1       5.836   4.398  14.441  0.00  0.00    +0.000 A 
ATOM     16  C   UNL     1       5.444   3.515  13.293  0.00  0.00    +0.000 C 
ATOM     17  C   UNL     1       7.181   4.632  14.722  0.00  0.00    +0.000 A 
ATOM     18  C   UNL     1       7.536   5.475  15.777  0.00  0.00    +0.000 A 
ATOM     19  C   UNL     1       6.558   6.094  16.579  0.00  0.00    +0.000 A 
ATOM     20  C   UNL     1       7.014   6.994  17.693  0.00  0.00    +0.000 C 
ENDBRANCH  11  13
ENDBRANCH   8   9
BRANCH   1  21
ATOM     21  C   UNL     1       1.851   5.093  20.732  0.00  0.00    +0.000 C 
ATOM     22  O   UNL     1       2.683   4.607  21.482  0.00  0.00    +0.000 OA
BRANCH  21  23
ATOM     23  O   UNL     1       0.835   4.404  20.191  0.00  0.00    +0.000 OA
BRANCH  23  24
ATOM     24  C   UNL     1       1.030   2.994  20.157  0.00  0.00    +0.000 C 
BRANCH  24  25
ATOM     25  C   UNL     1       0.968   2.466  18.735  0.00  0.00    +0.000 C 
BRANCH  25  26
ATOM     26  C   UNL     1       2.348   2.595  18.098  0.00  0.00    +0.000 C 
BRANCH  26  28
ATOM     27  C   UNL     1       4.307   2.036  19.548  0.00  0.00    +0.000 C 
ATOM     28  C   UNL     1       3.293   1.493  18.556  0.00  0.00    +0.000 C 
ENDBRANCH  26  28
ENDBRANCH  25  26
ENDBRANCH  24  25
ENDBRANCH  23  24
ENDBRANCH  21  23
ENDBRANCH   1  21
TORSDOF 8
ENDMDL
MODEL 7
REMARK VINA RESULT:      -7.1      3.288      7.838
REMARK  Name = 
REMARK  13 active torsions:
REMARK  status: ('A' for Active; 'I' for Inactive)
REMARK    1  A    between atoms: C_1  and  C_2
REMARK    2  A    between atoms: C_2  and  C_3
REMARK    3  A    between atoms: C_3  and  C_4
REMARK    4  A    between atoms: C_4  and  C_5
REMARK    5  A    between atoms: C_5  and  O_6
REMARK    6  A    between atoms: O_6  and  C_7
REMARK    7  A    between atoms: C_7  and  C_9
REMARK    8  A    between atoms: C_11  and  C_12
REMARK    9  A    between atoms: C_13  and  C_14
REMARK   10  A    between atoms: C_16  and  C_17
REMARK   11  A    between atoms: N_19  and  C_20
REMARK   12  A    between atoms: C_22  and  C_23
REMARK   13  A    between atoms: C_26  and  C_27
REMARK                            x       y       z     vdW  Elec       q    Type
REMARK                         _______ _______ _______ _____ _____    ______ ____
ROOT
ATOM      1  C   UNL     1       1.646   6.511  20.138  0.00  0.00    +0.000 A 
ATOM      2  N   UNL     1       1.091   7.439  20.985  0.00  0.00    +0.000 NA
ATOM      3  C   UNL     1       1.087   8.734  20.604  0.00  0.00    +0.000 A 
ATOM      4  C   UNL     1       0.487   9.698  21.584  0.00  0.00    +0.000 C 
ATOM      5  C   UNL     1       1.587   9.114  19.359  0.00  0.00    +0.000 A 
ATOM      6  C   UNL     1       1.503  10.519  18.849  0.00  0.00    +0.000 C 
ATOM      7  N   UNL     1       2.167   8.211  18.515  0.00  0.00    +0.000 NA
ATOM      8  C   UNL     1       2.227   6.903  18.937  0.00  0.00    +0.000 A 
ENDROOT
BRANCH   8   9
ATOM      9  C   UNL     1       3.035   6.025  18.033  0.00  0.00    +0.000 C 
ATOM     10  O   UNL     1       2.513   5.063  17.481  0.00  0.00    +0.000 OA
ATOM     11  N   UNL     1       4.400   6.286  17.996  0.00  0.00    +0.000 N 
ATOM     12  H   UNL     1       4.731   6.927  18.714  0.00  0.00    +0.000 HD
BRANCH  11  13
ATOM     13  C   UNL     1       5.356   5.590  17.207  0.00  0.00    +0.000 A 
ATOM     14  C   UNL     1       5.090   5.221  15.877  0.00  0.00    +0.000 A 
ATOM     15  C   UNL     1       6.031   4.541  15.089  0.00  0.00    +0.000 A 
ATOM     16  C   UNL     1       5.718   4.174  13.668  0.00  0.00    +0.000 C 
ATOM     17  C   UNL     1       7.265   4.213  15.646  0.00  0.00    +0.000 A 
ATOM     18  C   UNL     1       7.555   4.580  16.962  0.00  0.00    +0.000 A 
ATOM     19  C   UNL     1       6.617   5.273  17.751  0.00  0.00    +0.000 A 
ATOM     20  C   UNL     1       7.001   5.642  19.156  0.00  0.00    +0.000 C 
ENDBRANCH  11  13
ENDBRANCH   8   9
BRANCH   1  21
ATOM     21  C   UNL     1       1.434   5.121  20.644  0.00  0.00    +0.000 C 
ATOM     22  O   UNL     1       0.369   4.530  20.558  0.00  0.00    +0.000 OA
BRANCH  21  23
ATOM     23  O   UNL     1       2.477   4.687  21.366  0.00  0.00    +0.000 OA
BRANCH  23  24
ATOM     24  C   UNL     1       2.319   3.379  21.905  0.00  0.00    +0.000 C 
BRANCH  24  25
ATOM     25  C   UNL     1       2.654   2.317  20.874  0.00  0.00    +0.000 C 
BRANCH  25  26
ATOM     26  C   UNL     1       4.129   2.435  20.502  0.00  0.00    +0.000 C 
BRANCH  26  28
ATOM     27  C   UNL     1       3.445   1.683  18.218  0.00  0.00    +0.000 C 
ATOM     28  C   UNL     1       4.325   2.638  19.006  0.00  0.00    +0.000 C 
ENDBRANCH  26  28
ENDBRANCH  25  26
ENDBRANCH  24  25
ENDBRANCH  23  24
ENDBRANCH  21  23
ENDBRANCH   1  21
TORSDOF 8
ENDMDL
MODEL 8
REMARK VINA RESULT:      -7.1      3.256      6.519
REMARK  Name = 
REMARK  13 active torsions:
REMARK  status: ('A' for Active; 'I' for Inactive)
REMARK    1  A    between atoms: C_1  and  C_2
REMARK    2  A    between atoms: C_2  and  C_3
REMARK    3  A    between atoms: C_3  and  C_4
REMARK    4  A    between atoms: C_4  and  C_5
REMARK    5  A    between atoms: C_5  and  O_6
REMARK    6  A    between atoms: O_6  and  C_7
REMARK    7  A    between atoms: C_7  and  C_9
REMARK    8  A    between atoms: C_11  and  C_12
REMARK    9  A    between atoms: C_13  and  C_14
REMARK   10  A    between atoms: C_16  and  C_17
REMARK   11  A    between atoms: N_19  and  C_20
REMARK   12  A    between atoms: C_22  and  C_23
REMARK   13  A    between atoms: C_26  and  C_27
REMARK                            x       y       z     vdW  Elec       q    Type
REMARK                         _______ _______ _______ _____ _____    ______ ____
ROOT
ATOM      1  C   UNL     1       4.039   5.325  17.891  0.00  0.00    +0.000 A 
ATOM      2  N   UNL     1       4.299   3.992  18.096  0.00  0.00    +0.000 NA
ATOM      3  C   UNL     1       3.322   3.220  18.617  0.00  0.00    +0.000 A 
ATOM      4  C   UNL     1       3.678   1.779  18.836  0.00  0.00    +0.000 C 
ATOM      5  C   UNL     1       2.062   3.751  18.891  0.00  0.00    +0.000 A 
ATOM      6  C   UNL     1       0.916   2.912  19.363  0.00  0.00    +0.000 C 
ATOM      7  N   UNL     1       1.792   5.079  18.719  0.00  0.00    +0.000 NA
ATOM      8  C   UNL     1       2.813   5.873  18.250  0.00  0.00    +0.000 A 
ENDROOT
BRANCH   8   9
ATOM      9  C   UNL     1       2.482   7.333  18.265  0.00  0.00    +0.000 C 
ATOM     10  O   UNL     1       2.919   8.073  17.390  0.00  0.00    +0.000 OA
ATOM     11  N   UNL     1       1.801   7.788  19.388  0.00  0.00    +0.000 N 
ATOM     12  H   UNL     1       1.751   7.123  20.156  0.00  0.00    +0.000 HD
BRANCH  11  13
ATOM     13  C   UNL     1       1.377   9.126  19.615  0.00  0.00    +0.000 A 
ATOM     14  C   UNL     1       1.835  10.192  18.821  0.00  0.00    +0.000 A 
ATOM     15  C   UNL     1       1.416  11.514  19.033  0.00  0.00    +0.000 A 
ATOM     16  C   UNL     1       1.915  12.627  18.158  0.00  0.00    +0.000 C 
ATOM     17  C   UNL     1       0.525  11.780  20.071  0.00  0.00    +0.000 A 
ATOM     18  C   UNL     1       0.047  10.735  20.864  0.00  0.00    +0.000 A 
ATOM     19  C   UNL     1       0.457   9.406  20.645  0.00  0.00    +0.000 A 
ATOM     20  C   UNL     1      -0.103   8.331  21.534  0.00  0.00    +0.000 C 
ENDBRANCH  11  13
ENDBRANCH   8   9
BRANCH   1  21
ATOM     21  C   UNL     1       5.169   5.993  17.177  0.00  0.00    +0.000 C 
ATOM     22  O   UNL     1       6.038   6.635  17.745  0.00  0.00    +0.000 OA
BRANCH  21  23
ATOM     23  O   UNL     1       5.003   5.968  15.846  0.00  0.00    +0.000 OA
BRANCH  23  24
ATOM     24  C   UNL     1       6.028   5.278  15.136  0.00  0.00    +0.000 C 
BRANCH  24  25
ATOM     25  C   UNL     1       5.440   4.276  14.160  0.00  0.00    +0.000 C 
BRANCH  25  26
ATOM     26  C   UNL     1       6.543   3.789  13.226  0.00  0.00    +0.000 C 
BRANCH  26  28
ATOM     27  C   UNL     1       4.499   3.402  11.839  0.00  0.00    +0.000 C 
ATOM     28  C   UNL     1       5.981   3.103  11.988  0.00  0.00    +0.000 C 
ENDBRANCH  26  28
ENDBRANCH  25  26
ENDBRANCH  24  25
ENDBRANCH  23  24
ENDBRANCH  21  23
ENDBRANCH   1  21
TORSDOF 8
ENDMDL
MODEL 9
REMARK VINA RESULT:      -7.0      3.195      6.479
REMARK  Name = 
REMARK  13 active torsions:
REMARK  status: ('A' for Active; 'I' for Inactive)
REMARK    1  A    between atoms: C_1  and  C_2
REMARK    2  A    between atoms: C_2  and  C_3
REMARK    3  A    between atoms: C_3  and  C_4
REMARK    4  A    between atoms: C_4  and  C_5
REMARK    5  A    between atoms: C_5  and  O_6
REMARK    6  A    between atoms: O_6  and  C_7
REMARK    7  A    between atoms: C_7  and  C_9
REMARK    8  A    between atoms: C_11  and  C_12
REMARK    9  A    between atoms: C_13  and  C_14
REMARK   10  A    between atoms: C_16  and  C_17
REMARK   11  A    between atoms: N_19  and  C_20
REMARK   12  A    between atoms: C_22  and  C_23
REMARK   13  A    between atoms: C_26  and  C_27
REMARK                            x       y       z     vdW  Elec       q    Type
REMARK                         _______ _______ _______ _____ _____    ______ ____
ROOT
ATOM      1  C   UNL     1       3.912   5.794  18.558  0.00  0.00    +0.000 A 
ATOM      2  N   UNL     1       4.333   4.527  18.877  0.00  0.00    +0.000 NA
ATOM      3  C   UNL     1       3.533   3.761  19.650  0.00  0.00    +0.000 A 
ATOM      4  C   UNL     1       4.062   2.397  19.981  0.00  0.00    +0.000 C 
ATOM      5  C   UNL     1       2.288   4.227  20.071  0.00  0.00    +0.000 A 
ATOM      6  C   UNL     1       1.322   3.375  20.834  0.00  0.00    +0.000 C 
ATOM      7  N   UNL     1       1.864   5.493  19.786  0.00  0.00    +0.000 NA
ATOM      8  C   UNL     1       2.712   6.291  19.053  0.00  0.00    +0.000 A 
ENDROOT
BRANCH   8   9
ATOM      9  C   UNL     1       2.245   7.709  18.944  0.00  0.00    +0.000 C 
ATOM     10  O   UNL     1       2.585   8.399  17.989  0.00  0.00    +0.000 OA
ATOM     11  N   UNL     1       1.554   8.205  20.044  0.00  0.00    +0.000 N 
ATOM     12  H   UNL     1       1.589   7.615  20.872  0.00  0.00    +0.000 HD
BRANCH  11  13
ATOM     13  C   UNL     1       1.012   9.514  20.161  0.00  0.00    +0.000 A 
ATOM     14  C   UNL     1       1.355  10.540  19.263  0.00  0.00    +0.000 A 
ATOM     15  C   UNL     1       0.818  11.833  19.367  0.00  0.00    +0.000 A 
ATOM     16  C   UNL     1       1.196  12.901  18.383  0.00  0.00    +0.000 C 
ATOM     17  C   UNL     1      -0.075  12.110  20.400  0.00  0.00    +0.000 A 
ATOM     18  C   UNL     1      -0.439  11.102  21.296  0.00  0.00    +0.000 A 
ATOM     19  C   UNL     1       0.089   9.802  21.186  0.00  0.00    +0.000 A 
ATOM     20  C   UNL     1      -0.353   8.766  22.182  0.00  0.00    +0.000 C 
ENDBRANCH  11  13
ENDBRANCH   8   9
BRANCH   1  21
ATOM     21  C   UNL     1       4.840   6.442  17.581  0.00  0.00    +0.000 C 
ATOM     22  O   UNL     1       4.490   6.835  16.480  0.00  0.00    +0.000 OA
BRANCH  21  23
ATOM     23  O   UNL     1       6.119   6.360  17.978  0.00  0.00    +0.000 OA
BRANCH  23  24
ATOM     24  C   UNL     1       7.053   6.170  16.920  0.00  0.00    +0.000 C 
BRANCH  24  25
ATOM     25  C   UNL     1       7.060   4.728  16.448  0.00  0.00    +0.000 C 
BRANCH  25  26
ATOM     26  C   UNL     1       7.085   4.706  14.923  0.00  0.00    +0.000 C 
BRANCH  26  28
ATOM     27  C   UNL     1       5.911   3.595  13.015  0.00  0.00    +0.000 C 
ATOM     28  C   UNL     1       5.733   4.323  14.336  0.00  0.00    +0.000 C 
ENDBRANCH  26  28
ENDBRANCH  25  26
ENDBRANCH  24  25
ENDBRANCH  23  24
ENDBRANCH  21  23
ENDBRANCH   1  21
TORSDOF 8
ENDMDL
