MODEL 1
REMARK VINA RESULT:      -8.1      0.000      0.000
REMARK  Name = 
REMARK  4 active torsions:
REMARK  status: ('A' for Active; 'I' for Inactive)
REMARK    1  A    between atoms: C_1  and  C_2
REMARK    2  A    between atoms: C_6  and  N_7
REMARK    3  A    between atoms: C_8  and  C_10
REMARK    4  A    between atoms: C_15  and  C_16
REMARK                            x       y       z     vdW  Elec       q    Type
REMARK                         _______ _______ _______ _____ _____    ______ ____
ROOT
ATOM      1  C   UNL     1       2.866   4.495  19.885  0.00  0.00    +0.000 A 
ATOM      2  C   UNL     1       2.026   4.058  20.934  0.00  0.00    +0.000 A 
ATOM      3  C   UNL     1       2.257   2.849  21.583  0.00  0.00    +0.000 A 
ATOM      4  C   UNL     1       3.332   2.065  21.197  0.00  0.00    +0.000 A 
ATOM      5  C   UNL     1       4.181   2.496  20.172  0.00  0.00    +0.000 A 
ATOM      6  C   UNL     1       3.976   3.710  19.469  0.00  0.00    +0.000 A 
ENDROOT
BRANCH   6   7
ATOM      7  C   UNL     1       4.910   4.054  18.351  0.00  0.00    +0.000 A 
ATOM      8  C   UNL     1       6.097   4.781  18.591  0.00  0.00    +0.000 A 
ATOM      9  C   UNL     1       7.003   5.090  17.568  0.00  0.00    +0.000 A 
ATOM     10  C   UNL     1       6.760   4.656  16.272  0.00  0.00    +0.000 A 
ATOM     11  C   UNL     1       5.592   3.954  15.996  0.00  0.00    +0.000 A 
ATOM     12  C   UNL     1       4.668   3.683  17.016  0.00  0.00    +0.000 A 
ENDBRANCH   6   7
BRANCH   1  14
ATOM     13  N   UNL     1       2.443   6.901  19.894  0.00  0.00    +0.000 N 
ATOM     14  C   UNL     1       2.404   5.716  19.160  0.00  0.00    +0.000 C 
ATOM     15  O   UNL     1       1.998   5.587  18.014  0.00  0.00    +0.000 OA
ATOM     16  H   UNL     1       2.847   6.859  20.824  0.00  0.00    +0.000 HD
BRANCH  13  22
ATOM     17  C   UNL     1      -0.408  10.809  20.940  0.00  0.00    +0.000 C 
ATOM     18  C   UNL     1       0.529  10.095  20.009  0.00  0.00    +0.000 A 
ATOM     19  C   UNL     1       0.843  10.655  18.767  0.00  0.00    +0.000 A 
ATOM     20  C   UNL     1       1.694   9.982  17.896  0.00  0.00    +0.000 A 
ATOM     21  C   UNL     1       2.237   8.747  18.253  0.00  0.00    +0.000 A 
ATOM     22  C   UNL     1       1.944   8.164  19.488  0.00  0.00    +0.000 A 
ATOM     23  C   UNL     1       1.091   8.855  20.366  0.00  0.00    +0.000 A 
ENDBRANCH  13  22
ENDBRANCH   1  14
TORSDOF 3
ENDMDL
MODEL 2
REMARK VINA RESULT:      -8.1      1.737      4.008
REMARK  Name = 
REMARK  4 active torsions:
REMARK  status: ('A' for Active; 'I' for Inactive)
REMARK    1  A    between atoms: C_1  and  C_2
REMARK    2  A    between atoms: C_6  and  N_7
REMARK    3  A    between atoms: C_8  and  C_10
REMARK    4  A    between atoms: C_15  and  C_16
REMARK                            x       y       z     vdW  Elec       q    Type
REMARK                         _______ _______ _______ _____ _____    ______ ____
ROOT
ATOM      1  C   UNL     1       3.668   6.251  17.570  0.00  0.00    +0.000 A 
ATOM      2  C   UNL     1       4.596   6.787  16.648  0.00  0.00    +0.000 A 
ATOM      3  C   UNL     1       5.555   5.979  16.044  0.00  0.00    +0.000 A 
ATOM      4  C   UNL     1       5.594   4.627  16.347  0.00  0.00    +0.000 A 
ATOM      5  C   UNL     1       4.668   4.084  17.243  0.00  0.00    +0.000 A 
ATOM      6  C   UNL     1       3.686   4.869  17.898  0.00  0.00    +0.000 A 
ENDROOT
BRANCH   6   7
ATOM      7  C   UNL     1       2.778   4.200  18.882  0.00  0.00    +0.000 A 
ATOM      8  C   UNL     1       3.207   3.926  20.200  0.00  0.00    +0.000 A 
ATOM      9  C   UNL     1       2.368   3.329  21.150  0.00  0.00    +0.000 A 
ATOM     10  C   UNL     1       1.059   3.009  20.815  0.00  0.00    +0.000 A 
ATOM     11  C   UNL     1       0.609   3.247  19.521  0.00  0.00    +0.000 A 
ATOM     12  C   UNL     1       1.466   3.808  18.562  0.00  0.00    +0.000 A 
ENDBRANCH   6   7
BRANCH   1  14
ATOM     13  N   UNL     1       2.318   8.286  17.480  0.00  0.00    +0.000 N 
ATOM     14  C   UNL     1       2.814   7.254  18.276  0.00  0.00    +0.000 C 
ATOM     15  O   UNL     1       2.647   7.122  19.480  0.00  0.00    +0.000 OA
ATOM     16  H   UNL     1       2.507   8.238  16.485  0.00  0.00    +0.000 HD
BRANCH  13  22
ATOM     17  C   UNL     1      -2.083  10.385  18.329  0.00  0.00    +0.000 C 
ATOM     18  C   UNL     1      -0.583  10.459  18.340  0.00  0.00    +0.000 A 
ATOM     19  C   UNL     1       0.056  11.639  18.729  0.00  0.00    +0.000 A 
ATOM     20  C   UNL     1       1.446  11.714  18.717  0.00  0.00    +0.000 A 
ATOM     21  C   UNL     1       2.208  10.617  18.316  0.00  0.00    +0.000 A 
ATOM     22  C   UNL     1       1.598   9.423  17.923  0.00  0.00    +0.000 A 
ATOM     23  C   UNL     1       0.194   9.353  17.948  0.00  0.00    +0.000 A 
ENDBRANCH  13  22
ENDBRANCH   1  14
TORSDOF 3
ENDMDL
MODEL 3
REMARK VINA RESULT:      -8.1      1.830      4.186
REMARK  Name = 
REMARK  4 active torsions:
REMARK  status: ('A' for Active; 'I' for Inactive)
REMARK    1  A    between atoms: C_1  and  C_2
REMARK    2  A    between atoms: C_6  and  N_7
REMARK    3  A    between atoms: C_8  and  C_10
REMARK    4  A    between atoms: C_15  and  C_16
REMARK                            x       y       z     vdW  Elec       q    Type
REMARK                         _______ _______ _______ _____ _____    ______ ____
ROOT
ATOM      1  C   UNL     1       3.535   6.434  17.779  0.00  0.00    +0.000 A 
ATOM      2  C   UNL     1       4.457   7.002  16.870  0.00  0.00    +0.000 A 
ATOM      3  C   UNL     1       5.472   6.236  16.305  0.00  0.00    +0.000 A 
ATOM      4  C   UNL     1       5.576   4.894  16.637  0.00  0.00    +0.000 A 
ATOM      5  C   UNL     1       4.658   4.318  17.521  0.00  0.00    +0.000 A 
ATOM      6  C   UNL     1       3.619   5.061  18.136  0.00  0.00    +0.000 A 
ENDROOT
BRANCH   6   7
ATOM      7  C   UNL     1       2.723   4.363  19.111  0.00  0.00    +0.000 A 
ATOM      8  C   UNL     1       1.510   3.772  18.692  0.00  0.00    +0.000 A 
ATOM      9  C   UNL     1       0.669   3.086  19.578  0.00  0.00    +0.000 A 
ATOM     10  C   UNL     1       1.030   2.950  20.911  0.00  0.00    +0.000 A 
ATOM     11  C   UNL     1       2.207   3.535  21.362  0.00  0.00    +0.000 A 
ATOM     12  C   UNL     1       3.026   4.256  20.480  0.00  0.00    +0.000 A 
ENDBRANCH   6   7
BRANCH   1  14
ATOM     13  N   UNL     1       2.051   8.367  17.608  0.00  0.00    +0.000 N 
ATOM     14  C   UNL     1       2.611   7.403  18.444  0.00  0.00    +0.000 C 
ATOM     15  O   UNL     1       2.447   7.306  19.651  0.00  0.00    +0.000 OA
ATOM     16  H   UNL     1       2.248   8.295  16.615  0.00  0.00    +0.000 HD
BRANCH  13  22
ATOM     17  C   UNL     1      -2.469  10.355  17.947  0.00  0.00    +0.000 C 
ATOM     18  C   UNL     1      -0.987  10.450  18.169  0.00  0.00    +0.000 A 
ATOM     19  C   UNL     1      -0.432  11.617  18.702  0.00  0.00    +0.000 A 
ATOM     20  C   UNL     1       0.944  11.712  18.886  0.00  0.00    +0.000 A 
ATOM     21  C   UNL     1       1.777  10.648  18.539  0.00  0.00    +0.000 A 
ATOM     22  C   UNL     1       1.253   9.469  18.005  0.00  0.00    +0.000 A 
ATOM     23  C   UNL     1      -0.140   9.378  17.832  0.00  0.00    +0.000 A 
ENDBRANCH  13  22
ENDBRANCH   1  14
TORSDOF 3
ENDMDL
MODEL 4
REMARK VINA RESULT:      -8.0      0.088      1.025
REMARK  Name = 
REMARK  4 active torsions:
REMARK  status: ('A' for Active; 'I' for Inactive)
REMARK    1  A    between atoms: C_1  and  C_2
REMARK    2  A    between atoms: C_6  and  N_7
REMARK    3  A    between atoms: C_8  and  C_10
REMARK    4  A    between atoms: C_15  and  C_16
REMARK                            x       y       z     vdW  Elec       q    Type
REMARK                         _______ _______ _______ _____ _____    ______ ____
ROOT
ATOM      1  C   UNL     1       2.792   4.504  19.898  0.00  0.00    +0.000 A 
ATOM      2  C   UNL     1       1.917   4.071  20.920  0.00  0.00    +0.000 A 
ATOM      3  C   UNL     1       2.121   2.861  21.576  0.00  0.00    +0.000 A 
ATOM      4  C   UNL     1       3.204   2.072  21.225  0.00  0.00    +0.000 A 
ATOM      5  C   UNL     1       4.088   2.499  20.228  0.00  0.00    +0.000 A 
ATOM      6  C   UNL     1       3.911   3.714  19.518  0.00  0.00    +0.000 A 
ENDROOT
BRANCH   6   7
ATOM      7  C   UNL     1       4.882   4.052  18.431  0.00  0.00    +0.000 A 
ATOM      8  C   UNL     1       4.650   3.651  17.096  0.00  0.00    +0.000 A 
ATOM      9  C   UNL     1       5.527   3.981  16.055  0.00  0.00    +0.000 A 
ATOM     10  C   UNL     1       6.655   4.747  16.314  0.00  0.00    +0.000 A 
ATOM     11  C   UNL     1       6.924   5.144  17.619  0.00  0.00    +0.000 A 
ATOM     12  C   UNL     1       6.065   4.776  18.665  0.00  0.00    +0.000 A 
ENDBRANCH   6   7
BRANCH   1  14
ATOM     13  N   UNL     1       2.407   6.916  19.886  0.00  0.00    +0.000 N 
ATOM     14  C   UNL     1       2.360   5.728  19.158  0.00  0.00    +0.000 C 
ATOM     15  O   UNL     1       1.968   5.597  18.008  0.00  0.00    +0.000 OA
ATOM     16  H   UNL     1       2.797   6.874  20.821  0.00  0.00    +0.000 HD
BRANCH  13  22
ATOM     17  C   UNL     1      -0.389  10.880  20.870  0.00  0.00    +0.000 C 
ATOM     18  C   UNL     1       0.546  10.143  19.955  0.00  0.00    +0.000 A 
ATOM     19  C   UNL     1       0.883  10.687  18.712  0.00  0.00    +0.000 A 
ATOM     20  C   UNL     1       1.732   9.993  17.855  0.00  0.00    +0.000 A 
ATOM     21  C   UNL     1       2.250   8.752  18.228  0.00  0.00    +0.000 A 
ATOM     22  C   UNL     1       1.934   8.184  19.464  0.00  0.00    +0.000 A 
ATOM     23  C   UNL     1       1.084   8.897  20.327  0.00  0.00    +0.000 A 
ENDBRANCH  13  22
ENDBRANCH   1  14
TORSDOF 3
ENDMDL
MODEL 5
REMARK VINA RESULT:      -8.0      1.736      4.103
REMARK  Name = 
REMARK  4 active torsions:
REMARK  status: ('A' for Active; 'I' for Inactive)
REMARK    1  A    between atoms: C_1  and  C_2
REMARK    2  A    between atoms: C_6  and  N_7
REMARK    3  A    between atoms: C_8  and  C_10
REMARK    4  A    between atoms: C_15  and  C_16
REMARK                            x       y       z     vdW  Elec       q    Type
REMARK                         _______ _______ _______ _____ _____    ______ ____
ROOT
ATOM      1  C   UNL     1       3.637   6.319  17.594  0.00  0.00    +0.000 A 
ATOM      2  C   UNL     1       4.564   6.855  16.673  0.00  0.00    +0.000 A 
ATOM      3  C   UNL     1       5.525   6.049  16.070  0.00  0.00    +0.000 A 
ATOM      4  C   UNL     1       5.568   4.697  16.375  0.00  0.00    +0.000 A 
ATOM      5  C   UNL     1       4.642   4.153  17.271  0.00  0.00    +0.000 A 
ATOM      6  C   UNL     1       3.658   4.936  17.925  0.00  0.00    +0.000 A 
ENDROOT
BRANCH   6   7
ATOM      7  C   UNL     1       2.751   4.267  18.910  0.00  0.00    +0.000 A 
ATOM      8  C   UNL     1       3.140   4.092  20.256  0.00  0.00    +0.000 A 
ATOM      9  C   UNL     1       2.298   3.496  21.205  0.00  0.00    +0.000 A 
ATOM     10  C   UNL     1       1.027   3.078  20.838  0.00  0.00    +0.000 A 
ATOM     11  C   UNL     1       0.618   3.217  19.517  0.00  0.00    +0.000 A 
ATOM     12  C   UNL     1       1.479   3.777  18.562  0.00  0.00    +0.000 A 
ENDBRANCH   6   7
BRANCH   1  14
ATOM     13  N   UNL     1       2.273   8.343  17.498  0.00  0.00    +0.000 N 
ATOM     14  C   UNL     1       2.780   7.320  18.298  0.00  0.00    +0.000 C 
ATOM     15  O   UNL     1       2.620   7.196  19.504  0.00  0.00    +0.000 OA
ATOM     16  H   UNL     1       2.456   8.290  16.502  0.00  0.00    +0.000 HD
BRANCH  13  22
ATOM     17  C   UNL     1       2.371  13.090  18.898  0.00  0.00    +0.000 C 
ATOM     18  C   UNL     1       1.601  11.828  18.633  0.00  0.00    +0.000 A 
ATOM     19  C   UNL     1       0.224  11.785  18.870  0.00  0.00    +0.000 A 
ATOM     20  C   UNL     1      -0.484  10.609  18.645  0.00  0.00    +0.000 A 
ATOM     21  C   UNL     1       0.173   9.467  18.186  0.00  0.00    +0.000 A 
ATOM     22  C   UNL     1       1.547   9.479  17.938  0.00  0.00    +0.000 A 
ATOM     23  C   UNL     1       2.253  10.674  18.159  0.00  0.00    +0.000 A 
ENDBRANCH  13  22
ENDBRANCH   1  14
TORSDOF 3
ENDMDL
MODEL 6
REMARK VINA RESULT:      -7.9      1.764      4.246
REMARK  Name = 
REMARK  4 active torsions:
REMARK  status: ('A' for Active; 'I' for Inactive)
REMARK    1  A    between atoms: C_1  and  C_2
REMARK    2  A    between atoms: C_6  and  N_7
REMARK    3  A    between atoms: C_8  and  C_10
REMARK    4  A    between atoms: C_15  and  C_16
REMARK                            x       y       z     vdW  Elec       q    Type
REMARK                         _______ _______ _______ _____ _____    ______ ____
ROOT
ATOM      1  C   UNL     1       3.571   6.409  17.643  0.00  0.00    +0.000 A 
ATOM      2  C   UNL     1       4.490   6.936  16.708  0.00  0.00    +0.000 A 
ATOM      3  C   UNL     1       5.455   6.128  16.116  0.00  0.00    +0.000 A 
ATOM      4  C   UNL     1       5.512   4.783  16.446  0.00  0.00    +0.000 A 
ATOM      5  C   UNL     1       4.595   4.247  17.357  0.00  0.00    +0.000 A 
ATOM      6  C   UNL     1       3.607   5.034  18.000  0.00  0.00    +0.000 A 
ENDROOT
BRANCH   6   7
ATOM      7  C   UNL     1       2.710   4.375  19.001  0.00  0.00    +0.000 A 
ATOM      8  C   UNL     1       1.472   3.815  18.614  0.00  0.00    +0.000 A 
ATOM      9  C   UNL     1       0.629   3.166  19.525  0.00  0.00    +0.000 A 
ATOM     10  C   UNL     1       1.012   3.035  20.852  0.00  0.00    +0.000 A 
ATOM     11  C   UNL     1       2.215   3.590  21.273  0.00  0.00    +0.000 A 
ATOM     12  C   UNL     1       3.037   4.275  20.366  0.00  0.00    +0.000 A 
ENDBRANCH   6   7
BRANCH   1  14
ATOM     13  N   UNL     1       2.237   8.453  17.527  0.00  0.00    +0.000 N 
ATOM     14  C   UNL     1       2.708   7.416  18.332  0.00  0.00    +0.000 C 
ATOM     15  O   UNL     1       2.512   7.283  19.531  0.00  0.00    +0.000 OA
ATOM     16  H   UNL     1       2.449   8.406  16.536  0.00  0.00    +0.000 HD
BRANCH  13  22
ATOM     17  C   UNL     1       2.356  13.194  18.943  0.00  0.00    +0.000 C 
ATOM     18  C   UNL     1       1.579  11.941  18.660  0.00  0.00    +0.000 A 
ATOM     19  C   UNL     1       0.197  11.911  18.870  0.00  0.00    +0.000 A 
ATOM     20  C   UNL     1      -0.518  10.742  18.628  0.00  0.00    +0.000 A 
ATOM     21  C   UNL     1       0.136   9.595  18.178  0.00  0.00    +0.000 A 
ATOM     22  C   UNL     1       1.515   9.594  17.957  0.00  0.00    +0.000 A 
ATOM     23  C   UNL     1       2.228  10.782  18.194  0.00  0.00    +0.000 A 
ENDBRANCH  13  22
ENDBRANCH   1  14
TORSDOF 3
ENDMDL
MODEL 7
REMARK VINA RESULT:      -7.9      1.829      2.240
REMARK  Name = 
REMARK  4 active torsions:
REMARK  status: ('A' for Active; 'I' for Inactive)
REMARK    1  A    between atoms: C_1  and  C_2
REMARK    2  A    between atoms: C_6  and  N_7
REMARK    3  A    between atoms: C_8  and  C_10
REMARK    4  A    between atoms: C_15  and  C_16
REMARK                            x       y       z     vdW  Elec       q    Type
REMARK                         _______ _______ _______ _____ _____    ______ ____
ROOT
ATOM      1  C   UNL     1       2.807   5.098  18.373  0.00  0.00    +0.000 A 
ATOM      2  C   UNL     1       1.659   4.283  18.255  0.00  0.00    +0.000 A 
ATOM      3  C   UNL     1       1.765   2.939  17.910  0.00  0.00    +0.000 A 
ATOM      4  C   UNL     1       3.019   2.392  17.683  0.00  0.00    +0.000 A 
ATOM      5  C   UNL     1       4.163   3.186  17.815  0.00  0.00    +0.000 A 
ATOM      6  C   UNL     1       4.105   4.563  18.146  0.00  0.00    +0.000 A 
ENDROOT
BRANCH   6   7
ATOM      7  C   UNL     1       5.384   5.337  18.208  0.00  0.00    +0.000 A 
ATOM      8  C   UNL     1       6.255   5.218  19.314  0.00  0.00    +0.000 A 
ATOM      9  C   UNL     1       7.473   5.907  19.382  0.00  0.00    +0.000 A 
ATOM     10  C   UNL     1       7.869   6.721  18.330  0.00  0.00    +0.000 A 
ATOM     11  C   UNL     1       7.028   6.877  17.234  0.00  0.00    +0.000 A 
ATOM     12  C   UNL     1       5.791   6.217  17.188  0.00  0.00    +0.000 A 
ENDBRANCH   6   7
BRANCH   1  14
ATOM     13  N   UNL     1       1.928   6.892  19.779  0.00  0.00    +0.000 N 
ATOM     14  C   UNL     1       2.542   6.555  18.574  0.00  0.00    +0.000 C 
ATOM     15  O   UNL     1       2.840   7.325  17.672  0.00  0.00    +0.000 OA
ATOM     16  H   UNL     1       1.780   6.146  20.451  0.00  0.00    +0.000 HD
BRANCH  13  22
ATOM     17  C   UNL     1      -0.136   9.731  23.269  0.00  0.00    +0.000 C 
ATOM     18  C   UNL     1       0.430   9.575  21.887  0.00  0.00    +0.000 A 
ATOM     19  C   UNL     1       0.433  10.659  21.004  0.00  0.00    +0.000 A 
ATOM     20  C   UNL     1       0.938  10.506  19.716  0.00  0.00    +0.000 A 
ATOM     21  C   UNL     1       1.442   9.275  19.298  0.00  0.00    +0.000 A 
ATOM     22  C   UNL     1       1.455   8.174  20.157  0.00  0.00    +0.000 A 
ATOM     23  C   UNL     1       0.952   8.339  21.459  0.00  0.00    +0.000 A 
ENDBRANCH  13  22
ENDBRANCH   1  14
TORSDOF 3
ENDMDL
MODEL 8
REMARK VINA RESULT:      -7.8      1.648      3.996
REMARK  Name = 
REMARK  4 active torsions:
REMARK  status: ('A' for Active; 'I' for Inactive)
REMARK    1  A    between atoms: C_1  and  C_2
REMARK    2  A    between atoms: C_6  and  N_7
REMARK    3  A    between atoms: C_8  and  C_10
REMARK    4  A    between atoms: C_15  and  C_16
REMARK                            x       y       z     vdW  Elec       q    Type
REMARK                         _______ _______ _______ _____ _____    ______ ____
ROOT
ATOM      1  C   UNL     1       4.641   5.744  16.695  0.00  0.00    +0.000 A 
ATOM      2  C   UNL     1       5.590   6.028  15.687  0.00  0.00    +0.000 A 
ATOM      3  C   UNL     1       6.192   5.006  14.959  0.00  0.00    +0.000 A 
ATOM      4  C   UNL     1       5.849   3.689  15.225  0.00  0.00    +0.000 A 
ATOM      5  C   UNL     1       4.897   3.398  16.208  0.00  0.00    +0.000 A 
ATOM      6  C   UNL     1       4.272   4.403  16.988  0.00  0.00    +0.000 A 
ENDROOT
BRANCH   6   7
ATOM      7  C   UNL     1       3.308   3.982  18.053  0.00  0.00    +0.000 A 
ATOM      8  C   UNL     1       3.710   3.890  19.405  0.00  0.00    +0.000 A 
ATOM      9  C   UNL     1       2.821   3.529  20.425  0.00  0.00    +0.000 A 
ATOM     10  C   UNL     1       1.490   3.272  20.126  0.00  0.00    +0.000 A 
ATOM     11  C   UNL     1       1.064   3.334  18.804  0.00  0.00    +0.000 A 
ATOM     12  C   UNL     1       1.967   3.657  17.781  0.00  0.00    +0.000 A 
ENDBRANCH   6   7
BRANCH   1  14
ATOM     13  N   UNL     1       2.846   6.971  17.809  0.00  0.00    +0.000 N 
ATOM     14  C   UNL     1       4.208   6.915  17.517  0.00  0.00    +0.000 C 
ATOM     15  O   UNL     1       5.053   7.740  17.833  0.00  0.00    +0.000 OA
ATOM     16  H   UNL     1       2.274   6.188  17.514  0.00  0.00    +0.000 HD
BRANCH  13  22
ATOM     17  C   UNL     1       0.836   8.738  21.973  0.00  0.00    +0.000 C 
ATOM     18  C   UNL     1       1.168   8.902  20.518  0.00  0.00    +0.000 A 
ATOM     19  C   UNL     1       0.761  10.051  19.832  0.00  0.00    +0.000 A 
ATOM     20  C   UNL     1       1.051  10.192  18.479  0.00  0.00    +0.000 A 
ATOM     21  C   UNL     1       1.743   9.191  17.797  0.00  0.00    +0.000 A 
ATOM     22  C   UNL     1       2.164   8.033  18.455  0.00  0.00    +0.000 A 
ATOM     23  C   UNL     1       1.876   7.903  19.825  0.00  0.00    +0.000 A 
ENDBRANCH  13  22
ENDBRANCH   1  14
TORSDOF 3
ENDMDL
MODEL 9
REMARK VINA RESULT:      -7.8      1.719      6.106
REMARK  Name = 
REMARK  4 active torsions:
REMARK  status: ('A' for Active; 'I' for Inactive)
REMARK    1  A    between atoms: C_1  and  C_2
REMARK    2  A    between atoms: C_6  and  N_7
REMARK    3  A    between atoms: C_8  and  C_10
REMARK    4  A    between atoms: C_15  and  C_16
REMARK                            x       y       z     vdW  Elec       q    Type
REMARK                         _______ _______ _______ _____ _____    ______ ____
ROOT
ATOM      1  C   UNL     1       3.576   4.141  19.565  0.00  0.00    +0.000 A 
ATOM      2  C   UNL     1       3.762   2.848  20.105  0.00  0.00    +0.000 A 
ATOM      3  C   UNL     1       2.917   2.355  21.094  0.00  0.00    +0.000 A 
ATOM      4  C   UNL     1       1.874   3.143  21.553  0.00  0.00    +0.000 A 
ATOM      5  C   UNL     1       1.669   4.417  21.013  0.00  0.00    +0.000 A 
ATOM      6  C   UNL     1       2.514   4.971  20.018  0.00  0.00    +0.000 A 
ENDROOT
BRANCH   6   7
ATOM      7  C   UNL     1       2.242   6.365  19.546  0.00  0.00    +0.000 A 
ATOM      8  C   UNL     1       1.741   7.348  20.429  0.00  0.00    +0.000 A 
ATOM      9  C   UNL     1       1.508   8.668  20.021  0.00  0.00    +0.000 A 
ATOM     10  C   UNL     1       1.793   9.051  18.718  0.00  0.00    +0.000 A 
ATOM     11  C   UNL     1       2.269   8.106  17.817  0.00  0.00    +0.000 A 
ATOM     12  C   UNL     1       2.463   6.776  18.219  0.00  0.00    +0.000 A 
ENDBRANCH   6   7
BRANCH   1  14
ATOM     13  N   UNL     1       4.498   4.253  17.306  0.00  0.00    +0.000 N 
ATOM     14  C   UNL     1       4.653   4.613  18.644  0.00  0.00    +0.000 C 
ATOM     15  O   UNL     1       5.591   5.233  19.124  0.00  0.00    +0.000 OA
ATOM     16  H   UNL     1       3.642   3.772  17.049  0.00  0.00    +0.000 HD
BRANCH  13  22
ATOM     17  C   UNL     1       5.757   3.431  12.590  0.00  0.00    +0.000 C 
ATOM     18  C   UNL     1       6.054   4.049  13.926  0.00  0.00    +0.000 A 
ATOM     19  C   UNL     1       7.243   4.757  14.123  0.00  0.00    +0.000 A 
ATOM     20  C   UNL     1       7.526   5.310  15.368  0.00  0.00    +0.000 A 
ATOM     21  C   UNL     1       6.630   5.161  16.426  0.00  0.00    +0.000 A 
ATOM     22  C   UNL     1       5.433   4.461  16.261  0.00  0.00    +0.000 A 
ATOM     23  C   UNL     1       5.150   3.914  14.997  0.00  0.00    +0.000 A 
ENDBRANCH  13  22
ENDBRANCH   1  14
TORSDOF 3
ENDMDL
