MODEL 1
REMARK VINA RESULT:      -7.6      0.000      0.000
REMARK  Name = 
REMARK  5 active torsions:
REMARK  status: ('A' for Active; 'I' for Inactive)
REMARK    1  A    between atoms: C_1  and  C_2
REMARK    2  A    between atoms: C_2  and  N_3
REMARK    3  A    between atoms: C_5  and  O_6
REMARK    4  A    between atoms: O_6  and  C_7
REMARK    5  A    between atoms: C_14  and  C_15
REMARK                            x       y       z     vdW  Elec       q    Type
REMARK                         _______ _______ _______ _____ _____    ______ ____
ROOT
ATOM      1  N   UNL     1       6.653   6.439  16.597  0.00  0.00    +0.000 NA
ATOM      2  C   UNL     1       5.210   6.701  16.768  0.00  0.00    +0.000 C 
ATOM      3  C   UNL     1       4.663   5.483  17.511  0.00  0.00    +0.000 C 
ATOM      4  C   UNL     1       5.383   4.353  16.784  0.00  0.00    +0.000 C 
ATOM      5  C   UNL     1       6.724   4.960  16.350  0.00  0.00    +0.000 C 
ENDROOT
BRANCH   5   6
ATOM      6  C   UNL     1       6.974   4.704  14.848  0.00  0.00    +0.000 C 
ATOM      7  N   UNL     1       6.313   3.633  14.321  0.00  0.00    +0.000 N 
ATOM      8  O   UNL     1       7.704   5.406  14.157  0.00  0.00    +0.000 OA
ATOM      9  H   UNL     1       5.759   3.061  14.951  0.00  0.00    +0.000 HD
ATOM     10  H   UNL     1       6.447   3.374  13.356  0.00  0.00    +0.000 HD
ENDBRANCH   5   6
BRANCH   1  12
ATOM     11  C   UNL     1       7.913   8.298  17.706  0.00  0.00    +0.000 C 
ATOM     12  C   UNL     1       7.410   6.860  17.789  0.00  0.00    +0.000 C 
ENDBRANCH   1  12
BRANCH   3  13
ATOM     13  O   UNL     1       3.248   5.328  17.400  0.00  0.00    +0.000 OA
BRANCH  13  14
ATOM     14  C   UNL     1       2.629   4.837  18.523  0.00  0.00    +0.000 A 
ATOM     15  C   UNL     1       2.876   5.288  19.820  0.00  0.00    +0.000 A 
ATOM     16  C   UNL     1       2.205   4.733  20.906  0.00  0.00    +0.000 A 
ATOM     17  C   UNL     1       1.273   3.721  20.706  0.00  0.00    +0.000 A 
ATOM     18  C   UNL     1       1.002   3.278  19.411  0.00  0.00    +0.000 A 
ATOM     19  C   UNL     1       1.670   3.843  18.322  0.00  0.00    +0.000 A 
ENDBRANCH  13  14
ENDBRANCH   3  13
TORSDOF 4
ENDMDL
MODEL 2
REMARK VINA RESULT:      -7.6      0.098      1.169
REMARK  Name = 
REMARK  5 active torsions:
REMARK  status: ('A' for Active; 'I' for Inactive)
REMARK    1  A    between atoms: C_1  and  C_2
REMARK    2  A    between atoms: C_2  and  N_3
REMARK    3  A    between atoms: C_5  and  O_6
REMARK    4  A    between atoms: O_6  and  C_7
REMARK    5  A    between atoms: C_14  and  C_15
REMARK                            x       y       z     vdW  Elec       q    Type
REMARK                         _______ _______ _______ _____ _____    ______ ____
ROOT
ATOM      1  N   UNL     1       6.661   6.415  16.651  0.00  0.00    +0.000 NA
ATOM      2  C   UNL     1       5.228   6.736  16.795  0.00  0.00    +0.000 C 
ATOM      3  C   UNL     1       4.615   5.537  17.518  0.00  0.00    +0.000 C 
ATOM      4  C   UNL     1       5.302   4.383  16.796  0.00  0.00    +0.000 C 
ATOM      5  C   UNL     1       6.675   4.936  16.394  0.00  0.00    +0.000 C 
ENDROOT
BRANCH   5   6
ATOM      6  C   UNL     1       6.945   4.679  14.895  0.00  0.00    +0.000 C 
ATOM      7  N   UNL     1       6.285   3.612  14.359  0.00  0.00    +0.000 N 
ATOM      8  O   UNL     1       7.688   5.377  14.215  0.00  0.00    +0.000 OA
ATOM      9  H   UNL     1       5.719   3.043  14.980  0.00  0.00    +0.000 HD
ATOM     10  H   UNL     1       6.431   3.353  13.395  0.00  0.00    +0.000 HD
ENDBRANCH   5   6
BRANCH   1  12
ATOM     11  C   UNL     1       7.969   8.215  17.801  0.00  0.00    +0.000 C 
ATOM     12  C   UNL     1       7.411   6.796  17.860  0.00  0.00    +0.000 C 
ENDBRANCH   1  12
BRANCH   3  13
ATOM     13  O   UNL     1       3.197   5.442  17.377  0.00  0.00    +0.000 OA
BRANCH  13  14
ATOM     14  C   UNL     1       2.549   4.854  18.434  0.00  0.00    +0.000 A 
ATOM     15  C   UNL     1       1.689   3.760  18.322  0.00  0.00    +0.000 A 
ATOM     16  C   UNL     1       1.068   3.225  19.448  0.00  0.00    +0.000 A 
ATOM     17  C   UNL     1       1.305   3.776  20.702  0.00  0.00    +0.000 A 
ATOM     18  C   UNL     1       2.179   4.855  20.828  0.00  0.00    +0.000 A 
ATOM     19  C   UNL     1       2.809   5.385  19.698  0.00  0.00    +0.000 A 
ENDBRANCH  13  14
ENDBRANCH   3  13
TORSDOF 4
ENDMDL
MODEL 3
REMARK VINA RESULT:      -7.1      1.164      1.182
REMARK  Name = 
REMARK  5 active torsions:
REMARK  status: ('A' for Active; 'I' for Inactive)
REMARK    1  A    between atoms: C_1  and  C_2
REMARK    2  A    between atoms: C_2  and  N_3
REMARK    3  A    between atoms: C_5  and  O_6
REMARK    4  A    between atoms: O_6  and  C_7
REMARK    5  A    between atoms: C_14  and  C_15
REMARK                            x       y       z     vdW  Elec       q    Type
REMARK                         _______ _______ _______ _____ _____    ______ ____
ROOT
ATOM      1  N   UNL     1       6.502   6.198  16.438  0.00  0.00    +0.000 NA
ATOM      2  C   UNL     1       5.062   6.263  16.756  0.00  0.00    +0.000 C 
ATOM      3  C   UNL     1       4.731   4.922  17.409  0.00  0.00    +0.000 C 
ATOM      4  C   UNL     1       5.502   3.963  16.508  0.00  0.00    +0.000 C 
ATOM      5  C   UNL     1       6.716   4.769  16.030  0.00  0.00    +0.000 C 
ENDROOT
BRANCH   5   6
ATOM      6  C   UNL     1       6.849   4.690  14.494  0.00  0.00    +0.000 C 
ATOM      7  N   UNL     1       7.796   5.506  13.947  0.00  0.00    +0.000 N 
ATOM      8  O   UNL     1       6.168   3.947  13.796  0.00  0.00    +0.000 OA
ATOM      9  H   UNL     1       8.297   6.133  14.568  0.00  0.00    +0.000 HD
ATOM     10  H   UNL     1       7.924   5.542  12.947  0.00  0.00    +0.000 HD
ENDBRANCH   5   6
BRANCH   1  12
ATOM     11  C   UNL     1       7.732   8.061  17.573  0.00  0.00    +0.000 C 
ATOM     12  C   UNL     1       7.317   6.593  17.599  0.00  0.00    +0.000 C 
ENDBRANCH   1  12
BRANCH   3  13
ATOM     13  O   UNL     1       3.338   4.606  17.401  0.00  0.00    +0.000 OA
BRANCH  13  14
ATOM     14  C   UNL     1       2.862   4.061  18.567  0.00  0.00    +0.000 A 
ATOM     15  C   UNL     1       3.641   3.352  19.483  0.00  0.00    +0.000 A 
ATOM     16  C   UNL     1       3.076   2.828  20.643  0.00  0.00    +0.000 A 
ATOM     17  C   UNL     1       1.724   3.014  20.904  0.00  0.00    +0.000 A 
ATOM     18  C   UNL     1       0.940   3.740  20.007  0.00  0.00    +0.000 A 
ATOM     19  C   UNL     1       1.511   4.272  18.847  0.00  0.00    +0.000 A 
ENDBRANCH  13  14
ENDBRANCH   3  13
TORSDOF 4
ENDMDL
MODEL 4
REMARK VINA RESULT:      -7.0      1.591      2.956
REMARK  Name = 
REMARK  5 active torsions:
REMARK  status: ('A' for Active; 'I' for Inactive)
REMARK    1  A    between atoms: C_1  and  C_2
REMARK    2  A    between atoms: C_2  and  N_3
REMARK    3  A    between atoms: C_5  and  O_6
REMARK    4  A    between atoms: O_6  and  C_7
REMARK    5  A    between atoms: C_14  and  C_15
REMARK                            x       y       z     vdW  Elec       q    Type
REMARK                         _______ _______ _______ _____ _____    ______ ____
ROOT
ATOM      1  N   UNL     1       6.263   4.822  17.170  0.00  0.00    +0.000 NA
ATOM      2  C   UNL     1       5.051   4.705  18.004  0.00  0.00    +0.000 C 
ATOM      3  C   UNL     1       4.046   5.684  17.399  0.00  0.00    +0.000 C 
ATOM      4  C   UNL     1       4.944   6.885  17.122  0.00  0.00    +0.000 C 
ATOM      5  C   UNL     1       6.322   6.281  16.824  0.00  0.00    +0.000 C 
ENDROOT
BRANCH   5   6
ATOM      6  C   UNL     1       7.410   6.966  17.680  0.00  0.00    +0.000 C 
ATOM      7  N   UNL     1       7.703   8.252  17.330  0.00  0.00    +0.000 N 
ATOM      8  O   UNL     1       7.977   6.416  18.617  0.00  0.00    +0.000 OA
ATOM      9  H   UNL     1       7.236   8.641  16.517  0.00  0.00    +0.000 HD
ATOM     10  H   UNL     1       8.426   8.761  17.814  0.00  0.00    +0.000 HD
ENDBRANCH   5   6
BRANCH   1  12
ATOM     11  C   UNL     1       6.731   4.599  14.720  0.00  0.00    +0.000 C 
ATOM     12  C   UNL     1       6.173   3.953  15.984  0.00  0.00    +0.000 C 
ENDBRANCH   1  12
BRANCH   3  13
ATOM     13  O   UNL     1       2.987   6.044  18.285  0.00  0.00    +0.000 OA
BRANCH  13  14
ATOM     14  C   UNL     1       2.255   4.990  18.772  0.00  0.00    +0.000 A 
ATOM     15  C   UNL     1       1.732   3.963  17.984  0.00  0.00    +0.000 A 
ATOM     16  C   UNL     1       0.996   2.930  18.559  0.00  0.00    +0.000 A 
ATOM     17  C   UNL     1       0.780   2.909  19.932  0.00  0.00    +0.000 A 
ATOM     18  C   UNL     1       1.317   3.918  20.732  0.00  0.00    +0.000 A 
ATOM     19  C   UNL     1       2.062   4.949  20.153  0.00  0.00    +0.000 A 
ENDBRANCH  13  14
ENDBRANCH   3  13
TORSDOF 4
ENDMDL
MODEL 5
REMARK VINA RESULT:      -7.0      1.484      1.771
REMARK  Name = 
REMARK  5 active torsions:
REMARK  status: ('A' for Active; 'I' for Inactive)
REMARK    1  A    between atoms: C_1  and  C_2
REMARK    2  A    between atoms: C_2  and  N_3
REMARK    3  A    between atoms: C_5  and  O_6
REMARK    4  A    between atoms: O_6  and  C_7
REMARK    5  A    between atoms: C_14  and  C_15
REMARK                            x       y       z     vdW  Elec       q    Type
REMARK                         _______ _______ _______ _____ _____    ______ ____
ROOT
ATOM      1  N   UNL     1       6.818   5.213  16.926  0.00  0.00    +0.000 NA
ATOM      2  C   UNL     1       5.530   5.687  17.471  0.00  0.00    +0.000 C 
ATOM      3  C   UNL     1       4.689   4.427  17.675  0.00  0.00    +0.000 C 
ATOM      4  C   UNL     1       4.999   3.663  16.392  0.00  0.00    +0.000 C 
ATOM      5  C   UNL     1       6.432   4.073  16.030  0.00  0.00    +0.000 C 
ENDROOT
BRANCH   5   6
ATOM      6  C   UNL     1       6.509   4.530  14.557  0.00  0.00    +0.000 C 
ATOM      7  N   UNL     1       7.495   5.430  14.277  0.00  0.00    +0.000 N 
ATOM      8  O   UNL     1       5.753   4.120  13.684  0.00  0.00    +0.000 OA
ATOM      9  H   UNL     1       8.060   5.769  15.048  0.00  0.00    +0.000 HD
ATOM     10  H   UNL     1       7.593   5.807  13.347  0.00  0.00    +0.000 HD
ENDBRANCH   5   6
BRANCH   1  12
ATOM     11  C   UNL     1       7.823   5.837  19.134  0.00  0.00    +0.000 C 
ATOM     12  C   UNL     1       7.732   4.811  18.009  0.00  0.00    +0.000 C 
ENDBRANCH   1  12
BRANCH   3  13
ATOM     13  O   UNL     1       3.288   4.681  17.780  0.00  0.00    +0.000 OA
BRANCH  13  14
ATOM     14  C   UNL     1       2.666   4.065  18.838  0.00  0.00    +0.000 A 
ATOM     15  C   UNL     1       1.282   3.961  18.987  0.00  0.00    +0.000 A 
ATOM     16  C   UNL     1       0.732   3.320  20.094  0.00  0.00    +0.000 A 
ATOM     17  C   UNL     1       1.562   2.770  21.064  0.00  0.00    +0.000 A 
ATOM     18  C   UNL     1       2.947   2.848  20.914  0.00  0.00    +0.000 A 
ATOM     19  C   UNL     1       3.497   3.484  19.797  0.00  0.00    +0.000 A 
ENDBRANCH  13  14
ENDBRANCH   3  13
TORSDOF 4
ENDMDL
MODEL 6
REMARK VINA RESULT:      -6.9      0.970      1.323
REMARK  Name = 
REMARK  5 active torsions:
REMARK  status: ('A' for Active; 'I' for Inactive)
REMARK    1  A    between atoms: C_1  and  C_2
REMARK    2  A    between atoms: C_2  and  N_3
REMARK    3  A    between atoms: C_5  and  O_6
REMARK    4  A    between atoms: O_6  and  C_7
REMARK    5  A    between atoms: C_14  and  C_15
REMARK                            x       y       z     vdW  Elec       q    Type
REMARK                         _______ _______ _______ _____ _____    ______ ____
ROOT
ATOM      1  N   UNL     1       6.159   6.308  16.436  0.00  0.00    +0.000 NA
ATOM      2  C   UNL     1       4.710   6.101  16.630  0.00  0.00    +0.000 C 
ATOM      3  C   UNL     1       4.588   4.781  17.390  0.00  0.00    +0.000 C 
ATOM      4  C   UNL     1       5.619   3.929  16.658  0.00  0.00    +0.000 C 
ATOM      5  C   UNL     1       6.691   4.925  16.197  0.00  0.00    +0.000 C 
ENDROOT
BRANCH   5   6
ATOM      6  C   UNL     1       6.988   4.744  14.693  0.00  0.00    +0.000 C 
ATOM      7  N   UNL     1       6.341   3.703  14.092  0.00  0.00    +0.000 N 
ATOM      8  O   UNL     1       7.741   5.477  14.061  0.00  0.00    +0.000 OA
ATOM      9  H   UNL     1       5.767   3.103  14.674  0.00  0.00    +0.000 HD
ATOM     10  H   UNL     1       6.506   3.493  13.120  0.00  0.00    +0.000 HD
ENDBRANCH   5   6
BRANCH   1  12
ATOM     11  C   UNL     1       7.705   6.050  18.389  0.00  0.00    +0.000 C 
ATOM     12  C   UNL     1       6.760   6.961  17.612  0.00  0.00    +0.000 C 
ENDBRANCH   1  12
BRANCH   3  13
ATOM     13  O   UNL     1       3.293   4.184  17.304  0.00  0.00    +0.000 OA
BRANCH  13  14
ATOM     14  C   UNL     1       2.727   3.854  18.510  0.00  0.00    +0.000 A 
ATOM     15  C   UNL     1       1.401   4.119  18.858  0.00  0.00    +0.000 A 
ATOM     16  C   UNL     1       0.906   3.752  20.106  0.00  0.00    +0.000 A 
ATOM     17  C   UNL     1       1.731   3.109  21.022  0.00  0.00    +0.000 A 
ATOM     18  C   UNL     1       3.052   2.819  20.677  0.00  0.00    +0.000 A 
ATOM     19  C   UNL     1       3.544   3.180  19.419  0.00  0.00    +0.000 A 
ENDBRANCH  13  14
ENDBRANCH   3  13
TORSDOF 4
ENDMDL
MODEL 7
REMARK VINA RESULT:      -6.9      1.605      2.731
REMARK  Name = 
REMARK  5 active torsions:
REMARK  status: ('A' for Active; 'I' for Inactive)
REMARK    1  A    between atoms: C_1  and  C_2
REMARK    2  A    between atoms: C_2  and  N_3
REMARK    3  A    between atoms: C_5  and  O_6
REMARK    4  A    between atoms: O_6  and  C_7
REMARK    5  A    between atoms: C_14  and  C_15
REMARK                            x       y       z     vdW  Elec       q    Type
REMARK                         _______ _______ _______ _____ _____    ______ ____
ROOT
ATOM      1  N   UNL     1       6.045   4.691  17.126  0.00  0.00    +0.000 NA
ATOM      2  C   UNL     1       4.871   4.611  18.018  0.00  0.00    +0.000 C 
ATOM      3  C   UNL     1       3.874   5.630  17.468  0.00  0.00    +0.000 C 
ATOM      4  C   UNL     1       4.800   6.801  17.155  0.00  0.00    +0.000 C 
ATOM      5  C   UNL     1       6.140   6.151  16.787  0.00  0.00    +0.000 C 
ENDROOT
BRANCH   5   6
ATOM      6  C   UNL     1       7.292   6.789  17.592  0.00  0.00    +0.000 C 
ATOM      7  N   UNL     1       7.646   8.049  17.205  0.00  0.00    +0.000 N 
ATOM      8  O   UNL     1       7.857   6.226  18.523  0.00  0.00    +0.000 OA
ATOM      9  H   UNL     1       7.175   8.447  16.399  0.00  0.00    +0.000 HD
ATOM     10  H   UNL     1       8.412   8.525  17.655  0.00  0.00    +0.000 HD
ENDBRANCH   5   6
BRANCH   1  12
ATOM     11  C   UNL     1       6.420   4.454  14.661  0.00  0.00    +0.000 C 
ATOM     12  C   UNL     1       5.865   3.836  15.941  0.00  0.00    +0.000 C 
ENDBRANCH   1  12
BRANCH   3  13
ATOM     13  O   UNL     1       2.873   6.022  18.408  0.00  0.00    +0.000 OA
BRANCH  13  14
ATOM     14  C   UNL     1       2.309   4.990  19.116  0.00  0.00    +0.000 A 
ATOM     15  C   UNL     1       2.405   4.839  20.501  0.00  0.00    +0.000 A 
ATOM     16  C   UNL     1       1.804   3.759  21.142  0.00  0.00    +0.000 A 
ATOM     17  C   UNL     1       1.094   2.819  20.405  0.00  0.00    +0.000 A 
ATOM     18  C   UNL     1       0.973   2.972  19.023  0.00  0.00    +0.000 A 
ATOM     19  C   UNL     1       1.569   4.062  18.383  0.00  0.00    +0.000 A 
ENDBRANCH  13  14
ENDBRANCH   3  13
TORSDOF 4
ENDMDL
MODEL 8
REMARK VINA RESULT:      -6.8      0.972      1.284
REMARK  Name = 
REMARK  5 active torsions:
REMARK  status: ('A' for Active; 'I' for Inactive)
REMARK    1  A    between atoms: C_1  and  C_2
REMARK    2  A    between atoms: C_2  and  N_3
REMARK    3  A    between atoms: C_5  and  O_6
REMARK    4  A    between atoms: O_6  and  C_7
REMARK    5  A    between atoms: C_14  and  C_15
REMARK                            x       y       z     vdW  Elec       q    Type
REMARK                         _______ _______ _______ _____ _____    ______ ____
ROOT
ATOM      1  N   UNL     1       6.833   6.451  16.468  0.00  0.00    +0.000 NA
ATOM      2  C   UNL     1       5.403   6.732  16.702  0.00  0.00    +0.000 C 
ATOM      3  C   UNL     1       4.869   5.515  17.458  0.00  0.00    +0.000 C 
ATOM      4  C   UNL     1       5.542   4.381  16.692  0.00  0.00    +0.000 C 
ATOM      5  C   UNL     1       6.872   4.973  16.207  0.00  0.00    +0.000 C 
ENDROOT
BRANCH   5   6
ATOM      6  C   UNL     1       7.055   4.726  14.694  0.00  0.00    +0.000 C 
ATOM      7  N   UNL     1       6.358   3.668  14.187  0.00  0.00    +0.000 N 
ATOM      8  O   UNL     1       7.764   5.423  13.978  0.00  0.00    +0.000 OA
ATOM      9  H   UNL     1       5.824   3.098  14.835  0.00  0.00    +0.000 HD
ATOM     10  H   UNL     1       6.448   3.415  13.215  0.00  0.00    +0.000 HD
ENDBRANCH   5   6
BRANCH   1  12
ATOM     11  C   UNL     1       7.909   8.352  17.692  0.00  0.00    +0.000 C 
ATOM     12  C   UNL     1       7.645   6.851  17.630  0.00  0.00    +0.000 C 
ENDBRANCH   1  12
BRANCH   3  13
ATOM     13  O   UNL     1       3.449   5.381  17.404  0.00  0.00    +0.000 OA
BRANCH  13  14
ATOM     14  C   UNL     1       2.787   5.778  18.540  0.00  0.00    +0.000 A 
ATOM     15  C   UNL     1       2.574   7.108  18.905  0.00  0.00    +0.000 A 
ATOM     16  C   UNL     1       1.894   7.423  20.078  0.00  0.00    +0.000 A 
ATOM     17  C   UNL     1       1.413   6.410  20.899  0.00  0.00    +0.000 A 
ATOM     18  C   UNL     1       1.601   5.077  20.533  0.00  0.00    +0.000 A 
ATOM     19  C   UNL     1       2.276   4.762  19.350  0.00  0.00    +0.000 A 
ENDBRANCH  13  14
ENDBRANCH   3  13
TORSDOF 4
ENDMDL
MODEL 9
REMARK VINA RESULT:      -6.7      1.786      3.200
REMARK  Name = 
REMARK  5 active torsions:
REMARK  status: ('A' for Active; 'I' for Inactive)
REMARK    1  A    between atoms: C_1  and  C_2
REMARK    2  A    between atoms: C_2  and  N_3
REMARK    3  A    between atoms: C_5  and  O_6
REMARK    4  A    between atoms: O_6  and  C_7
REMARK    5  A    between atoms: C_14  and  C_15
REMARK                            x       y       z     vdW  Elec       q    Type
REMARK                         _______ _______ _______ _____ _____    ______ ____
ROOT
ATOM      1  N   UNL     1       6.592   5.294  16.264  0.00  0.00    +0.000 NA
ATOM      2  C   UNL     1       6.251   4.090  17.047  0.00  0.00    +0.000 C 
ATOM      3  C   UNL     1       4.948   4.431  17.769  0.00  0.00    +0.000 C 
ATOM      4  C   UNL     1       5.236   5.858  18.225  0.00  0.00    +0.000 C 
ATOM      5  C   UNL     1       6.169   6.430  17.150  0.00  0.00    +0.000 C 
ENDROOT
BRANCH   5   6
ATOM      6  C   UNL     1       7.417   7.066  17.798  0.00  0.00    +0.000 C 
ATOM      7  N   UNL     1       7.801   8.265  17.272  0.00  0.00    +0.000 N 
ATOM      8  O   UNL     1       8.030   6.553  18.727  0.00  0.00    +0.000 OA
ATOM      9  H   UNL     1       7.284   8.620  16.474  0.00  0.00    +0.000 HD
ATOM     10  H   UNL     1       8.627   8.732  17.613  0.00  0.00    +0.000 HD
ENDBRANCH   5   6
BRANCH   1  12
ATOM     11  C   UNL     1       6.082   3.989  14.189  0.00  0.00    +0.000 C 
ATOM     12  C   UNL     1       5.901   5.291  14.963  0.00  0.00    +0.000 C 
ENDBRANCH   1  12
BRANCH   3  13
ATOM     13  O   UNL     1       4.675   3.593  18.892  0.00  0.00    +0.000 OA
BRANCH  13  14
ATOM     14  C   UNL     1       3.342   3.392  19.154  0.00  0.00    +0.000 A 
ATOM     15  C   UNL     1       2.499   2.591  18.383  0.00  0.00    +0.000 A 
ATOM     16  C   UNL     1       1.155   2.443  18.718  0.00  0.00    +0.000 A 
ATOM     17  C   UNL     1       0.640   3.092  19.833  0.00  0.00    +0.000 A 
ATOM     18  C   UNL     1       1.480   3.878  20.624  0.00  0.00    +0.000 A 
ATOM     19  C   UNL     1       2.830   4.017  20.291  0.00  0.00    +0.000 A 
ENDBRANCH  13  14
ENDBRANCH   3  13
TORSDOF 4
ENDMDL
