MODEL 1
REMARK VINA RESULT:      -8.5      0.000      0.000
REMARK  Name = 
REMARK  8 active torsions:
REMARK  status: ('A' for Active; 'I' for Inactive)
REMARK    1  A    between atoms: C_1  and  C_2
REMARK    2  A    between atoms: C_2  and  C_3
REMARK    3  A    between atoms: C_3  and  C_4
REMARK    4  A    between atoms: C_4  and  N_5
REMARK    5  A    between atoms: C_9  and  C_10
REMARK    6  A    between atoms: C_10  and  C_11
REMARK    7  A    between atoms: C_10  and  N_20
REMARK    8  A    between atoms: N_23  and  C_24
REMARK                            x       y       z     vdW  Elec       q    Type
REMARK                         _______ _______ _______ _____ _____    ______ ____
ROOT
ATOM      1  C   UNL     1       4.457   5.256  18.018  0.00  0.00    +0.000 C 
ENDROOT
BRANCH   1   2
ATOM      2  C   UNL     1       5.171   5.086  16.697  0.00  0.00    +0.000 A 
ATOM      3  C   UNL     1       6.159   5.849  16.107  0.00  0.00    +0.000 A 
ATOM      4  C   UNL     1       6.691   5.059  15.066  0.00  0.00    +0.000 A 
ATOM      5  C   UNL     1       7.754   5.202  14.165  0.00  0.00    +0.000 A 
ATOM      6  C   UNL     1       7.405   4.984  12.834  0.00  0.00    +0.000 A 
ATOM      7  C   UNL     1       6.334   4.145  12.522  0.00  0.00    +0.000 A 
ATOM      8  C   UNL     1       5.545   3.559  13.528  0.00  0.00    +0.000 A 
ATOM      9  C   UNL     1       5.695   4.140  14.783  0.00  0.00    +0.000 A 
ATOM     10  O   UNL     1       4.880   4.022  15.873  0.00  0.00    +0.000 OA
ENDBRANCH   1   2
BRANCH   1  11
ATOM     11  N   UNL     1       3.104   5.814  17.958  0.00  0.00    +0.000 NA
ATOM     12  C   UNL     1       2.339   5.764  19.210  0.00  0.00    +0.000 C 
ATOM     13  C   UNL     1       2.355   7.043  20.063  0.00  0.00    +0.000 C 
ATOM     14  N   UNL     1       1.956   8.178  19.222  0.00  0.00    +0.000 N 
ATOM     15  C   UNL     1       2.743   8.405  18.012  0.00  0.00    +0.000 C 
ATOM     16  C   UNL     1       2.983   7.092  17.230  0.00  0.00    +0.000 C 
BRANCH  14  17
ATOM     17  C   UNL     1       1.095   9.158  19.685  0.00  0.00    +0.000 A 
ATOM     18  C   UNL     1       1.102   9.617  21.003  0.00  0.00    +0.000 A 
ATOM     19  C   UNL     1       0.295  10.690  21.409  0.00  0.00    +0.000 A 
ATOM     20  C   UNL     1      -0.530  11.350  20.500  0.00  0.00    +0.000 A 
ATOM     21  C   UNL     1      -0.583  10.891  19.191  0.00  0.00    +0.000 A 
ATOM     22  C   UNL     1       0.203   9.810  18.791  0.00  0.00    +0.000 A 
ATOM     23  F   UNL     1       0.185   9.474  17.484  0.00  0.00    +0.000 F 
ENDBRANCH  14  17
ENDBRANCH   1  11
BRANCH   1  28
ATOM     24  N   UNL     1       3.663   2.862  18.578  0.00  0.00    +0.000 N 
ATOM     25  N   UNL     1       4.021   1.860  19.413  0.00  0.00    +0.000 NA
ATOM     26  N   UNL     1       5.014   2.357  20.143  0.00  0.00    +0.000 NA
ATOM     27  N   UNL     1       5.262   3.663  19.819  0.00  0.00    +0.000 NA
ATOM     28  C   UNL     1       4.452   3.970  18.815  0.00  0.00    +0.000 A 
BRANCH  24  29
ATOM     29  C   UNL     1       2.390   2.735  17.903  0.00  0.00    +0.000 C 
BRANCH  29  30
ATOM     30  C   UNL     1       1.187   2.198  18.689  0.00  0.00    +0.000 C 
BRANCH  30  32
ATOM     31  C   UNL     1       1.237   2.774  21.149  0.00  0.00    +0.000 C 
ATOM     32  C   UNL     1       0.637   3.118  19.785  0.00  0.00    +0.000 C 
ENDBRANCH  30  32
ENDBRANCH  29  30
ENDBRANCH  24  29
ENDBRANCH   1  28
TORSDOF 7
ENDMDL
MODEL 2
REMARK VINA RESULT:      -8.4      0.833      1.182
REMARK  Name = 
REMARK  8 active torsions:
REMARK  status: ('A' for Active; 'I' for Inactive)
REMARK    1  A    between atoms: C_1  and  C_2
REMARK    2  A    between atoms: C_2  and  C_3
REMARK    3  A    between atoms: C_3  and  C_4
REMARK    4  A    between atoms: C_4  and  N_5
REMARK    5  A    between atoms: C_9  and  C_10
REMARK    6  A    between atoms: C_10  and  C_11
REMARK    7  A    between atoms: C_10  and  N_20
REMARK    8  A    between atoms: N_23  and  C_24
REMARK                            x       y       z     vdW  Elec       q    Type
REMARK                         _______ _______ _______ _____ _____    ______ ____
ROOT
ATOM      1  C   UNL     1       4.462   5.221  18.020  0.00  0.00    +0.000 C 
ENDROOT
BRANCH   1   2
ATOM      2  C   UNL     1       5.186   5.058  16.703  0.00  0.00    +0.000 A 
ATOM      3  C   UNL     1       6.189   5.816  16.131  0.00  0.00    +0.000 A 
ATOM      4  C   UNL     1       6.718   5.031  15.083  0.00  0.00    +0.000 A 
ATOM      5  C   UNL     1       7.790   5.171  14.193  0.00  0.00    +0.000 A 
ATOM      6  C   UNL     1       7.449   4.976  12.856  0.00  0.00    +0.000 A 
ATOM      7  C   UNL     1       6.368   4.157  12.524  0.00  0.00    +0.000 A 
ATOM      8  C   UNL     1       5.563   3.569  13.516  0.00  0.00    +0.000 A 
ATOM      9  C   UNL     1       5.712   4.131  14.780  0.00  0.00    +0.000 A 
ATOM     10  O   UNL     1       4.886   4.009  15.862  0.00  0.00    +0.000 OA
ENDBRANCH   1   2
BRANCH   1  11
ATOM     11  N   UNL     1       3.110   5.778  17.954  0.00  0.00    +0.000 NA
ATOM     12  C   UNL     1       2.365   5.791  19.219  0.00  0.00    +0.000 C 
ATOM     13  C   UNL     1       2.397   7.111  20.009  0.00  0.00    +0.000 C 
ATOM     14  N   UNL     1       1.985   8.204  19.119  0.00  0.00    +0.000 N 
ATOM     15  C   UNL     1       2.753   8.369  17.887  0.00  0.00    +0.000 C 
ATOM     16  C   UNL     1       2.978   7.019  17.166  0.00  0.00    +0.000 C 
BRANCH  14  17
ATOM     17  C   UNL     1       1.133   9.207  19.547  0.00  0.00    +0.000 A 
ATOM     18  C   UNL     1       0.358   9.972  18.675  0.00  0.00    +0.000 A 
ATOM     19  C   UNL     1      -0.578  10.901  19.150  0.00  0.00    +0.000 A 
ATOM     20  C   UNL     1      -0.784  11.076  20.518  0.00  0.00    +0.000 A 
ATOM     21  C   UNL     1      -0.001  10.353  21.407  0.00  0.00    +0.000 A 
ATOM     22  C   UNL     1       0.947   9.445  20.936  0.00  0.00    +0.000 A 
ATOM     23  F   UNL     1       1.605   8.699  21.848  0.00  0.00    +0.000 F 
ENDBRANCH  14  17
ENDBRANCH   1  11
BRANCH   1  28
ATOM     24  N   UNL     1       3.658   2.829  18.571  0.00  0.00    +0.000 N 
ATOM     25  N   UNL     1       4.014   1.820  19.399  0.00  0.00    +0.000 NA
ATOM     26  N   UNL     1       5.013   2.307  20.127  0.00  0.00    +0.000 NA
ATOM     27  N   UNL     1       5.267   3.614  19.809  0.00  0.00    +0.000 NA
ATOM     28  C   UNL     1       4.455   3.931  18.810  0.00  0.00    +0.000 A 
BRANCH  24  29
ATOM     29  C   UNL     1       2.381   2.712  17.901  0.00  0.00    +0.000 C 
BRANCH  29  30
ATOM     30  C   UNL     1       1.173   2.203  18.697  0.00  0.00    +0.000 C 
BRANCH  30  32
ATOM     31  C   UNL     1       1.241   2.778  21.156  0.00  0.00    +0.000 C 
ATOM     32  C   UNL     1       0.649   3.137  19.793  0.00  0.00    +0.000 C 
ENDBRANCH  30  32
ENDBRANCH  29  30
ENDBRANCH  24  29
ENDBRANCH   1  28
TORSDOF 7
ENDMDL
MODEL 3
REMARK VINA RESULT:      -8.2      3.594      5.891
REMARK  Name = 
REMARK  8 active torsions:
REMARK  status: ('A' for Active; 'I' for Inactive)
REMARK    1  A    between atoms: C_1  and  C_2
REMARK    2  A    between atoms: C_2  and  C_3
REMARK    3  A    between atoms: C_3  and  C_4
REMARK    4  A    between atoms: C_4  and  N_5
REMARK    5  A    between atoms: C_9  and  C_10
REMARK    6  A    between atoms: C_10  and  C_11
REMARK    7  A    between atoms: C_10  and  N_20
REMARK    8  A    between atoms: N_23  and  C_24
REMARK                            x       y       z     vdW  Elec       q    Type
REMARK                         _______ _______ _______ _____ _____    ______ ____
ROOT
ATOM      1  C   UNL     1       5.845   5.729  15.769  0.00  0.00    +0.000 C 
ENDROOT
BRANCH   1   2
ATOM      2  C   UNL     1       5.991   4.839  14.557  0.00  0.00    +0.000 A 
ATOM      3  C   UNL     1       5.202   3.797  14.109  0.00  0.00    +0.000 A 
ATOM      4  C   UNL     1       5.600   3.553  12.778  0.00  0.00    +0.000 A 
ATOM      5  C   UNL     1       5.147   2.712  11.752  0.00  0.00    +0.000 A 
ATOM      6  C   UNL     1       6.148   1.944  11.162  0.00  0.00    +0.000 A 
ATOM      7  C   UNL     1       7.468   2.400  11.159  0.00  0.00    +0.000 A 
ATOM      8  C   UNL     1       7.831   3.598  11.801  0.00  0.00    +0.000 A 
ATOM      9  C   UNL     1       6.878   4.079  12.694  0.00  0.00    +0.000 A 
ATOM     10  O   UNL     1       7.037   5.014  13.677  0.00  0.00    +0.000 OA
ENDBRANCH   1   2
BRANCH   1  11
ATOM     11  N   UNL     1       4.540   5.714  16.433  0.00  0.00    +0.000 NA
ATOM     12  C   UNL     1       3.823   4.434  16.397  0.00  0.00    +0.000 C 
ATOM     13  C   UNL     1       3.975   3.538  17.638  0.00  0.00    +0.000 C 
ATOM     14  N   UNL     1       3.635   4.324  18.832  0.00  0.00    +0.000 N 
ATOM     15  C   UNL     1       4.390   5.556  19.041  0.00  0.00    +0.000 C 
ATOM     16  C   UNL     1       4.493   6.393  17.743  0.00  0.00    +0.000 C 
BRANCH  14  17
ATOM     17  C   UNL     1       2.874   3.792  19.858  0.00  0.00    +0.000 A 
ATOM     18  C   UNL     1       1.527   4.104  20.048  0.00  0.00    +0.000 A 
ATOM     19  C   UNL     1       0.757   3.460  21.027  0.00  0.00    +0.000 A 
ATOM     20  C   UNL     1       1.309   2.466  21.834  0.00  0.00    +0.000 A 
ATOM     21  C   UNL     1       2.655   2.162  21.690  0.00  0.00    +0.000 A 
ATOM     22  C   UNL     1       3.428   2.817  20.731  0.00  0.00    +0.000 A 
ATOM     23  F   UNL     1       4.703   2.407  20.570  0.00  0.00    +0.000 F 
ENDBRANCH  14  17
ENDBRANCH   1  11
BRANCH   1  28
ATOM     24  N   UNL     1       7.523   6.409  17.613  0.00  0.00    +0.000 N 
ATOM     25  N   UNL     1       8.379   5.795  18.461  0.00  0.00    +0.000 NA
ATOM     26  N   UNL     1       8.317   4.506  18.142  0.00  0.00    +0.000 NA
ATOM     27  N   UNL     1       7.474   4.298  17.084  0.00  0.00    +0.000 NA
ATOM     28  C   UNL     1       6.944   5.474  16.777  0.00  0.00    +0.000 A 
BRANCH  24  29
ATOM     29  C   UNL     1       7.633   7.846  17.491  0.00  0.00    +0.000 C 
BRANCH  29  30
ATOM     30  C   UNL     1       8.549   8.602  18.462  0.00  0.00    +0.000 C 
BRANCH  30  32
ATOM     31  C   UNL     1       9.556  10.770  19.281  0.00  0.00    +0.000 C 
ATOM     32  C   UNL     1       8.742  10.096  18.176  0.00  0.00    +0.000 C 
ENDBRANCH  30  32
ENDBRANCH  29  30
ENDBRANCH  24  29
ENDBRANCH   1  28
TORSDOF 7
ENDMDL
MODEL 4
REMARK VINA RESULT:      -8.2      1.861      2.671
REMARK  Name = 
REMARK  8 active torsions:
REMARK  status: ('A' for Active; 'I' for Inactive)
REMARK    1  A    between atoms: C_1  and  C_2
REMARK    2  A    between atoms: C_2  and  C_3
REMARK    3  A    between atoms: C_3  and  C_4
REMARK    4  A    between atoms: C_4  and  N_5
REMARK    5  A    between atoms: C_9  and  C_10
REMARK    6  A    between atoms: C_10  and  C_11
REMARK    7  A    between atoms: C_10  and  N_20
REMARK    8  A    between atoms: N_23  and  C_24
REMARK                            x       y       z     vdW  Elec       q    Type
REMARK                         _______ _______ _______ _____ _____    ______ ____
ROOT
ATOM      1  C   UNL     1       2.942   5.932  19.893  0.00  0.00    +0.000 C 
ENDROOT
BRANCH   1   2
ATOM      2  C   UNL     1       4.033   5.613  18.897  0.00  0.00    +0.000 A 
ATOM      3  C   UNL     1       5.401   5.520  19.066  0.00  0.00    +0.000 A 
ATOM      4  C   UNL     1       5.891   4.871  17.912  0.00  0.00    +0.000 A 
ATOM      5  C   UNL     1       7.146   4.399  17.505  0.00  0.00    +0.000 A 
ATOM      6  C   UNL     1       7.532   4.828  16.237  0.00  0.00    +0.000 A 
ATOM      7  C   UNL     1       6.563   5.147  15.284  0.00  0.00    +0.000 A 
ATOM      8  C   UNL     1       5.191   5.110  15.592  0.00  0.00    +0.000 A 
ATOM      9  C   UNL     1       4.912   5.076  16.955  0.00  0.00    +0.000 A 
ATOM     10  O   UNL     1       3.728   5.338  17.583  0.00  0.00    +0.000 OA
ENDBRANCH   1   2
BRANCH   1  11
ATOM     11  N   UNL     1       1.803   6.699  19.384  0.00  0.00    +0.000 NA
ATOM     12  C   UNL     1       1.056   7.469  20.386  0.00  0.00    +0.000 C 
ATOM     13  C   UNL     1       1.435   8.954  20.517  0.00  0.00    +0.000 C 
ATOM     14  N   UNL     1       1.372   9.577  19.189  0.00  0.00    +0.000 N 
ATOM     15  C   UNL     1       2.190   8.969  18.142  0.00  0.00    +0.000 C 
ATOM     16  C   UNL     1       2.047   7.429  18.124  0.00  0.00    +0.000 C 
BRANCH  14  17
ATOM     17  C   UNL     1       0.825  10.834  19.001  0.00  0.00    +0.000 A 
ATOM     18  C   UNL     1       1.596  11.993  18.895  0.00  0.00    +0.000 A 
ATOM     19  C   UNL     1       1.015  13.232  18.591  0.00  0.00    +0.000 A 
ATOM     20  C   UNL     1      -0.355  13.346  18.363  0.00  0.00    +0.000 A 
ATOM     21  C   UNL     1      -1.149  12.216  18.498  0.00  0.00    +0.000 A 
ATOM     22  C   UNL     1      -0.577  10.986  18.822  0.00  0.00    +0.000 A 
ATOM     23  F   UNL     1      -1.385   9.906  18.839  0.00  0.00    +0.000 F 
ENDBRANCH  14  17
ENDBRANCH   1  11
BRANCH   1  28
ATOM     24  N   UNL     1       1.973   3.540  19.997  0.00  0.00    +0.000 N 
ATOM     25  N   UNL     1       1.750   2.591  20.936  0.00  0.00    +0.000 NA
ATOM     26  N   UNL     1       2.094   3.158  22.088  0.00  0.00    +0.000 NA
ATOM     27  N   UNL     1       2.487   4.456  21.904  0.00  0.00    +0.000 NA
ATOM     28  C   UNL     1       2.455   4.686  20.598  0.00  0.00    +0.000 A 
BRANCH  24  29
ATOM     29  C   UNL     1       1.372   3.334  18.698  0.00  0.00    +0.000 C 
BRANCH  29  30
ATOM     30  C   UNL     1       1.875   2.177  17.826  0.00  0.00    +0.000 C 
BRANCH  30  32
ATOM     31  C   UNL     1       3.985   1.062  18.657  0.00  0.00    +0.000 C 
ATOM     32  C   UNL     1       3.395   2.067  17.667  0.00  0.00    +0.000 C 
ENDBRANCH  30  32
ENDBRANCH  29  30
ENDBRANCH  24  29
ENDBRANCH   1  28
TORSDOF 7
ENDMDL
MODEL 5
REMARK VINA RESULT:      -8.1      1.974      2.874
REMARK  Name = 
REMARK  8 active torsions:
REMARK  status: ('A' for Active; 'I' for Inactive)
REMARK    1  A    between atoms: C_1  and  C_2
REMARK    2  A    between atoms: C_2  and  C_3
REMARK    3  A    between atoms: C_3  and  C_4
REMARK    4  A    between atoms: C_4  and  N_5
REMARK    5  A    between atoms: C_9  and  C_10
REMARK    6  A    between atoms: C_10  and  C_11
REMARK    7  A    between atoms: C_10  and  N_20
REMARK    8  A    between atoms: N_23  and  C_24
REMARK                            x       y       z     vdW  Elec       q    Type
REMARK                         _______ _______ _______ _____ _____    ______ ____
ROOT
ATOM      1  C   UNL     1       2.864   6.039  19.945  0.00  0.00    +0.000 C 
ENDROOT
BRANCH   1   2
ATOM      2  C   UNL     1       3.950   5.808  18.919  0.00  0.00    +0.000 A 
ATOM      3  C   UNL     1       3.905   5.858  17.540  0.00  0.00    +0.000 A 
ATOM      4  C   UNL     1       5.248   5.900  17.109  0.00  0.00    +0.000 A 
ATOM      5  C   UNL     1       5.881   6.049  15.868  0.00  0.00    +0.000 A 
ATOM      6  C   UNL     1       6.848   5.082  15.602  0.00  0.00    +0.000 A 
ATOM      7  C   UNL     1       7.517   4.456  16.656  0.00  0.00    +0.000 A 
ATOM      8  C   UNL     1       7.191   4.729  17.997  0.00  0.00    +0.000 A 
ATOM      9  C   UNL     1       5.970   5.375  18.168  0.00  0.00    +0.000 A 
ATOM     10  O   UNL     1       5.235   5.505  19.312  0.00  0.00    +0.000 OA
ENDBRANCH   1   2
BRANCH   1  11
ATOM     11  N   UNL     1       1.702   6.810  19.499  0.00  0.00    +0.000 NA
ATOM     12  C   UNL     1       1.043   7.622  20.529  0.00  0.00    +0.000 C 
ATOM     13  C   UNL     1       1.453   9.104  20.587  0.00  0.00    +0.000 C 
ATOM     14  N   UNL     1       1.302   9.688  19.249  0.00  0.00    +0.000 N 
ATOM     15  C   UNL     1       2.030   9.036  18.164  0.00  0.00    +0.000 C 
ATOM     16  C   UNL     1       1.863   7.498  18.204  0.00  0.00    +0.000 C 
BRANCH  14  17
ATOM     17  C   UNL     1       0.760  10.948  19.064  0.00  0.00    +0.000 A 
ATOM     18  C   UNL     1       1.527  12.114  19.064  0.00  0.00    +0.000 A 
ATOM     19  C   UNL     1       0.963  13.362  18.760  0.00  0.00    +0.000 A 
ATOM     20  C   UNL     1      -0.385  13.477  18.426  0.00  0.00    +0.000 A 
ATOM     21  C   UNL     1      -1.178  12.338  18.453  0.00  0.00    +0.000 A 
ATOM     22  C   UNL     1      -0.623  11.100  18.777  0.00  0.00    +0.000 A 
ATOM     23  F   UNL     1      -1.421  10.015  18.688  0.00  0.00    +0.000 F 
ENDBRANCH  14  17
ENDBRANCH   1  11
BRANCH   1  28
ATOM     24  N   UNL     1       1.977   3.613  19.909  0.00  0.00    +0.000 N 
ATOM     25  N   UNL     1       1.778   2.607  20.792  0.00  0.00    +0.000 NA
ATOM     26  N   UNL     1       2.093   3.121  21.976  0.00  0.00    +0.000 NA
ATOM     27  N   UNL     1       2.443   4.440  21.868  0.00  0.00    +0.000 NA
ATOM     28  C   UNL     1       2.414   4.740  20.576  0.00  0.00    +0.000 A 
BRANCH  24  29
ATOM     29  C   UNL     1       1.395   3.459  18.593  0.00  0.00    +0.000 C 
BRANCH  29  30
ATOM     30  C   UNL     1       2.198   2.729  17.510  0.00  0.00    +0.000 C 
BRANCH  30  32
ATOM     31  C   UNL     1       3.859   1.072  18.450  0.00  0.00    +0.000 C 
ATOM     32  C   UNL     1       3.672   2.459  17.834  0.00  0.00    +0.000 C 
ENDBRANCH  30  32
ENDBRANCH  29  30
ENDBRANCH  24  29
ENDBRANCH   1  28
TORSDOF 7
ENDMDL
MODEL 6
REMARK VINA RESULT:      -8.1      0.986      1.548
REMARK  Name = 
REMARK  8 active torsions:
REMARK  status: ('A' for Active; 'I' for Inactive)
REMARK    1  A    between atoms: C_1  and  C_2
REMARK    2  A    between atoms: C_2  and  C_3
REMARK    3  A    between atoms: C_3  and  C_4
REMARK    4  A    between atoms: C_4  and  N_5
REMARK    5  A    between atoms: C_9  and  C_10
REMARK    6  A    between atoms: C_10  and  C_11
REMARK    7  A    between atoms: C_10  and  N_20
REMARK    8  A    between atoms: N_23  and  C_24
REMARK                            x       y       z     vdW  Elec       q    Type
REMARK                         _______ _______ _______ _____ _____    ______ ____
ROOT
ATOM      1  C   UNL     1       4.368   5.007  18.095  0.00  0.00    +0.000 C 
ENDROOT
BRANCH   1   2
ATOM      2  C   UNL     1       4.978   4.809  16.726  0.00  0.00    +0.000 A 
ATOM      3  C   UNL     1       4.772   3.817  15.788  0.00  0.00    +0.000 A 
ATOM      4  C   UNL     1       5.325   4.302  14.583  0.00  0.00    +0.000 A 
ATOM      5  C   UNL     1       5.366   3.839  13.261  0.00  0.00    +0.000 A 
ATOM      6  C   UNL     1       6.643   3.825  12.702  0.00  0.00    +0.000 A 
ATOM      7  C   UNL     1       7.614   4.717  13.160  0.00  0.00    +0.000 A 
ATOM      8  C   UNL     1       7.358   5.595  14.229  0.00  0.00    +0.000 A 
ATOM      9  C   UNL     1       6.233   5.268  14.981  0.00  0.00    +0.000 A 
ATOM     10  O   UNL     1       5.890   5.712  16.226  0.00  0.00    +0.000 OA
ENDBRANCH   1   2
BRANCH   1  11
ATOM     11  N   UNL     1       3.021   5.579  18.130  0.00  0.00    +0.000 NA
ATOM     12  C   UNL     1       2.430   5.734  19.464  0.00  0.00    +0.000 C 
ATOM     13  C   UNL     1       2.562   7.126  20.105  0.00  0.00    +0.000 C 
ATOM     14  N   UNL     1       2.056   8.130  19.161  0.00  0.00    +0.000 N 
ATOM     15  C   UNL     1       2.675   8.156  17.839  0.00  0.00    +0.000 C 
ATOM     16  C   UNL     1       2.806   6.736  17.239  0.00  0.00    +0.000 C 
BRANCH  14  17
ATOM     17  C   UNL     1       1.266   9.187  19.580  0.00  0.00    +0.000 A 
ATOM     18  C   UNL     1       0.984  10.293  18.777  0.00  0.00    +0.000 A 
ATOM     19  C   UNL     1       0.089  11.289  19.190  0.00  0.00    +0.000 A 
ATOM     20  C   UNL     1      -0.570  11.198  20.415  0.00  0.00    +0.000 A 
ATOM     21  C   UNL     1      -0.280  10.127  21.250  0.00  0.00    +0.000 A 
ATOM     22  C   UNL     1       0.628   9.146  20.849  0.00  0.00    +0.000 A 
ATOM     23  F   UNL     1       0.791   8.078  21.658  0.00  0.00    +0.000 F 
ENDBRANCH  14  17
ENDBRANCH   1  11
BRANCH   1  28
ATOM     24  N   UNL     1       3.645   2.603  18.704  0.00  0.00    +0.000 N 
ATOM     25  N   UNL     1       4.044   1.621  19.545  0.00  0.00    +0.000 NA
ATOM     26  N   UNL     1       5.040   2.152  20.247  0.00  0.00    +0.000 NA
ATOM     27  N   UNL     1       5.250   3.459  19.900  0.00  0.00    +0.000 NA
ATOM     28  C   UNL     1       4.412   3.733  18.909  0.00  0.00    +0.000 A 
BRANCH  24  29
ATOM     29  C   UNL     1       2.361   2.436  18.059  0.00  0.00    +0.000 C 
BRANCH  29  30
ATOM     30  C   UNL     1       1.133   2.125  18.924  0.00  0.00    +0.000 C 
BRANCH  30  32
ATOM     31  C   UNL     1       1.333   2.712  21.373  0.00  0.00    +0.000 C 
ATOM     32  C   UNL     1       0.800   3.154  20.009  0.00  0.00    +0.000 C 
ENDBRANCH  30  32
ENDBRANCH  29  30
ENDBRANCH  24  29
ENDBRANCH   1  28
TORSDOF 7
ENDMDL
MODEL 7
REMARK VINA RESULT:      -8.0      3.404      5.725
REMARK  Name = 
REMARK  8 active torsions:
REMARK  status: ('A' for Active; 'I' for Inactive)
REMARK    1  A    between atoms: C_1  and  C_2
REMARK    2  A    between atoms: C_2  and  C_3
REMARK    3  A    between atoms: C_3  and  C_4
REMARK    4  A    between atoms: C_4  and  N_5
REMARK    5  A    between atoms: C_9  and  C_10
REMARK    6  A    between atoms: C_10  and  C_11
REMARK    7  A    between atoms: C_10  and  N_20
REMARK    8  A    between atoms: N_23  and  C_24
REMARK                            x       y       z     vdW  Elec       q    Type
REMARK                         _______ _______ _______ _____ _____    ______ ____
ROOT
ATOM      1  C   UNL     1       5.840   5.739  15.773  0.00  0.00    +0.000 C 
ENDROOT
BRANCH   1   2
ATOM      2  C   UNL     1       5.995   4.854  14.557  0.00  0.00    +0.000 A 
ATOM      3  C   UNL     1       5.213   3.811  14.103  0.00  0.00    +0.000 A 
ATOM      4  C   UNL     1       5.618   3.573  12.771  0.00  0.00    +0.000 A 
ATOM      5  C   UNL     1       5.174   2.735  11.741  0.00  0.00    +0.000 A 
ATOM      6  C   UNL     1       6.181   1.973  11.152  0.00  0.00    +0.000 A 
ATOM      7  C   UNL     1       7.498   2.435  11.157  0.00  0.00    +0.000 A 
ATOM      8  C   UNL     1       7.853   3.632  11.806  0.00  0.00    +0.000 A 
ATOM      9  C   UNL     1       6.894   4.105  12.696  0.00  0.00    +0.000 A 
ATOM     10  O   UNL     1       7.044   5.037  13.684  0.00  0.00    +0.000 OA
ENDBRANCH   1   2
BRANCH   1  11
ATOM     11  N   UNL     1       4.535   5.709  16.436  0.00  0.00    +0.000 NA
ATOM     12  C   UNL     1       3.779   4.458  16.297  0.00  0.00    +0.000 C 
ATOM     13  C   UNL     1       3.904   3.460  17.460  0.00  0.00    +0.000 C 
ATOM     14  N   UNL     1       3.587   4.155  18.714  0.00  0.00    +0.000 N 
ATOM     15  C   UNL     1       4.379   5.343  19.022  0.00  0.00    +0.000 C 
ATOM     16  C   UNL     1       4.508   6.279  17.797  0.00  0.00    +0.000 C 
BRANCH  14  17
ATOM     17  C   UNL     1       2.810   3.564  19.695  0.00  0.00    +0.000 A 
ATOM     18  C   UNL     1       3.340   3.047  20.879  0.00  0.00    +0.000 A 
ATOM     19  C   UNL     1       2.512   2.559  21.900  0.00  0.00    +0.000 A 
ATOM     20  C   UNL     1       1.124   2.594  21.776  0.00  0.00    +0.000 A 
ATOM     21  C   UNL     1       0.572   3.069  20.594  0.00  0.00    +0.000 A 
ATOM     22  C   UNL     1       1.395   3.534  19.568  0.00  0.00    +0.000 A 
ATOM     23  F   UNL     1       0.799   4.078  18.487  0.00  0.00    +0.000 F 
ENDBRANCH  14  17
ENDBRANCH   1  11
BRANCH   1  28
ATOM     24  N   UNL     1       7.499   6.426  17.631  0.00  0.00    +0.000 N 
ATOM     25  N   UNL     1       8.365   5.817  18.473  0.00  0.00    +0.000 NA
ATOM     26  N   UNL     1       8.328   4.532  18.136  0.00  0.00    +0.000 NA
ATOM     27  N   UNL     1       7.493   4.322  17.073  0.00  0.00    +0.000 NA
ATOM     28  C   UNL     1       6.941   5.492  16.781  0.00  0.00    +0.000 A 
BRANCH  24  29
ATOM     29  C   UNL     1       7.581   7.867  17.530  0.00  0.00    +0.000 C 
BRANCH  29  30
ATOM     30  C   UNL     1       8.545   8.620  18.455  0.00  0.00    +0.000 C 
BRANCH  30  32
ATOM     31  C   UNL     1       9.381  10.846  19.308  0.00  0.00    +0.000 C 
ATOM     32  C   UNL     1       8.785  10.095  18.117  0.00  0.00    +0.000 C 
ENDBRANCH  30  32
ENDBRANCH  29  30
ENDBRANCH  24  29
ENDBRANCH   1  28
TORSDOF 7
ENDMDL
MODEL 8
REMARK VINA RESULT:      -7.9      1.560      2.291
REMARK  Name = 
REMARK  8 active torsions:
REMARK  status: ('A' for Active; 'I' for Inactive)
REMARK    1  A    between atoms: C_1  and  C_2
REMARK    2  A    between atoms: C_2  and  C_3
REMARK    3  A    between atoms: C_3  and  C_4
REMARK    4  A    between atoms: C_4  and  N_5
REMARK    5  A    between atoms: C_9  and  C_10
REMARK    6  A    between atoms: C_10  and  C_11
REMARK    7  A    between atoms: C_10  and  N_20
REMARK    8  A    between atoms: N_23  and  C_24
REMARK                            x       y       z     vdW  Elec       q    Type
REMARK                         _______ _______ _______ _____ _____    ______ ____
ROOT
ATOM      1  C   UNL     1       5.166   4.475  17.589  0.00  0.00    +0.000 C 
ENDROOT
BRANCH   1   2
ATOM      2  C   UNL     1       5.782   4.547  16.211  0.00  0.00    +0.000 A 
ATOM      3  C   UNL     1       6.530   5.543  15.614  0.00  0.00    +0.000 A 
ATOM      4  C   UNL     1       7.125   4.953  14.478  0.00  0.00    +0.000 A 
ATOM      5  C   UNL     1       8.050   5.380  13.517  0.00  0.00    +0.000 A 
ATOM      6  C   UNL     1       7.641   5.174  12.201  0.00  0.00    +0.000 A 
ATOM      7  C   UNL     1       6.749   4.143  11.901  0.00  0.00    +0.000 A 
ATOM      8  C   UNL     1       6.193   3.337  12.912  0.00  0.00    +0.000 A 
ATOM      9  C   UNL     1       6.326   3.858  14.196  0.00  0.00    +0.000 A 
ATOM     10  O   UNL     1       5.653   3.498  15.328  0.00  0.00    +0.000 OA
ENDBRANCH   1   2
BRANCH   1  11
ATOM     11  N   UNL     1       4.996   5.749  18.292  0.00  0.00    +0.000 NA
ATOM     12  C   UNL     1       4.682   6.906  17.445  0.00  0.00    +0.000 C 
ATOM     13  C   UNL     1       3.193   7.274  17.328  0.00  0.00    +0.000 C 
ATOM     14  N   UNL     1       2.635   7.416  18.679  0.00  0.00    +0.000 N 
ATOM     15  C   UNL     1       2.770   6.265  19.567  0.00  0.00    +0.000 C 
ATOM     16  C   UNL     1       4.203   5.681  19.535  0.00  0.00    +0.000 C 
BRANCH  14  17
ATOM     17  C   UNL     1       1.766   8.444  19.001  0.00  0.00    +0.000 A 
ATOM     18  C   UNL     1       1.235   9.319  18.051  0.00  0.00    +0.000 A 
ATOM     19  C   UNL     1       0.271  10.276  18.395  0.00  0.00    +0.000 A 
ATOM     20  C   UNL     1      -0.209  10.373  19.700  0.00  0.00    +0.000 A 
ATOM     21  C   UNL     1       0.328   9.539  20.672  0.00  0.00    +0.000 A 
ATOM     22  C   UNL     1       1.304   8.602  20.335  0.00  0.00    +0.000 A 
ATOM     23  F   UNL     1       1.713   7.752  21.300  0.00  0.00    +0.000 F 
ENDBRANCH  14  17
ENDBRANCH   1  11
BRANCH   1  28
ATOM     24  N   UNL     1       3.428   2.801  18.513  0.00  0.00    +0.000 N 
ATOM     25  N   UNL     1       2.161   2.418  18.233  0.00  0.00    +0.000 NA
ATOM     26  N   UNL     1       1.831   3.094  17.137  0.00  0.00    +0.000 NA
ATOM     27  N   UNL     1       2.874   3.860  16.694  0.00  0.00    +0.000 NA
ATOM     28  C   UNL     1       3.858   3.715  17.571  0.00  0.00    +0.000 A 
BRANCH  24  29
ATOM     29  C   UNL     1       4.173   1.983  19.445  0.00  0.00    +0.000 C 
BRANCH  29  30
ATOM     30  C   UNL     1       3.971   2.205  20.949  0.00  0.00    +0.000 C 
BRANCH  30  32
ATOM     31  C   UNL     1       2.068   3.628  21.809  0.00  0.00    +0.000 C 
ATOM     32  C   UNL     1       2.518   2.215  21.437  0.00  0.00    +0.000 C 
ENDBRANCH  30  32
ENDBRANCH  29  30
ENDBRANCH  24  29
ENDBRANCH   1  28
TORSDOF 7
ENDMDL
MODEL 9
REMARK VINA RESULT:      -7.9      0.764      1.206
REMARK  Name = 
REMARK  8 active torsions:
REMARK  status: ('A' for Active; 'I' for Inactive)
REMARK    1  A    between atoms: C_1  and  C_2
REMARK    2  A    between atoms: C_2  and  C_3
REMARK    3  A    between atoms: C_3  and  C_4
REMARK    4  A    between atoms: C_4  and  N_5
REMARK    5  A    between atoms: C_9  and  C_10
REMARK    6  A    between atoms: C_10  and  C_11
REMARK    7  A    between atoms: C_10  and  N_20
REMARK    8  A    between atoms: N_23  and  C_24
REMARK                            x       y       z     vdW  Elec       q    Type
REMARK                         _______ _______ _______ _____ _____    ______ ____
ROOT
ATOM      1  C   UNL     1       4.347   5.033  18.053  0.00  0.00    +0.000 C 
ENDROOT
BRANCH   1   2
ATOM      2  C   UNL     1       4.941   4.816  16.680  0.00  0.00    +0.000 A 
ATOM      3  C   UNL     1       4.677   3.846  15.732  0.00  0.00    +0.000 A 
ATOM      4  C   UNL     1       5.254   4.311  14.531  0.00  0.00    +0.000 A 
ATOM      5  C   UNL     1       5.266   3.860  13.204  0.00  0.00    +0.000 A 
ATOM      6  C   UNL     1       6.538   3.781  12.642  0.00  0.00    +0.000 A 
ATOM      7  C   UNL     1       7.559   4.613  13.105  0.00  0.00    +0.000 A 
ATOM      8  C   UNL     1       7.355   5.493  14.183  0.00  0.00    +0.000 A 
ATOM      9  C   UNL     1       6.216   5.221  14.935  0.00  0.00    +0.000 A 
ATOM     10  O   UNL     1       5.900   5.671  16.186  0.00  0.00    +0.000 OA
ENDBRANCH   1   2
BRANCH   1  11
ATOM     11  N   UNL     1       2.996   5.598  18.094  0.00  0.00    +0.000 NA
ATOM     12  C   UNL     1       2.399   5.722  19.429  0.00  0.00    +0.000 C 
ATOM     13  C   UNL     1       2.522   7.101  20.099  0.00  0.00    +0.000 C 
ATOM     14  N   UNL     1       2.014   8.122  19.174  0.00  0.00    +0.000 N 
ATOM     15  C   UNL     1       2.637   8.178  17.854  0.00  0.00    +0.000 C 
ATOM     16  C   UNL     1       2.778   6.772  17.226  0.00  0.00    +0.000 C 
BRANCH  14  17
ATOM     17  C   UNL     1       1.217   9.166  19.611  0.00  0.00    +0.000 A 
ATOM     18  C   UNL     1       0.401   9.080  20.741  0.00  0.00    +0.000 A 
ATOM     19  C   UNL     1      -0.304  10.192  21.221  0.00  0.00    +0.000 A 
ATOM     20  C   UNL     1      -0.198  11.433  20.595  0.00  0.00    +0.000 A 
ATOM     21  C   UNL     1       0.578  11.538  19.449  0.00  0.00    +0.000 A 
ATOM     22  C   UNL     1       1.263  10.426  18.957  0.00  0.00    +0.000 A 
ATOM     23  F   UNL     1       2.081  10.614  17.900  0.00  0.00    +0.000 F 
ENDBRANCH  14  17
ENDBRANCH   1  11
BRANCH   1  28
ATOM     24  N   UNL     1       3.644   2.637  18.714  0.00  0.00    +0.000 N 
ATOM     25  N   UNL     1       4.061   1.672  19.566  0.00  0.00    +0.000 NA
ATOM     26  N   UNL     1       5.064   2.220  20.244  0.00  0.00    +0.000 NA
ATOM     27  N   UNL     1       5.262   3.521  19.871  0.00  0.00    +0.000 NA
ATOM     28  C   UNL     1       4.409   3.774  18.888  0.00  0.00    +0.000 A 
BRANCH  24  29
ATOM     29  C   UNL     1       2.352   2.453  18.091  0.00  0.00    +0.000 C 
BRANCH  29  30
ATOM     30  C   UNL     1       1.141   2.139  18.978  0.00  0.00    +0.000 C 
BRANCH  30  32
ATOM     31  C   UNL     1       1.307   2.733  21.428  0.00  0.00    +0.000 C 
ATOM     32  C   UNL     1       0.809   3.179  20.053  0.00  0.00    +0.000 C 
ENDBRANCH  30  32
ENDBRANCH  29  30
ENDBRANCH  24  29
ENDBRANCH   1  28
TORSDOF 7
ENDMDL
