MODEL 1
REMARK VINA RESULT:      -7.9      0.000      0.000
REMARK  Name = 
REMARK  7 active torsions:
REMARK  status: ('A' for Active; 'I' for Inactive)
REMARK    1  A    between atoms: C_1  and  C_2
REMARK    2  A    between atoms: C_3  and  C_4
REMARK    3  A    between atoms: C_13  and  C_14
REMARK    4  A    between atoms: N_20  and  C_21
REMARK    5  A    between atoms: C_21  and  C_22
REMARK    6  A    between atoms: C_22  and  C_23
REMARK    7  A    between atoms: C_23  and  N_24
REMARK                            x       y       z     vdW  Elec       q    Type
REMARK                         _______ _______ _______ _____ _____    ______ ____
ROOT
ATOM      1  C   UNL     1       2.161   9.922  18.161  0.00  0.00    +0.000 C 
ATOM      2  C   UNL     1       1.840   8.830  19.132  0.00  0.00    +0.000 A 
ATOM      3  C   UNL     1       1.176   8.926  20.348  0.00  0.00    +0.000 A 
ATOM      4  C   UNL     1       1.239   7.635  20.936  0.00  0.00    +0.000 A 
ATOM      5  C   UNL     1       1.871   6.753  20.061  0.00  0.00    +0.000 A 
ATOM      6  N   UNL     1       2.174   7.499  18.919  0.00  0.00    +0.000 N 
ENDROOT
BRANCH   3   7
ATOM      7  C   UNL     1       0.538  10.149  20.849  0.00  0.00    +0.000 C 
ATOM      8  O   UNL     1       0.870  10.617  21.931  0.00  0.00    +0.000 OA
ATOM      9  N   UNL     1      -0.455  10.625  20.024  0.00  0.00    +0.000 N 
ATOM     10  C   UNL     1      -1.237  11.678  20.409  0.00  0.00    +0.000 A 
ATOM     11  N   UNL     1      -1.084  12.487  21.426  0.00  0.00    +0.000 NA
ATOM     12  C   UNL     1      -2.145  13.363  21.489  0.00  0.00    +0.000 A 
ATOM     13  C   UNL     1      -3.097  13.206  20.504  0.00  0.00    +0.000 A 
ATOM     14  S   UNL     1      -2.617  11.946  19.438  0.00  0.00    +0.000 S 
ATOM     15  H   UNL     1      -0.737  10.102  19.211  0.00  0.00    +0.000 HD
ENDBRANCH   3   7
BRANCH   5  16
ATOM     16  C   UNL     1       2.075   5.303  20.244  0.00  0.00    +0.000 A 
ATOM     17  C   UNL     1       0.971   4.468  20.489  0.00  0.00    +0.000 A 
ATOM     18  C   UNL     1       1.125   3.081  20.586  0.00  0.00    +0.000 A 
ATOM     19  C   UNL     1       2.382   2.504  20.424  0.00  0.00    +0.000 A 
ATOM     20  C   UNL     1       3.489   3.318  20.208  0.00  0.00    +0.000 A 
ATOM     21  C   UNL     1       3.341   4.708  20.154  0.00  0.00    +0.000 A 
ENDBRANCH   5  16
BRANCH   6  22
ATOM     22  C   UNL     1       2.737   7.008  17.662  0.00  0.00    +0.000 C 
BRANCH  22  23
ATOM     23  C   UNL     1       4.264   6.982  17.569  0.00  0.00    +0.000 C 
BRANCH  23  24
ATOM     24  C   UNL     1       4.778   6.365  16.266  0.00  0.00    +0.000 C 
BRANCH  24  25
ATOM     25  N   UNL     1       4.980   4.907  16.369  0.00  0.00    +0.000 NA
ATOM     26  C   UNL     1       5.849   4.583  17.529  0.00  0.00    +0.000 C 
ATOM     27  C   UNL     1       7.325   4.978  17.331  0.00  0.00    +0.000 C 
ATOM     28  O   UNL     1       7.876   4.409  16.135  0.00  0.00    +0.000 OA
ATOM     29  C   UNL     1       7.089   4.756  14.989  0.00  0.00    +0.000 C 
ATOM     30  C   UNL     1       5.631   4.310  15.175  0.00  0.00    +0.000 C 
ENDBRANCH  24  25
ENDBRANCH  23  24
ENDBRANCH  22  23
ENDBRANCH   6  22
TORSDOF 6
ENDMDL
MODEL 2
REMARK VINA RESULT:      -7.9      0.639      1.097
REMARK  Name = 
REMARK  7 active torsions:
REMARK  status: ('A' for Active; 'I' for Inactive)
REMARK    1  A    between atoms: C_1  and  C_2
REMARK    2  A    between atoms: C_3  and  C_4
REMARK    3  A    between atoms: C_13  and  C_14
REMARK    4  A    between atoms: N_20  and  C_21
REMARK    5  A    between atoms: C_21  and  C_22
REMARK    6  A    between atoms: C_22  and  C_23
REMARK    7  A    between atoms: C_23  and  N_24
REMARK                            x       y       z     vdW  Elec       q    Type
REMARK                         _______ _______ _______ _____ _____    ______ ____
ROOT
ATOM      1  C   UNL     1       1.930  10.102  18.176  0.00  0.00    +0.000 C 
ATOM      2  C   UNL     1       1.712   8.988  19.150  0.00  0.00    +0.000 A 
ATOM      3  C   UNL     1       1.121   9.045  20.405  0.00  0.00    +0.000 A 
ATOM      4  C   UNL     1       1.270   7.751  20.971  0.00  0.00    +0.000 A 
ATOM      5  C   UNL     1       1.879   6.903  20.046  0.00  0.00    +0.000 A 
ATOM      6  N   UNL     1       2.081   7.674  18.898  0.00  0.00    +0.000 N 
ENDROOT
BRANCH   3   7
ATOM      7  C   UNL     1       0.470  10.237  20.961  0.00  0.00    +0.000 C 
ATOM      8  O   UNL     1       0.751  10.621  22.090  0.00  0.00    +0.000 OA
ATOM      9  N   UNL     1      -0.476  10.783  20.124  0.00  0.00    +0.000 N 
ATOM     10  C   UNL     1      -1.267  11.815  20.546  0.00  0.00    +0.000 A 
ATOM     11  N   UNL     1      -1.159  12.547  21.624  0.00  0.00    +0.000 NA
ATOM     12  C   UNL     1      -2.214  13.429  21.698  0.00  0.00    +0.000 A 
ATOM     13  C   UNL     1      -3.117  13.356  20.658  0.00  0.00    +0.000 A 
ATOM     14  S   UNL     1      -2.595  12.169  19.529  0.00  0.00    +0.000 S 
ATOM     15  H   UNL     1      -0.721  10.323  19.263  0.00  0.00    +0.000 HD
ENDBRANCH   3   7
BRANCH   5  16
ATOM     16  C   UNL     1       2.149   5.461  20.197  0.00  0.00    +0.000 A 
ATOM     17  C   UNL     1       1.104   4.587  20.543  0.00  0.00    +0.000 A 
ATOM     18  C   UNL     1       1.313   3.206  20.613  0.00  0.00    +0.000 A 
ATOM     19  C   UNL     1       2.566   2.673  20.323  0.00  0.00    +0.000 A 
ATOM     20  C   UNL     1       3.618   3.526  20.005  0.00  0.00    +0.000 A 
ATOM     21  C   UNL     1       3.419   4.910  19.977  0.00  0.00    +0.000 A 
ENDBRANCH   5  16
BRANCH   6  22
ATOM     22  C   UNL     1       2.584   7.219  17.602  0.00  0.00    +0.000 C 
BRANCH  22  23
ATOM     23  C   UNL     1       4.085   7.390  17.360  0.00  0.00    +0.000 C 
BRANCH  23  24
ATOM     24  C   UNL     1       4.745   6.145  16.764  0.00  0.00    +0.000 C 
BRANCH  24  25
ATOM     25  N   UNL     1       6.055   6.435  16.151  0.00  0.00    +0.000 NA
ATOM     26  C   UNL     1       6.446   5.350  15.216  0.00  0.00    +0.000 C 
ATOM     27  C   UNL     1       6.838   4.035  15.917  0.00  0.00    +0.000 C 
ATOM     28  O   UNL     1       7.872   4.236  16.890  0.00  0.00    +0.000 OA
ATOM     29  C   UNL     1       7.497   5.238  17.842  0.00  0.00    +0.000 C 
ATOM     30  C   UNL     1       7.159   6.559  17.137  0.00  0.00    +0.000 C 
ENDBRANCH  24  25
ENDBRANCH  23  24
ENDBRANCH  22  23
ENDBRANCH   6  22
TORSDOF 6
ENDMDL
MODEL 3
REMARK VINA RESULT:      -7.7      2.521      4.379
REMARK  Name = 
REMARK  7 active torsions:
REMARK  status: ('A' for Active; 'I' for Inactive)
REMARK    1  A    between atoms: C_1  and  C_2
REMARK    2  A    between atoms: C_3  and  C_4
REMARK    3  A    between atoms: C_13  and  C_14
REMARK    4  A    between atoms: N_20  and  C_21
REMARK    5  A    between atoms: C_21  and  C_22
REMARK    6  A    between atoms: C_22  and  C_23
REMARK    7  A    between atoms: C_23  and  N_24
REMARK                            x       y       z     vdW  Elec       q    Type
REMARK                         _______ _______ _______ _____ _____    ______ ____
ROOT
ATOM      1  C   UNL     1       0.926   8.185  20.979  0.00  0.00    +0.000 C 
ATOM      2  C   UNL     1       1.698   8.125  19.699  0.00  0.00    +0.000 A 
ATOM      3  C   UNL     1       1.657   9.005  18.626  0.00  0.00    +0.000 A 
ATOM      4  C   UNL     1       2.479   8.437  17.617  0.00  0.00    +0.000 A 
ATOM      5  C   UNL     1       3.066   7.266  18.096  0.00  0.00    +0.000 A 
ATOM      6  N   UNL     1       2.623   7.129  19.413  0.00  0.00    +0.000 N 
ENDROOT
BRANCH   3   7
ATOM      7  C   UNL     1       0.906  10.266  18.618  0.00  0.00    +0.000 C 
ATOM      8  O   UNL     1      -0.247  10.293  18.204  0.00  0.00    +0.000 OA
ATOM      9  N   UNL     1       1.645  11.345  19.048  0.00  0.00    +0.000 N 
ATOM     10  C   UNL     1       1.137  12.611  18.974  0.00  0.00    +0.000 A 
ATOM     11  N   UNL     1      -0.086  12.994  18.710  0.00  0.00    +0.000 NA
ATOM     12  C   UNL     1      -0.145  14.369  18.662  0.00  0.00    +0.000 A 
ATOM     13  C   UNL     1       1.048  15.018  18.899  0.00  0.00    +0.000 A 
ATOM     14  S   UNL     1       2.273  13.861  19.237  0.00  0.00    +0.000 S 
ATOM     15  H   UNL     1       2.625  11.241  19.255  0.00  0.00    +0.000 HD
ENDBRANCH   3   7
BRANCH   5  16
ATOM     16  C   UNL     1       4.047   6.410  17.403  0.00  0.00    +0.000 A 
ATOM     17  C   UNL     1       5.289   6.942  17.015  0.00  0.00    +0.000 A 
ATOM     18  C   UNL     1       6.268   6.132  16.430  0.00  0.00    +0.000 A 
ATOM     19  C   UNL     1       6.029   4.774  16.238  0.00  0.00    +0.000 A 
ATOM     20  C   UNL     1       4.795   4.237  16.591  0.00  0.00    +0.000 A 
ATOM     21  C   UNL     1       3.801   5.056  17.137  0.00  0.00    +0.000 A 
ENDBRANCH   5  16
BRANCH   6  22
ATOM     22  C   UNL     1       3.044   6.126  20.391  0.00  0.00    +0.000 C 
BRANCH  22  23
ATOM     23  C   UNL     1       1.969   5.141  20.856  0.00  0.00    +0.000 C 
BRANCH  23  24
ATOM     24  C   UNL     1       1.446   4.244  19.731  0.00  0.00    +0.000 C 
BRANCH  24  25
ATOM     25  N   UNL     1       1.409   2.819  20.113  0.00  0.00    +0.000 NA
ATOM     26  C   UNL     1       2.686   2.417  20.753  0.00  0.00    +0.000 C 
ATOM     27  C   UNL     1       3.874   2.332  19.774  0.00  0.00    +0.000 C 
ATOM     28  O   UNL     1       3.591   1.469  18.665  0.00  0.00    +0.000 OA
ATOM     29  C   UNL     1       2.392   1.870  17.991  0.00  0.00    +0.000 C 
ATOM     30  C   UNL     1       1.205   1.900  18.964  0.00  0.00    +0.000 C 
ENDBRANCH  24  25
ENDBRANCH  23  24
ENDBRANCH  22  23
ENDBRANCH   6  22
TORSDOF 6
ENDMDL
MODEL 4
REMARK VINA RESULT:      -7.5      3.751      7.750
REMARK  Name = 
REMARK  7 active torsions:
REMARK  status: ('A' for Active; 'I' for Inactive)
REMARK    1  A    between atoms: C_1  and  C_2
REMARK    2  A    between atoms: C_3  and  C_4
REMARK    3  A    between atoms: C_13  and  C_14
REMARK    4  A    between atoms: N_20  and  C_21
REMARK    5  A    between atoms: C_21  and  C_22
REMARK    6  A    between atoms: C_22  and  C_23
REMARK    7  A    between atoms: C_23  and  N_24
REMARK                            x       y       z     vdW  Elec       q    Type
REMARK                         _______ _______ _______ _____ _____    ______ ____
ROOT
ATOM      1  C   UNL     1       5.202   4.876  19.208  0.00  0.00    +0.000 C 
ATOM      2  C   UNL     1       4.418   6.012  18.631  0.00  0.00    +0.000 A 
ATOM      3  C   UNL     1       4.665   6.726  17.467  0.00  0.00    +0.000 A 
ATOM      4  C   UNL     1       3.706   7.773  17.434  0.00  0.00    +0.000 A 
ATOM      5  C   UNL     1       2.847   7.654  18.526  0.00  0.00    +0.000 A 
ATOM      6  N   UNL     1       3.263   6.514  19.217  0.00  0.00    +0.000 N 
ENDROOT
BRANCH   3   7
ATOM      7  C   UNL     1       5.714   6.391  16.497  0.00  0.00    +0.000 C 
ATOM      8  O   UNL     1       6.737   7.063  16.441  0.00  0.00    +0.000 OA
ATOM      9  N   UNL     1       5.385   5.336  15.678  0.00  0.00    +0.000 N 
ATOM     10  C   UNL     1       6.194   4.984  14.634  0.00  0.00    +0.000 A 
ATOM     11  N   UNL     1       7.406   5.392  14.359  0.00  0.00    +0.000 NA
ATOM     12  C   UNL     1       7.826   4.841  13.169  0.00  0.00    +0.000 A 
ATOM     13  C   UNL     1       6.916   4.009  12.552  0.00  0.00    +0.000 A 
ATOM     14  S   UNL     1       5.505   3.880  13.526  0.00  0.00    +0.000 S 
ATOM     15  H   UNL     1       4.468   4.923  15.722  0.00  0.00    +0.000 HD
ENDBRANCH   3   7
BRANCH   5  16
ATOM     16  C   UNL     1       1.666   8.485  18.829  0.00  0.00    +0.000 A 
ATOM     17  C   UNL     1       1.282   8.695  20.164  0.00  0.00    +0.000 A 
ATOM     18  C   UNL     1       0.217   9.543  20.483  0.00  0.00    +0.000 A 
ATOM     19  C   UNL     1      -0.473  10.209  19.474  0.00  0.00    +0.000 A 
ATOM     20  C   UNL     1      -0.124   9.992  18.145  0.00  0.00    +0.000 A 
ATOM     21  C   UNL     1       0.914   9.110  17.824  0.00  0.00    +0.000 A 
ENDBRANCH   5  16
BRANCH   6  22
ATOM     22  C   UNL     1       2.616   5.891  20.371  0.00  0.00    +0.000 C 
BRANCH  22  23
ATOM     23  C   UNL     1       1.384   5.033  20.074  0.00  0.00    +0.000 C 
BRANCH  23  24
ATOM     24  C   UNL     1       1.528   4.192  18.804  0.00  0.00    +0.000 C 
BRANCH  24  25
ATOM     25  N   UNL     1       1.299   2.754  19.046  0.00  0.00    +0.000 NA
ATOM     26  C   UNL     1       1.856   2.352  20.361  0.00  0.00    +0.000 C 
ATOM     27  C   UNL     1       3.397   2.321  20.403  0.00  0.00    +0.000 C 
ATOM     28  O   UNL     1       3.943   1.492  19.368  0.00  0.00    +0.000 OA
ATOM     29  C   UNL     1       3.467   1.896  18.078  0.00  0.00    +0.000 C 
ATOM     30  C   UNL     1       1.933   1.872  18.032  0.00  0.00    +0.000 C 
ENDBRANCH  24  25
ENDBRANCH  23  24
ENDBRANCH  22  23
ENDBRANCH   6  22
TORSDOF 6
ENDMDL
MODEL 5
REMARK VINA RESULT:      -7.5      1.960      2.469
REMARK  Name = 
REMARK  7 active torsions:
REMARK  status: ('A' for Active; 'I' for Inactive)
REMARK    1  A    between atoms: C_1  and  C_2
REMARK    2  A    between atoms: C_3  and  C_4
REMARK    3  A    between atoms: C_13  and  C_14
REMARK    4  A    between atoms: N_20  and  C_21
REMARK    5  A    between atoms: C_21  and  C_22
REMARK    6  A    between atoms: C_22  and  C_23
REMARK    7  A    between atoms: C_23  and  N_24
REMARK                            x       y       z     vdW  Elec       q    Type
REMARK                         _______ _______ _______ _____ _____    ______ ____
ROOT
ATOM      1  C   UNL     1       3.973   7.863  16.781  0.00  0.00    +0.000 C 
ATOM      2  C   UNL     1       3.082   7.383  17.882  0.00  0.00    +0.000 A 
ATOM      3  C   UNL     1       2.182   8.117  18.643  0.00  0.00    +0.000 A 
ATOM      4  C   UNL     1       1.680   7.227  19.629  0.00  0.00    +0.000 A 
ATOM      5  C   UNL     1       2.215   5.955  19.427  0.00  0.00    +0.000 A 
ATOM      6  N   UNL     1       3.028   6.059  18.295  0.00  0.00    +0.000 N 
ENDROOT
BRANCH   3   7
ATOM      7  C   UNL     1       1.847   9.525  18.401  0.00  0.00    +0.000 C 
ATOM      8  O   UNL     1       2.527  10.195  17.632  0.00  0.00    +0.000 OA
ATOM      9  N   UNL     1       0.783   9.971  19.149  0.00  0.00    +0.000 N 
ATOM     10  C   UNL     1       0.429  11.291  19.142  0.00  0.00    +0.000 A 
ATOM     11  N   UNL     1       0.845  12.250  18.355  0.00  0.00    +0.000 NA
ATOM     12  C   UNL     1       0.287  13.448  18.744  0.00  0.00    +0.000 A 
ATOM     13  C   UNL     1      -0.558  13.379  19.831  0.00  0.00    +0.000 A 
ATOM     14  S   UNL     1      -0.690  11.746  20.352  0.00  0.00    +0.000 S 
ATOM     15  H   UNL     1       0.363   9.375  19.844  0.00  0.00    +0.000 HD
ENDBRANCH   3   7
BRANCH   5  16
ATOM     16  C   UNL     1       1.900   4.723  20.175  0.00  0.00    +0.000 A 
ATOM     17  C   UNL     1       0.995   3.792  19.638  0.00  0.00    +0.000 A 
ATOM     18  C   UNL     1       0.740   2.579  20.286  0.00  0.00    +0.000 A 
ATOM     19  C   UNL     1       1.397   2.269  21.474  0.00  0.00    +0.000 A 
ATOM     20  C   UNL     1       2.276   3.192  22.033  0.00  0.00    +0.000 A 
ATOM     21  C   UNL     1       2.498   4.422  21.407  0.00  0.00    +0.000 A 
ENDBRANCH   5  16
BRANCH   6  22
ATOM     22  C   UNL     1       3.723   4.976  17.601  0.00  0.00    +0.000 C 
BRANCH  22  23
ATOM     23  C   UNL     1       4.808   4.248  18.398  0.00  0.00    +0.000 C 
BRANCH  23  24
ATOM     24  C   UNL     1       5.775   5.199  19.107  0.00  0.00    +0.000 C 
BRANCH  24  25
ATOM     25  N   UNL     1       7.180   4.980  18.710  0.00  0.00    +0.000 NA
ATOM     26  C   UNL     1       7.965   6.230  18.861  0.00  0.00    +0.000 C 
ATOM     27  C   UNL     1       7.626   7.310  17.814  0.00  0.00    +0.000 C 
ATOM     28  O   UNL     1       7.752   6.813  16.474  0.00  0.00    +0.000 OA
ATOM     29  C   UNL     1       6.956   5.637  16.283  0.00  0.00    +0.000 C 
ATOM     30  C   UNL     1       7.339   4.550  17.297  0.00  0.00    +0.000 C 
ENDBRANCH  24  25
ENDBRANCH  23  24
ENDBRANCH  22  23
ENDBRANCH   6  22
TORSDOF 6
ENDMDL
MODEL 6
REMARK VINA RESULT:      -7.5      1.623      1.800
REMARK  Name = 
REMARK  7 active torsions:
REMARK  status: ('A' for Active; 'I' for Inactive)
REMARK    1  A    between atoms: C_1  and  C_2
REMARK    2  A    between atoms: C_3  and  C_4
REMARK    3  A    between atoms: C_13  and  C_14
REMARK    4  A    between atoms: N_20  and  C_21
REMARK    5  A    between atoms: C_21  and  C_22
REMARK    6  A    between atoms: C_22  and  C_23
REMARK    7  A    between atoms: C_23  and  N_24
REMARK                            x       y       z     vdW  Elec       q    Type
REMARK                         _______ _______ _______ _____ _____    ______ ____
ROOT
ATOM      1  C   UNL     1       2.716   8.979  17.751  0.00  0.00    +0.000 C 
ATOM      2  C   UNL     1       2.147   8.133  18.845  0.00  0.00    +0.000 A 
ATOM      3  C   UNL     1       1.417   8.536  19.955  0.00  0.00    +0.000 A 
ATOM      4  C   UNL     1       1.222   7.373  20.745  0.00  0.00    +0.000 A 
ATOM      5  C   UNL     1       1.765   6.267  20.090  0.00  0.00    +0.000 A 
ATOM      6  N   UNL     1       2.271   6.750  18.882  0.00  0.00    +0.000 N 
ENDROOT
BRANCH   3   7
ATOM      7  C   UNL     1       0.954   9.910  20.187  0.00  0.00    +0.000 C 
ATOM      8  O   UNL     1       1.438  10.838  19.551  0.00  0.00    +0.000 OA
ATOM      9  N   UNL     1       0.015  10.008  21.189  0.00  0.00    +0.000 N 
ATOM     10  C   UNL     1      -0.419  11.230  21.620  0.00  0.00    +0.000 A 
ATOM     11  N   UNL     1      -0.216  12.409  21.091  0.00  0.00    +0.000 NA
ATOM     12  C   UNL     1      -0.770  13.382  21.892  0.00  0.00    +0.000 A 
ATOM     13  C   UNL     1      -1.398  12.921  23.029  0.00  0.00    +0.000 A 
ATOM     14  S   UNL     1      -1.328  11.204  23.067  0.00  0.00    +0.000 S 
ATOM     15  H   UNL     1      -0.232   9.200  21.736  0.00  0.00    +0.000 HD
ENDBRANCH   3   7
BRANCH   5  16
ATOM     16  C   UNL     1       1.711   4.857  20.522  0.00  0.00    +0.000 A 
ATOM     17  C   UNL     1       0.827   3.966  19.892  0.00  0.00    +0.000 A 
ATOM     18  C   UNL     1       0.814   2.608  20.225  0.00  0.00    +0.000 A 
ATOM     19  C   UNL     1       1.695   2.114  21.183  0.00  0.00    +0.000 A 
ATOM     20  C   UNL     1       2.559   2.988  21.836  0.00  0.00    +0.000 A 
ATOM     21  C   UNL     1       2.542   4.353  21.533  0.00  0.00    +0.000 A 
ENDBRANCH   5  16
BRANCH   6  22
ATOM     22  C   UNL     1       2.839   5.970  17.783  0.00  0.00    +0.000 C 
BRANCH  22  23
ATOM     23  C   UNL     1       3.917   4.952  18.162  0.00  0.00    +0.000 C 
BRANCH  23  24
ATOM     24  C   UNL     1       5.096   5.575  18.913  0.00  0.00    +0.000 C 
BRANCH  24  25
ATOM     25  N   UNL     1       6.379   4.917  18.600  0.00  0.00    +0.000 NA
ATOM     26  C   UNL     1       7.515   5.833  18.871  0.00  0.00    +0.000 C 
ATOM     27  C   UNL     1       7.632   6.994  17.865  0.00  0.00    +0.000 C 
ATOM     28  O   UNL     1       7.698   6.524  16.511  0.00  0.00    +0.000 OA
ATOM     29  C   UNL     1       6.581   5.682  16.203  0.00  0.00    +0.000 C 
ATOM     30  C   UNL     1       6.504   4.500  17.180  0.00  0.00    +0.000 C 
ENDBRANCH  24  25
ENDBRANCH  23  24
ENDBRANCH  22  23
ENDBRANCH   6  22
TORSDOF 6
ENDMDL
MODEL 7
REMARK VINA RESULT:      -7.4      3.660      7.671
REMARK  Name = 
REMARK  7 active torsions:
REMARK  status: ('A' for Active; 'I' for Inactive)
REMARK    1  A    between atoms: C_1  and  C_2
REMARK    2  A    between atoms: C_3  and  C_4
REMARK    3  A    between atoms: C_13  and  C_14
REMARK    4  A    between atoms: N_20  and  C_21
REMARK    5  A    between atoms: C_21  and  C_22
REMARK    6  A    between atoms: C_22  and  C_23
REMARK    7  A    between atoms: C_23  and  N_24
REMARK                            x       y       z     vdW  Elec       q    Type
REMARK                         _______ _______ _______ _____ _____    ______ ____
ROOT
ATOM      1  C   UNL     1       4.873   5.128  19.414  0.00  0.00    +0.000 C 
ATOM      2  C   UNL     1       4.119   6.262  18.795  0.00  0.00    +0.000 A 
ATOM      3  C   UNL     1       4.400   6.942  17.618  0.00  0.00    +0.000 A 
ATOM      4  C   UNL     1       3.462   8.005  17.541  0.00  0.00    +0.000 A 
ATOM      5  C   UNL     1       2.580   7.929  18.619  0.00  0.00    +0.000 A 
ATOM      6  N   UNL     1       2.964   6.799  19.346  0.00  0.00    +0.000 N 
ENDROOT
BRANCH   3   7
ATOM      7  C   UNL     1       5.461   6.564  16.676  0.00  0.00    +0.000 C 
ATOM      8  O   UNL     1       6.475   7.246  16.586  0.00  0.00    +0.000 OA
ATOM      9  N   UNL     1       5.151   5.457  15.920  0.00  0.00    +0.000 N 
ATOM     10  C   UNL     1       5.973   5.055  14.904  0.00  0.00    +0.000 A 
ATOM     11  N   UNL     1       7.181   5.462  14.612  0.00  0.00    +0.000 NA
ATOM     12  C   UNL     1       7.616   4.847  13.460  0.00  0.00    +0.000 A 
ATOM     13  C   UNL     1       6.722   3.966  12.889  0.00  0.00    +0.000 A 
ATOM     14  S   UNL     1       5.306   3.877  13.860  0.00  0.00    +0.000 S 
ATOM     15  H   UNL     1       4.239   5.035  15.983  0.00  0.00    +0.000 HD
ENDBRANCH   3   7
BRANCH   5  16
ATOM     16  C   UNL     1       1.410   8.788  18.879  0.00  0.00    +0.000 A 
ATOM     17  C   UNL     1       0.670   9.306  17.803  0.00  0.00    +0.000 A 
ATOM     18  C   UNL     1      -0.491  10.055  18.021  0.00  0.00    +0.000 A 
ATOM     19  C   UNL     1      -0.941  10.286  19.318  0.00  0.00    +0.000 A 
ATOM     20  C   UNL     1      -0.206   9.803  20.396  0.00  0.00    +0.000 A 
ATOM     21  C   UNL     1       0.978   9.090  20.179  0.00  0.00    +0.000 A 
ENDBRANCH   5  16
BRANCH   6  22
ATOM     22  C   UNL     1       2.285   6.217  20.504  0.00  0.00    +0.000 C 
BRANCH  22  23
ATOM     23  C   UNL     1       1.260   5.121  20.206  0.00  0.00    +0.000 C 
BRANCH  23  24
ATOM     24  C   UNL     1       1.754   3.719  20.570  0.00  0.00    +0.000 C 
BRANCH  24  25
ATOM     25  N   UNL     1       1.208   2.676  19.680  0.00  0.00    +0.000 NA
ATOM     26  C   UNL     1       2.148   1.531  19.582  0.00  0.00    +0.000 C 
ATOM     27  C   UNL     1       3.423   1.839  18.773  0.00  0.00    +0.000 C 
ATOM     28  O   UNL     1       3.118   2.334  17.462  0.00  0.00    +0.000 OA
ATOM     29  C   UNL     1       2.258   3.478  17.529  0.00  0.00    +0.000 C 
ATOM     30  C   UNL     1       0.968   3.145  18.291  0.00  0.00    +0.000 C 
ENDBRANCH  24  25
ENDBRANCH  23  24
ENDBRANCH  22  23
ENDBRANCH   6  22
TORSDOF 6
ENDMDL
MODEL 8
REMARK VINA RESULT:      -7.4      2.411      4.602
REMARK  Name = 
REMARK  7 active torsions:
REMARK  status: ('A' for Active; 'I' for Inactive)
REMARK    1  A    between atoms: C_1  and  C_2
REMARK    2  A    between atoms: C_3  and  C_4
REMARK    3  A    between atoms: C_13  and  C_14
REMARK    4  A    between atoms: N_20  and  C_21
REMARK    5  A    between atoms: C_21  and  C_22
REMARK    6  A    between atoms: C_22  and  C_23
REMARK    7  A    between atoms: C_23  and  N_24
REMARK                            x       y       z     vdW  Elec       q    Type
REMARK                         _______ _______ _______ _____ _____    ______ ____
ROOT
ATOM      1  C   UNL     1       1.505   7.051  20.703  0.00  0.00    +0.000 C 
ATOM      2  C   UNL     1       2.294   7.355  19.470  0.00  0.00    +0.000 A 
ATOM      3  C   UNL     1       2.107   8.386  18.560  0.00  0.00    +0.000 A 
ATOM      4  C   UNL     1       3.035   8.161  17.509  0.00  0.00    +0.000 A 
ATOM      5  C   UNL     1       3.821   7.049  17.810  0.00  0.00    +0.000 A 
ATOM      6  N   UNL     1       3.391   6.606  19.063  0.00  0.00    +0.000 N 
ENDROOT
BRANCH   3   7
ATOM      7  C   UNL     1       1.137   9.475  18.730  0.00  0.00    +0.000 C 
ATOM      8  O   UNL     1       1.237  10.246  19.677  0.00  0.00    +0.000 OA
ATOM      9  N   UNL     1       0.138   9.469  17.783  0.00  0.00    +0.000 N 
ATOM     10  C   UNL     1      -0.917  10.333  17.878  0.00  0.00    +0.000 A 
ATOM     11  N   UNL     1      -1.070  11.361  18.672  0.00  0.00    +0.000 NA
ATOM     12  C   UNL     1      -2.319  11.911  18.488  0.00  0.00    +0.000 A 
ATOM     13  C   UNL     1      -3.103  11.288  17.541  0.00  0.00    +0.000 A 
ATOM     14  S   UNL     1      -2.222   9.996  16.828  0.00  0.00    +0.000 S 
ATOM     15  H   UNL     1       0.075   8.721  17.113  0.00  0.00    +0.000 HD
ENDBRANCH   3   7
BRANCH   5  16
ATOM     16  C   UNL     1       4.954   6.516  17.030  0.00  0.00    +0.000 A 
ATOM     17  C   UNL     1       6.272   6.772  17.447  0.00  0.00    +0.000 A 
ATOM     18  C   UNL     1       7.361   6.212  16.772  0.00  0.00    +0.000 A 
ATOM     19  C   UNL     1       7.153   5.374  15.679  0.00  0.00    +0.000 A 
ATOM     20  C   UNL     1       5.856   5.133  15.237  0.00  0.00    +0.000 A 
ATOM     21  C   UNL     1       4.769   5.728  15.885  0.00  0.00    +0.000 A 
ENDBRANCH   5  16
BRANCH   6  22
ATOM     22  C   UNL     1       3.975   5.539  19.876  0.00  0.00    +0.000 C 
BRANCH  22  23
ATOM     23  C   UNL     1       4.390   4.270  19.128  0.00  0.00    +0.000 C 
BRANCH  23  24
ATOM     24  C   UNL     1       3.713   3.006  19.664  0.00  0.00    +0.000 C 
BRANCH  24  25
ATOM     25  N   UNL     1       3.107   2.189  18.595  0.00  0.00    +0.000 NA
ATOM     26  C   UNL     1       2.830   3.021  17.397  0.00  0.00    +0.000 C 
ATOM     27  C   UNL     1       1.662   4.010  17.582  0.00  0.00    +0.000 C 
ATOM     28  O   UNL     1       0.462   3.348  18.004  0.00  0.00    +0.000 OA
ATOM     29  C   UNL     1       0.686   2.583  19.194  0.00  0.00    +0.000 C 
ATOM     30  C   UNL     1       1.816   1.565  18.982  0.00  0.00    +0.000 C 
ENDBRANCH  24  25
ENDBRANCH  23  24
ENDBRANCH  22  23
ENDBRANCH   6  22
TORSDOF 6
ENDMDL
MODEL 9
REMARK VINA RESULT:      -7.4      2.548      4.198
REMARK  Name = 
REMARK  7 active torsions:
REMARK  status: ('A' for Active; 'I' for Inactive)
REMARK    1  A    between atoms: C_1  and  C_2
REMARK    2  A    between atoms: C_3  and  C_4
REMARK    3  A    between atoms: C_13  and  C_14
REMARK    4  A    between atoms: N_20  and  C_21
REMARK    5  A    between atoms: C_21  and  C_22
REMARK    6  A    between atoms: C_22  and  C_23
REMARK    7  A    between atoms: C_23  and  N_24
REMARK                            x       y       z     vdW  Elec       q    Type
REMARK                         _______ _______ _______ _____ _____    ______ ____
ROOT
ATOM      1  C   UNL     1       0.450   7.995  21.023  0.00  0.00    +0.000 C 
ATOM      2  C   UNL     1       1.450   7.928  19.913  0.00  0.00    +0.000 A 
ATOM      3  C   UNL     1       1.619   8.808  18.852  0.00  0.00    +0.000 A 
ATOM      4  C   UNL     1       2.614   8.234  18.016  0.00  0.00    +0.000 A 
ATOM      5  C   UNL     1       3.091   7.059  18.597  0.00  0.00    +0.000 A 
ATOM      6  N   UNL     1       2.405   6.926  19.806  0.00  0.00    +0.000 N 
ENDROOT
BRANCH   3   7
ATOM      7  C   UNL     1       0.893  10.075  18.703  0.00  0.00    +0.000 C 
ATOM      8  O   UNL     1      -0.145  10.116  18.053  0.00  0.00    +0.000 OA
ATOM      9  N   UNL     1       1.527  11.142  19.297  0.00  0.00    +0.000 N 
ATOM     10  C   UNL     1       1.052  12.413  19.136  0.00  0.00    +0.000 A 
ATOM     11  N   UNL     1      -0.084  12.808  18.622  0.00  0.00    +0.000 NA
ATOM     12  C   UNL     1      -0.126  14.184  18.584  0.00  0.00    +0.000 A 
ATOM     13  C   UNL     1       0.991  14.822  19.080  0.00  0.00    +0.000 A 
ATOM     14  S   UNL     1       2.111  13.651  19.655  0.00  0.00    +0.000 S 
ATOM     15  H   UNL     1       2.440  11.028  19.707  0.00  0.00    +0.000 HD
ENDBRANCH   3   7
BRANCH   5  16
ATOM     16  C   UNL     1       4.179   6.195  18.102  0.00  0.00    +0.000 A 
ATOM     17  C   UNL     1       4.363   6.026  16.719  0.00  0.00    +0.000 A 
ATOM     18  C   UNL     1       5.436   5.279  16.221  0.00  0.00    +0.000 A 
ATOM     19  C   UNL     1       6.352   4.701  17.097  0.00  0.00    +0.000 A 
ATOM     20  C   UNL     1       6.169   4.837  18.469  0.00  0.00    +0.000 A 
ATOM     21  C   UNL     1       5.072   5.548  18.967  0.00  0.00    +0.000 A 
ENDBRANCH   5  16
BRANCH   6  22
ATOM     22  C   UNL     1       2.626   5.919  20.844  0.00  0.00    +0.000 C 
BRANCH  22  23
ATOM     23  C   UNL     1       1.769   4.655  20.754  0.00  0.00    +0.000 C 
BRANCH  23  24
ATOM     24  C   UNL     1       2.593   3.381  20.557  0.00  0.00    +0.000 C 
BRANCH  24  25
ATOM     25  N   UNL     1       1.893   2.372  19.739  0.00  0.00    +0.000 NA
ATOM     26  C   UNL     1       2.853   1.650  18.867  0.00  0.00    +0.000 C 
ATOM     27  C   UNL     1       3.405   2.504  17.707  0.00  0.00    +0.000 C 
ATOM     28  O   UNL     1       2.353   3.068  16.912  0.00  0.00    +0.000 OA
ATOM     29  C   UNL     1       1.442   3.821  17.722  0.00  0.00    +0.000 C 
ATOM     30  C   UNL     1       0.859   2.947  18.842  0.00  0.00    +0.000 C 
ENDBRANCH  24  25
ENDBRANCH  23  24
ENDBRANCH  22  23
ENDBRANCH   6  22
TORSDOF 6
ENDMDL
