MODEL 1
REMARK VINA RESULT:      -6.4      0.000      0.000
REMARK  Name = 
REMARK  0 active torsions:
REMARK  status: ('A' for Active; 'I' for Inactive)
REMARK                            x       y       z     vdW  Elec       q    Type
REMARK                         _______ _______ _______ _____ _____    ______ ____
ROOT
ATOM      1  C   UNL     1       0.757   2.798  19.424  0.00  0.00    +0.000 A 
ATOM      2  C   UNL     1       1.515   2.765  20.578  0.00  0.00    +0.000 A 
ATOM      3  N   UNL     1       2.830   3.070  20.626  0.00  0.00    +0.000 NA
ATOM      4  C   UNL     1       3.442   3.413  19.481  0.00  0.00    +0.000 A 
ATOM      5  C   UNL     1       4.804   3.693  19.517  0.00  0.00    +0.000 A 
ATOM      6  C   UNL     1       5.456   3.998  18.319  0.00  0.00    +0.000 A 
ATOM      7  N   UNL     1       6.766   4.266  18.015  0.00  0.00    +0.000 N 
ATOM      8  C   UNL     1       6.850   4.466  16.666  0.00  0.00    +0.000 A 
ATOM      9  N   UNL     1       5.675   4.370  16.087  0.00  0.00    +0.000 NA
ATOM     10  C   UNL     1       4.799   4.070  17.098  0.00  0.00    +0.000 A 
ATOM     11  C   UNL     1       3.420   3.825  17.054  0.00  0.00    +0.000 A 
ATOM     12  C   UNL     1       2.752   3.478  18.247  0.00  0.00    +0.000 A 
ATOM     13  C   UNL     1       1.387   3.168  18.242  0.00  0.00    +0.000 A 
ATOM     14  H   UNL     1       7.536   4.286  18.668  0.00  0.00    +0.000 HD
ENDROOT
TORSDOF 0
ENDMDL
MODEL 2
REMARK VINA RESULT:      -6.3      1.060      4.469
REMARK  Name = 
REMARK  0 active torsions:
REMARK  status: ('A' for Active; 'I' for Inactive)
REMARK                            x       y       z     vdW  Elec       q    Type
REMARK                         _______ _______ _______ _____ _____    ______ ____
ROOT
ATOM      1  C   UNL     1       6.858   4.759  16.474  0.00  0.00    +0.000 A 
ATOM      2  C   UNL     1       7.269   4.750  17.793  0.00  0.00    +0.000 A 
ATOM      3  N   UNL     1       6.478   4.389  18.827  0.00  0.00    +0.000 NA
ATOM      4  C   UNL     1       5.211   4.031  18.560  0.00  0.00    +0.000 A 
ATOM      5  C   UNL     1       4.381   3.694  19.623  0.00  0.00    +0.000 A 
ATOM      6  C   UNL     1       3.048   3.372  19.355  0.00  0.00    +0.000 A 
ATOM      7  N   UNL     1       1.988   3.051  20.163  0.00  0.00    +0.000 N 
ATOM      8  C   UNL     1       0.896   2.860  19.364  0.00  0.00    +0.000 A 
ATOM      9  N   UNL     1       1.191   3.009  18.093  0.00  0.00    +0.000 NA
ATOM     10  C   UNL     1       2.523   3.338  18.070  0.00  0.00    +0.000 A 
ATOM     11  C   UNL     1       3.358   3.641  16.987  0.00  0.00    +0.000 A 
ATOM     12  C   UNL     1       4.696   4.006  17.241  0.00  0.00    +0.000 A 
ATOM     13  C   UNL     1       5.553   4.372  16.196  0.00  0.00    +0.000 A 
ATOM     14  H   UNL     1       2.004   2.994  21.171  0.00  0.00    +0.000 HD
ENDROOT
TORSDOF 0
ENDMDL
MODEL 3
REMARK VINA RESULT:      -6.3      1.131      2.040
REMARK  Name = 
REMARK  0 active torsions:
REMARK  status: ('A' for Active; 'I' for Inactive)
REMARK                            x       y       z     vdW  Elec       q    Type
REMARK                         _______ _______ _______ _____ _____    ______ ____
ROOT
ATOM      1  C   UNL     1       1.069   3.454  20.029  0.00  0.00    +0.000 A 
ATOM      2  C   UNL     1       0.823   3.010  18.744  0.00  0.00    +0.000 A 
ATOM      3  N   UNL     1       1.756   2.974  17.767  0.00  0.00    +0.000 NA
ATOM      4  C   UNL     1       2.993   3.408  18.058  0.00  0.00    +0.000 A 
ATOM      5  C   UNL     1       3.949   3.408  17.047  0.00  0.00    +0.000 A 
ATOM      6  C   UNL     1       5.222   3.908  17.331  0.00  0.00    +0.000 A 
ATOM      7  N   UNL     1       6.344   4.087  16.562  0.00  0.00    +0.000 N 
ATOM      8  C   UNL     1       7.306   4.650  17.351  0.00  0.00    +0.000 A 
ATOM      9  N   UNL     1       6.886   4.819  18.584  0.00  0.00    +0.000 NA
ATOM     10  C   UNL     1       5.589   4.372  18.586  0.00  0.00    +0.000 A 
ATOM     11  C   UNL     1       4.647   4.345  19.622  0.00  0.00    +0.000 A 
ATOM     12  C   UNL     1       3.345   3.879  19.345  0.00  0.00    +0.000 A 
ATOM     13  C   UNL     1       2.353   3.887  20.333  0.00  0.00    +0.000 A 
ATOM     14  H   UNL     1       6.433   3.868  15.580  0.00  0.00    +0.000 HD
ENDROOT
TORSDOF 0
ENDMDL
MODEL 4
REMARK VINA RESULT:      -6.2      1.822      4.507
REMARK  Name = 
REMARK  0 active torsions:
REMARK  status: ('A' for Active; 'I' for Inactive)
REMARK                            x       y       z     vdW  Elec       q    Type
REMARK                         _______ _______ _______ _____ _____    ______ ____
ROOT
ATOM      1  C   UNL     1       7.381   6.694  17.825  0.00  0.00    +0.000 A 
ATOM      2  C   UNL     1       7.655   6.042  19.012  0.00  0.00    +0.000 A 
ATOM      3  N   UNL     1       6.846   5.112  19.566  0.00  0.00    +0.000 NA
ATOM      4  C   UNL     1       5.701   4.811  18.932  0.00  0.00    +0.000 A 
ATOM      5  C   UNL     1       4.847   3.881  19.515  0.00  0.00    +0.000 A 
ATOM      6  C   UNL     1       3.630   3.604  18.886  0.00  0.00    +0.000 A 
ATOM      7  N   UNL     1       2.573   2.796  19.220  0.00  0.00    +0.000 N 
ATOM      8  C   UNL     1       1.620   2.933  18.251  0.00  0.00    +0.000 A 
ATOM      9  N   UNL     1       2.006   3.755  17.302  0.00  0.00    +0.000 NA
ATOM     10  C   UNL     1       3.249   4.189  17.686  0.00  0.00    +0.000 A 
ATOM     11  C   UNL     1       4.116   5.101  17.071  0.00  0.00    +0.000 A 
ATOM     12  C   UNL     1       5.332   5.422  17.709  0.00  0.00    +0.000 A 
ATOM     13  C   UNL     1       6.204   6.370  17.161  0.00  0.00    +0.000 A 
ATOM     14  H   UNL     1       2.501   2.224  20.048  0.00  0.00    +0.000 HD
ENDROOT
TORSDOF 0
ENDMDL
MODEL 5
REMARK VINA RESULT:      -6.1      1.597      2.004
REMARK  Name = 
REMARK  0 active torsions:
REMARK  status: ('A' for Active; 'I' for Inactive)
REMARK                            x       y       z     vdW  Elec       q    Type
REMARK                         _______ _______ _______ _____ _____    ______ ____
ROOT
ATOM      1  C   UNL     1       1.152   3.755  20.667  0.00  0.00    +0.000 A 
ATOM      2  C   UNL     1       1.471   2.522  20.132  0.00  0.00    +0.000 A 
ATOM      3  N   UNL     1       2.341   2.343  19.114  0.00  0.00    +0.000 NA
ATOM      4  C   UNL     1       2.922   3.429  18.580  0.00  0.00    +0.000 A 
ATOM      5  C   UNL     1       3.791   3.255  17.508  0.00  0.00    +0.000 A 
ATOM      6  C   UNL     1       4.356   4.387  16.915  0.00  0.00    +0.000 A 
ATOM      7  N   UNL     1       5.190   4.555  15.840  0.00  0.00    +0.000 N 
ATOM      8  C   UNL     1       5.403   5.896  15.681  0.00  0.00    +0.000 A 
ATOM      9  N   UNL     1       4.783   6.598  16.601  0.00  0.00    +0.000 NA
ATOM     10  C   UNL     1       4.118   5.677  17.370  0.00  0.00    +0.000 A 
ATOM     11  C   UNL     1       3.273   5.863  18.471  0.00  0.00    +0.000 A 
ATOM     12  C   UNL     1       2.663   4.736  19.059  0.00  0.00    +0.000 A 
ATOM     13  C   UNL     1       1.766   4.877  20.125  0.00  0.00    +0.000 A 
ATOM     14  H   UNL     1       5.559   3.821  15.253  0.00  0.00    +0.000 HD
ENDROOT
TORSDOF 0
ENDMDL
MODEL 6
REMARK VINA RESULT:      -6.1      1.867      4.664
REMARK  Name = 
REMARK  0 active torsions:
REMARK  status: ('A' for Active; 'I' for Inactive)
REMARK                            x       y       z     vdW  Elec       q    Type
REMARK                         _______ _______ _______ _____ _____    ______ ____
ROOT
ATOM      1  C   UNL     1       5.427   4.978  15.545  0.00  0.00    +0.000 A 
ATOM      2  C   UNL     1       5.142   6.285  15.889  0.00  0.00    +0.000 A 
ATOM      3  N   UNL     1       4.526   6.646  17.037  0.00  0.00    +0.000 NA
ATOM      4  C   UNL     1       4.157   5.675  17.889  0.00  0.00    +0.000 A 
ATOM      5  C   UNL     1       3.490   6.037  19.055  0.00  0.00    +0.000 A 
ATOM      6  C   UNL     1       3.058   5.027  19.918  0.00  0.00    +0.000 A 
ATOM      7  N   UNL     1       2.350   5.048  21.092  0.00  0.00    +0.000 N 
ATOM      8  C   UNL     1       2.176   3.755  21.499  0.00  0.00    +0.000 A 
ATOM      9  N   UNL     1       2.751   2.906  20.677  0.00  0.00    +0.000 NA
ATOM     10  C   UNL     1       3.295   3.680  19.684  0.00  0.00    +0.000 A 
ATOM     11  C   UNL     1       3.996   3.304  18.531  0.00  0.00    +0.000 A 
ATOM     12  C   UNL     1       4.407   4.307  17.628  0.00  0.00    +0.000 A 
ATOM     13  C   UNL     1       5.060   3.976  16.435  0.00  0.00    +0.000 A 
ATOM     14  H   UNL     1       1.995   5.870  21.559  0.00  0.00    +0.000 HD
ENDROOT
TORSDOF 0
ENDMDL
MODEL 7
REMARK VINA RESULT:      -6.1      1.773      2.137
REMARK  Name = 
REMARK  0 active torsions:
REMARK  status: ('A' for Active; 'I' for Inactive)
REMARK                            x       y       z     vdW  Elec       q    Type
REMARK                         _______ _______ _______ _____ _____    ______ ____
ROOT
ATOM      1  C   UNL     1       2.466   2.523  17.873  0.00  0.00    +0.000 A 
ATOM      2  C   UNL     1       3.166   2.183  19.015  0.00  0.00    +0.000 A 
ATOM      3  N   UNL     1       4.259   2.845  19.455  0.00  0.00    +0.000 NA
ATOM      4  C   UNL     1       4.701   3.887  18.732  0.00  0.00    +0.000 A 
ATOM      5  C   UNL     1       5.847   4.550  19.160  0.00  0.00    +0.000 A 
ATOM      6  C   UNL     1       6.340   5.601  18.383  0.00  0.00    +0.000 A 
ATOM      7  N   UNL     1       7.446   6.404  18.499  0.00  0.00    +0.000 N 
ATOM      8  C   UNL     1       7.459   7.254  17.430  0.00  0.00    +0.000 A 
ATOM      9  N   UNL     1       6.419   7.070  16.649  0.00  0.00    +0.000 NA
ATOM     10  C   UNL     1       5.719   6.038  17.221  0.00  0.00    +0.000 A 
ATOM     11  C   UNL     1       4.545   5.402  16.799  0.00  0.00    +0.000 A 
ATOM     12  C   UNL     1       4.052   4.315  17.549  0.00  0.00    +0.000 A 
ATOM     13  C   UNL     1       2.914   3.612  17.135  0.00  0.00    +0.000 A 
ATOM     14  H   UNL     1       8.141   6.356  19.229  0.00  0.00    +0.000 HD
ENDROOT
TORSDOF 0
ENDMDL
MODEL 8
REMARK VINA RESULT:      -6.0      2.191      2.779
REMARK  Name = 
REMARK  0 active torsions:
REMARK  status: ('A' for Active; 'I' for Inactive)
REMARK                            x       y       z     vdW  Elec       q    Type
REMARK                         _______ _______ _______ _____ _____    ______ ____
ROOT
ATOM      1  C   UNL     1       2.391   6.790  19.343  0.00  0.00    +0.000 A 
ATOM      2  C   UNL     1       2.377   5.468  19.745  0.00  0.00    +0.000 A 
ATOM      3  N   UNL     1       3.102   4.493  19.155  0.00  0.00    +0.000 NA
ATOM      4  C   UNL     1       3.874   4.824  18.107  0.00  0.00    +0.000 A 
ATOM      5  C   UNL     1       4.596   3.818  17.472  0.00  0.00    +0.000 A 
ATOM      6  C   UNL     1       5.359   4.150  16.350  0.00  0.00    +0.000 A 
ATOM      7  N   UNL     1       6.125   3.402  15.493  0.00  0.00    +0.000 N 
ATOM      8  C   UNL     1       6.627   4.242  14.539  0.00  0.00    +0.000 A 
ATOM      9  N   UNL     1       6.256   5.486  14.744  0.00  0.00    +0.000 NA
ATOM     10  C   UNL     1       5.459   5.444  15.859  0.00  0.00    +0.000 A 
ATOM     11  C   UNL     1       4.765   6.472  16.510  0.00  0.00    +0.000 A 
ATOM     12  C   UNL     1       3.960   6.151  17.622  0.00  0.00    +0.000 A 
ATOM     13  C   UNL     1       3.203   7.136  18.270  0.00  0.00    +0.000 A 
ATOM     14  H   UNL     1       6.270   2.404  15.541  0.00  0.00    +0.000 HD
ENDROOT
TORSDOF 0
ENDMDL
MODEL 9
REMARK VINA RESULT:      -6.0      1.840      4.746
REMARK  Name = 
REMARK  0 active torsions:
REMARK  status: ('A' for Active; 'I' for Inactive)
REMARK                            x       y       z     vdW  Elec       q    Type
REMARK                         _______ _______ _______ _____ _____    ______ ____
ROOT
ATOM      1  C   UNL     1       5.563   5.394  15.581  0.00  0.00    +0.000 A 
ATOM      2  C   UNL     1       5.170   6.582  16.167  0.00  0.00    +0.000 A 
ATOM      3  N   UNL     1       4.274   6.666  17.175  0.00  0.00    +0.000 NA
ATOM      4  C   UNL     1       3.722   5.528  17.627  0.00  0.00    +0.000 A 
ATOM      5  C   UNL     1       2.772   5.611  18.639  0.00  0.00    +0.000 A 
ATOM      6  C   UNL     1       2.156   4.435  19.076  0.00  0.00    +0.000 A 
ATOM      7  N   UNL     1       1.171   4.188  19.998  0.00  0.00    +0.000 N 
ATOM      8  C   UNL     1       0.929   2.843  20.000  0.00  0.00    +0.000 A 
ATOM      9  N   UNL     1       1.713   2.207  19.160  0.00  0.00    +0.000 NA
ATOM     10  C   UNL     1       2.475   3.182  18.570  0.00  0.00    +0.000 A 
ATOM     11  C   UNL     1       3.455   3.082  17.575  0.00  0.00    +0.000 A 
ATOM     12  C   UNL     1       4.061   4.261  17.094  0.00  0.00    +0.000 A 
ATOM     13  C   UNL     1       5.004   4.216  16.061  0.00  0.00    +0.000 A 
ATOM     14  H   UNL     1       0.691   4.879  20.555  0.00  0.00    +0.000 HD
ENDROOT
TORSDOF 0
ENDMDL
