MODEL 1
REMARK VINA RESULT:      -8.9      0.000      0.000
REMARK  Name = 
REMARK  7 active torsions:
REMARK  status: ('A' for Active; 'I' for Inactive)
REMARK    1  A    between atoms: C_2  and  C_11
REMARK    2  A    between atoms: N_3  and  C_4
REMARK    3  A    between atoms: C_4  and  C_5
REMARK    4  A    between atoms: N_15  and  C_16
REMARK    5  A    between atoms: C_16  and  C_17
REMARK    6  A    between atoms: N_20  and  C_21
REMARK    7  A    between atoms: C_27  and  N_28
REMARK                            x       y       z     vdW  Elec       q    Type
REMARK                         _______ _______ _______ _____ _____    ______ ____
ROOT
ATOM      1  C   UNL     1       4.750   4.167  19.178  0.00  0.00    +0.000 C 
ATOM      2  C   UNL     1       3.967   3.316  18.171  0.00  0.00    +0.000 C 
ATOM      3  C   UNL     1       3.072   4.164  17.284  0.00  0.00    +0.000 C 
ATOM      4  C   UNL     1       2.130   5.012  18.129  0.00  0.00    +0.000 C 
ATOM      5  N   UNL     1       2.890   5.955  18.950  0.00  0.00    +0.000 NA
ATOM      6  C   UNL     1       3.893   5.284  19.809  0.00  0.00    +0.000 C 
ENDROOT
BRANCH   1   8
ATOM      7  O   UNL     1       6.990   5.141  19.269  0.00  0.00    +0.000 OA
ATOM      8  C   UNL     1       6.099   4.620  18.610  0.00  0.00    +0.000 C 
ATOM      9  N   UNL     1       6.218   4.349  17.261  0.00  0.00    +0.000 N 
ATOM     10  H   UNL     1       5.547   3.738  16.816  0.00  0.00    +0.000 HD
BRANCH   9  11
ATOM     11  C   UNL     1       7.404   4.651  16.487  0.00  0.00    +0.000 C 
BRANCH  11  12
ATOM     12  C   UNL     1       7.164   4.570  14.999  0.00  0.00    +0.000 A 
ATOM     13  C   UNL     1       6.166   3.735  14.499  0.00  0.00    +0.000 A 
ATOM     14  C   UNL     1       5.983   3.653  13.121  0.00  0.00    +0.000 A 
ATOM     15  C   UNL     1       6.787   4.410  12.279  0.00  0.00    +0.000 A 
ATOM     16  C   UNL     1       7.742   5.232  12.855  0.00  0.00    +0.000 A 
ATOM     17  N   UNL     1       7.944   5.335  14.189  0.00  0.00    +0.000 NA
ENDBRANCH  11  12
ENDBRANCH   9  11
ENDBRANCH   1   8
BRANCH   5  18
ATOM     18  C   UNL     1       2.023   6.798  19.794  0.00  0.00    +0.000 C 
BRANCH  18  19
ATOM     19  C   UNL     1       1.832   8.179  19.252  0.00  0.00    +0.000 A 
ATOM     20  C   UNL     1       1.989   8.545  17.892  0.00  0.00    +0.000 A 
ATOM     21  N   UNL     1       1.582   9.785  17.624  0.00  0.00    +0.000 NA
ATOM     22  N   UNL     1       1.273  10.306  18.841  0.00  0.00    +0.000 N 
ATOM     23  C   UNL     1       1.279   9.319  19.817  0.00  0.00    +0.000 A 
BRANCH  22  24
ATOM     24  C   UNL     1       1.070  11.712  18.967  0.00  0.00    +0.000 A 
ATOM     25  C   UNL     1       2.037  12.493  19.613  0.00  0.00    +0.000 A 
ATOM     26  C   UNL     1       1.898  13.884  19.647  0.00  0.00    +0.000 A 
ATOM     27  C   UNL     1       0.783  14.493  19.072  0.00  0.00    +0.000 A 
ATOM     28  C   UNL     1      -0.212  13.714  18.484  0.00  0.00    +0.000 A 
ATOM     29  C   UNL     1      -0.076  12.325  18.441  0.00  0.00    +0.000 A 
ENDBRANCH  22  24
BRANCH  23  30
ATOM     30  N   UNL     1       0.704   9.463  21.079  0.00  0.00    +0.000 N 
ATOM     31  C   UNL     1       1.240   9.083  22.291  0.00  0.00    +0.000 A 
ATOM     32  C   UNL     1       0.394   9.464  23.309  0.00  0.00    +0.000 A 
ATOM     33  C   UNL     1      -0.741  10.044  22.712  0.00  0.00    +0.000 A 
ATOM     34  C   UNL     1      -0.544  10.003  21.352  0.00  0.00    +0.000 A 
ENDBRANCH  23  30
ENDBRANCH  18  19
ENDBRANCH   5  18
TORSDOF 7
ENDMDL
MODEL 2
REMARK VINA RESULT:      -8.7      0.769      1.196
REMARK  Name = 
REMARK  7 active torsions:
REMARK  status: ('A' for Active; 'I' for Inactive)
REMARK    1  A    between atoms: C_2  and  C_11
REMARK    2  A    between atoms: N_3  and  C_4
REMARK    3  A    between atoms: C_4  and  C_5
REMARK    4  A    between atoms: N_15  and  C_16
REMARK    5  A    between atoms: C_16  and  C_17
REMARK    6  A    between atoms: N_20  and  C_21
REMARK    7  A    between atoms: C_27  and  N_28
REMARK                            x       y       z     vdW  Elec       q    Type
REMARK                         _______ _______ _______ _____ _____    ______ ____
ROOT
ATOM      1  C   UNL     1       5.030   4.157  18.884  0.00  0.00    +0.000 C 
ATOM      2  C   UNL     1       4.112   3.157  18.172  0.00  0.00    +0.000 C 
ATOM      3  C   UNL     1       2.995   3.852  17.411  0.00  0.00    +0.000 C 
ATOM      4  C   UNL     1       2.197   4.756  18.342  0.00  0.00    +0.000 C 
ATOM      5  N   UNL     1       3.046   5.823  18.870  0.00  0.00    +0.000 NA
ATOM      6  C   UNL     1       4.251   5.306  19.559  0.00  0.00    +0.000 C 
ENDROOT
BRANCH   1   8
ATOM      7  O   UNL     1       7.375   4.360  18.223  0.00  0.00    +0.000 OA
ATOM      8  C   UNL     1       6.195   4.596  17.992  0.00  0.00    +0.000 C 
ATOM      9  N   UNL     1       5.768   5.271  16.864  0.00  0.00    +0.000 N 
ATOM     10  H   UNL     1       4.787   5.256  16.620  0.00  0.00    +0.000 HD
BRANCH   9  11
ATOM     11  C   UNL     1       6.665   5.768  15.843  0.00  0.00    +0.000 C 
BRANCH  11  12
ATOM     12  C   UNL     1       6.570   4.987  14.554  0.00  0.00    +0.000 A 
ATOM     13  C   UNL     1       7.559   5.123  13.582  0.00  0.00    +0.000 A 
ATOM     14  C   UNL     1       7.434   4.416  12.389  0.00  0.00    +0.000 A 
ATOM     15  C   UNL     1       6.337   3.586  12.199  0.00  0.00    +0.000 A 
ATOM     16  C   UNL     1       5.408   3.488  13.222  0.00  0.00    +0.000 A 
ATOM     17  N   UNL     1       5.501   4.160  14.393  0.00  0.00    +0.000 NA
ENDBRANCH  11  12
ENDBRANCH   9  11
ENDBRANCH   1   8
BRANCH   5  18
ATOM     18  C   UNL     1       2.321   6.725  19.784  0.00  0.00    +0.000 C 
BRANCH  18  19
ATOM     19  C   UNL     1       2.050   8.072  19.194  0.00  0.00    +0.000 A 
ATOM     20  C   UNL     1       2.221   8.409  17.828  0.00  0.00    +0.000 A 
ATOM     21  N   UNL     1       1.737   9.609  17.510  0.00  0.00    +0.000 NA
ATOM     22  N   UNL     1       1.357  10.142  18.702  0.00  0.00    +0.000 N 
ATOM     23  C   UNL     1       1.403   9.187  19.707  0.00  0.00    +0.000 A 
BRANCH  22  24
ATOM     24  C   UNL     1       1.053  11.534  18.778  0.00  0.00    +0.000 A 
ATOM     25  C   UNL     1       2.046  12.435  19.185  0.00  0.00    +0.000 A 
ATOM     26  C   UNL     1       1.789  13.808  19.161  0.00  0.00    +0.000 A 
ATOM     27  C   UNL     1       0.538  14.283  18.767  0.00  0.00    +0.000 A 
ATOM     28  C   UNL     1      -0.471  13.386  18.422  0.00  0.00    +0.000 A 
ATOM     29  C   UNL     1      -0.219  12.013  18.437  0.00  0.00    +0.000 A 
ENDBRANCH  22  24
BRANCH  23  30
ATOM     30  N   UNL     1       0.782   9.326  20.949  0.00  0.00    +0.000 N 
ATOM     31  C   UNL     1      -0.542   9.615  21.195  0.00  0.00    +0.000 A 
ATOM     32  C   UNL     1      -0.775   9.594  22.553  0.00  0.00    +0.000 A 
ATOM     33  C   UNL     1       0.459   9.347  23.182  0.00  0.00    +0.000 A 
ATOM     34  C   UNL     1       1.399   9.219  22.186  0.00  0.00    +0.000 A 
ENDBRANCH  23  30
ENDBRANCH  18  19
ENDBRANCH   5  18
TORSDOF 7
ENDMDL
MODEL 3
REMARK VINA RESULT:      -8.3      0.729      1.103
REMARK  Name = 
REMARK  7 active torsions:
REMARK  status: ('A' for Active; 'I' for Inactive)
REMARK    1  A    between atoms: C_2  and  C_11
REMARK    2  A    between atoms: N_3  and  C_4
REMARK    3  A    between atoms: C_4  and  C_5
REMARK    4  A    between atoms: N_15  and  C_16
REMARK    5  A    between atoms: C_16  and  C_17
REMARK    6  A    between atoms: N_20  and  C_21
REMARK    7  A    between atoms: C_27  and  N_28
REMARK                            x       y       z     vdW  Elec       q    Type
REMARK                         _______ _______ _______ _____ _____    ______ ____
ROOT
ATOM      1  C   UNL     1       4.847   4.278  18.730  0.00  0.00    +0.000 C 
ATOM      2  C   UNL     1       3.880   3.242  18.146  0.00  0.00    +0.000 C 
ATOM      3  C   UNL     1       2.686   3.896  17.471  0.00  0.00    +0.000 C 
ATOM      4  C   UNL     1       1.968   4.826  18.440  0.00  0.00    +0.000 C 
ATOM      5  N   UNL     1       2.848   5.921  18.843  0.00  0.00    +0.000 NA
ATOM      6  C   UNL     1       4.121   5.444  19.433  0.00  0.00    +0.000 C 
ENDROOT
BRANCH   1   8
ATOM      7  O   UNL     1       7.012   4.158  17.598  0.00  0.00    +0.000 OA
ATOM      8  C   UNL     1       5.916   4.694  17.714  0.00  0.00    +0.000 C 
ATOM      9  N   UNL     1       5.497   5.735  16.907  0.00  0.00    +0.000 N 
ATOM     10  H   UNL     1       4.521   5.999  16.905  0.00  0.00    +0.000 HD
BRANCH   9  11
ATOM     11  C   UNL     1       6.305   6.300  15.847  0.00  0.00    +0.000 C 
BRANCH  11  12
ATOM     12  C   UNL     1       6.415   5.386  14.651  0.00  0.00    +0.000 A 
ATOM     13  C   UNL     1       5.410   4.457  14.388  0.00  0.00    +0.000 A 
ATOM     14  C   UNL     1       5.547   3.604  13.297  0.00  0.00    +0.000 A 
ATOM     15  C   UNL     1       6.674   3.702  12.491  0.00  0.00    +0.000 A 
ATOM     16  C   UNL     1       7.618   4.666  12.806  0.00  0.00    +0.000 A 
ATOM     17  N   UNL     1       7.514   5.511  13.857  0.00  0.00    +0.000 NA
ENDBRANCH  11  12
ENDBRANCH   9  11
ENDBRANCH   1   8
BRANCH   5  18
ATOM     18  C   UNL     1       2.201   6.851  19.789  0.00  0.00    +0.000 C 
BRANCH  18  19
ATOM     19  C   UNL     1       1.981   8.216  19.220  0.00  0.00    +0.000 A 
ATOM     20  C   UNL     1       2.195   8.574  17.865  0.00  0.00    +0.000 A 
ATOM     21  N   UNL     1       1.751   9.792  17.559  0.00  0.00    +0.000 NA
ATOM     22  N   UNL     1       1.357  10.313  18.752  0.00  0.00    +0.000 N 
ATOM     23  C   UNL     1       1.352   9.338  19.739  0.00  0.00    +0.000 A 
BRANCH  22  24
ATOM     24  C   UNL     1       1.088  11.711  18.848  0.00  0.00    +0.000 A 
ATOM     25  C   UNL     1      -0.202  12.184  18.573  0.00  0.00    +0.000 A 
ATOM     26  C   UNL     1      -0.502  13.536  18.768  0.00  0.00    +0.000 A 
ATOM     27  C   UNL     1       0.486  14.420  19.201  0.00  0.00    +0.000 A 
ATOM     28  C   UNL     1       1.786  13.962  19.415  0.00  0.00    +0.000 A 
ATOM     29  C   UNL     1       2.090  12.613  19.228  0.00  0.00    +0.000 A 
ENDBRANCH  22  24
BRANCH  23  30
ATOM     30  N   UNL     1       0.705   9.470  20.968  0.00  0.00    +0.000 N 
ATOM     31  C   UNL     1       1.269   9.396  22.223  0.00  0.00    +0.000 A 
ATOM     32  C   UNL     1       0.309   9.653  23.176  0.00  0.00    +0.000 A 
ATOM     33  C   UNL     1      -0.912   9.831  22.500  0.00  0.00    +0.000 A 
ATOM     34  C   UNL     1      -0.652   9.683  21.158  0.00  0.00    +0.000 A 
ENDBRANCH  23  30
ENDBRANCH  18  19
ENDBRANCH   5  18
TORSDOF 7
ENDMDL
MODEL 4
REMARK VINA RESULT:      -8.2      1.432      1.700
REMARK  Name = 
REMARK  7 active torsions:
REMARK  status: ('A' for Active; 'I' for Inactive)
REMARK    1  A    between atoms: C_2  and  C_11
REMARK    2  A    between atoms: N_3  and  C_4
REMARK    3  A    between atoms: C_4  and  C_5
REMARK    4  A    between atoms: N_15  and  C_16
REMARK    5  A    between atoms: C_16  and  C_17
REMARK    6  A    between atoms: N_20  and  C_21
REMARK    7  A    between atoms: C_27  and  N_28
REMARK                            x       y       z     vdW  Elec       q    Type
REMARK                         _______ _______ _______ _____ _____    ______ ____
ROOT
ATOM      1  C   UNL     1       4.967   4.650  17.468  0.00  0.00    +0.000 C 
ATOM      2  C   UNL     1       4.106   3.388  17.345  0.00  0.00    +0.000 C 
ATOM      3  C   UNL     1       2.629   3.719  17.211  0.00  0.00    +0.000 C 
ATOM      4  C   UNL     1       2.167   4.582  18.378  0.00  0.00    +0.000 C 
ATOM      5  N   UNL     1       2.866   5.866  18.372  0.00  0.00    +0.000 NA
ATOM      6  C   UNL     1       4.340   5.714  18.393  0.00  0.00    +0.000 C 
ENDROOT
BRANCH   1   8
ATOM      7  O   UNL     1       5.115   6.252  15.627  0.00  0.00    +0.000 OA
ATOM      8  C   UNL     1       5.422   5.164  16.098  0.00  0.00    +0.000 C 
ATOM      9  N   UNL     1       6.254   4.270  15.452  0.00  0.00    +0.000 N 
ATOM     10  H   UNL     1       6.638   3.489  15.966  0.00  0.00    +0.000 HD
BRANCH   9  11
ATOM     11  C   UNL     1       6.845   4.523  14.155  0.00  0.00    +0.000 C 
BRANCH  11  12
ATOM     12  C   UNL     1       6.175   3.743  13.048  0.00  0.00    +0.000 A 
ATOM     13  C   UNL     1       4.839   3.984  12.737  0.00  0.00    +0.000 A 
ATOM     14  C   UNL     1       4.233   3.232  11.734  0.00  0.00    +0.000 A 
ATOM     15  C   UNL     1       4.974   2.269  11.061  0.00  0.00    +0.000 A 
ATOM     16  C   UNL     1       6.304   2.106  11.414  0.00  0.00    +0.000 A 
ATOM     17  N   UNL     1       6.922   2.821  12.383  0.00  0.00    +0.000 NA
ENDBRANCH  11  12
ENDBRANCH   9  11
ENDBRANCH   1   8
BRANCH   5  18
ATOM     18  C   UNL     1       2.458   6.740  19.488  0.00  0.00    +0.000 C 
BRANCH  18  19
ATOM     19  C   UNL     1       2.090   8.122  19.053  0.00  0.00    +0.000 A 
ATOM     20  C   UNL     1       2.171   8.603  17.722  0.00  0.00    +0.000 A 
ATOM     21  N   UNL     1       1.612   9.800  17.553  0.00  0.00    +0.000 NA
ATOM     22  N   UNL     1       1.270  10.190  18.809  0.00  0.00    +0.000 N 
ATOM     23  C   UNL     1       1.416   9.143  19.709  0.00  0.00    +0.000 A 
BRANCH  22  24
ATOM     24  C   UNL     1       0.901  11.548  19.043  0.00  0.00    +0.000 A 
ATOM     25  C   UNL     1       1.817  12.414  19.656  0.00  0.00    +0.000 A 
ATOM     26  C   UNL     1       1.505  13.770  19.791  0.00  0.00    +0.000 A 
ATOM     27  C   UNL     1       0.274  14.257  19.352  0.00  0.00    +0.000 A 
ATOM     28  C   UNL     1      -0.662  13.385  18.799  0.00  0.00    +0.000 A 
ATOM     29  C   UNL     1      -0.355  12.031  18.654  0.00  0.00    +0.000 A 
ENDBRANCH  22  24
BRANCH  23  30
ATOM     30  N   UNL     1       0.857   9.123  20.986  0.00  0.00    +0.000 N 
ATOM     31  C   UNL     1       1.508   9.300  22.188  0.00  0.00    +0.000 A 
ATOM     32  C   UNL     1       0.591   9.283  23.216  0.00  0.00    +0.000 A 
ATOM     33  C   UNL     1      -0.669   9.023  22.646  0.00  0.00    +0.000 A 
ATOM     34  C   UNL     1      -0.477   8.897  21.290  0.00  0.00    +0.000 A 
ENDBRANCH  23  30
ENDBRANCH  18  19
ENDBRANCH   5  18
TORSDOF 7
ENDMDL
MODEL 5
REMARK VINA RESULT:      -8.0      0.995      1.245
REMARK  Name = 
REMARK  7 active torsions:
REMARK  status: ('A' for Active; 'I' for Inactive)
REMARK    1  A    between atoms: C_2  and  C_11
REMARK    2  A    between atoms: N_3  and  C_4
REMARK    3  A    between atoms: C_4  and  C_5
REMARK    4  A    between atoms: N_15  and  C_16
REMARK    5  A    between atoms: C_16  and  C_17
REMARK    6  A    between atoms: N_20  and  C_21
REMARK    7  A    between atoms: C_27  and  N_28
REMARK                            x       y       z     vdW  Elec       q    Type
REMARK                         _______ _______ _______ _____ _____    ______ ____
ROOT
ATOM      1  C   UNL     1       5.233   4.545  19.489  0.00  0.00    +0.000 C 
ATOM      2  C   UNL     1       4.672   3.133  19.283  0.00  0.00    +0.000 C 
ATOM      3  C   UNL     1       3.384   3.145  18.477  0.00  0.00    +0.000 C 
ATOM      4  C   UNL     1       2.351   4.052  19.134  0.00  0.00    +0.000 C 
ATOM      5  N   UNL     1       2.824   5.435  19.152  0.00  0.00    +0.000 NA
ATOM      6  C   UNL     1       4.138   5.580  19.820  0.00  0.00    +0.000 C 
ENDROOT
BRANCH   1   8
ATOM      7  O   UNL     1       7.275   4.417  18.149  0.00  0.00    +0.000 OA
ATOM      8  C   UNL     1       6.190   4.946  18.361  0.00  0.00    +0.000 C 
ATOM      9  N   UNL     1       5.680   5.963  17.577  0.00  0.00    +0.000 N 
ATOM     10  H   UNL     1       4.706   6.216  17.666  0.00  0.00    +0.000 HD
BRANCH   9  11
ATOM     11  C   UNL     1       6.371   6.509  16.428  0.00  0.00    +0.000 C 
BRANCH  11  12
ATOM     12  C   UNL     1       6.366   5.569  15.246  0.00  0.00    +0.000 A 
ATOM     13  C   UNL     1       5.238   4.797  14.974  0.00  0.00    +0.000 A 
ATOM     14  C   UNL     1       5.267   3.915  13.897  0.00  0.00    +0.000 A 
ATOM     15  C   UNL     1       6.411   3.832  13.114  0.00  0.00    +0.000 A 
ATOM     16  C   UNL     1       7.483   4.648  13.436  0.00  0.00    +0.000 A 
ATOM     17  N   UNL     1       7.486   5.516  14.474  0.00  0.00    +0.000 NA
ENDBRANCH  11  12
ENDBRANCH   9  11
ENDBRANCH   1   8
BRANCH   5  18
ATOM     18  C   UNL     1       1.861   6.356  19.785  0.00  0.00    +0.000 C 
BRANCH  18  19
ATOM     19  C   UNL     1       1.905   7.739  19.218  0.00  0.00    +0.000 A 
ATOM     20  C   UNL     1       2.233   8.056  17.876  0.00  0.00    +0.000 A 
ATOM     21  N   UNL     1       2.020   9.333  17.562  0.00  0.00    +0.000 NA
ATOM     22  N   UNL     1       1.673   9.913  18.742  0.00  0.00    +0.000 N 
ATOM     23  C   UNL     1       1.458   8.953  19.720  0.00  0.00    +0.000 A 
BRANCH  22  24
ATOM     24  C   UNL     1       1.646  11.336  18.838  0.00  0.00    +0.000 A 
ATOM     25  C   UNL     1       2.509  12.097  18.038  0.00  0.00    +0.000 A 
ATOM     26  C   UNL     1       2.416  13.491  18.047  0.00  0.00    +0.000 A 
ATOM     27  C   UNL     1       1.494  14.129  18.877  0.00  0.00    +0.000 A 
ATOM     28  C   UNL     1       0.678  13.376  19.720  0.00  0.00    +0.000 A 
ATOM     29  C   UNL     1       0.761  11.983  19.711  0.00  0.00    +0.000 A 
ENDBRANCH  22  24
BRANCH  23  30
ATOM     30  N   UNL     1       0.794   9.194  20.923  0.00  0.00    +0.000 N 
ATOM     31  C   UNL     1      -0.566   9.296  21.122  0.00  0.00    +0.000 A 
ATOM     32  C   UNL     1      -0.824   9.466  22.465  0.00  0.00    +0.000 A 
ATOM     33  C   UNL     1       0.419   9.537  23.122  0.00  0.00    +0.000 A 
ATOM     34  C   UNL     1       1.390   9.402  22.158  0.00  0.00    +0.000 A 
ENDBRANCH  23  30
ENDBRANCH  18  19
ENDBRANCH   5  18
TORSDOF 7
ENDMDL
MODEL 6
REMARK VINA RESULT:      -7.9      1.725      2.431
REMARK  Name = 
REMARK  7 active torsions:
REMARK  status: ('A' for Active; 'I' for Inactive)
REMARK    1  A    between atoms: C_2  and  C_11
REMARK    2  A    between atoms: N_3  and  C_4
REMARK    3  A    between atoms: C_4  and  C_5
REMARK    4  A    between atoms: N_15  and  C_16
REMARK    5  A    between atoms: C_16  and  C_17
REMARK    6  A    between atoms: N_20  and  C_21
REMARK    7  A    between atoms: C_27  and  N_28
REMARK                            x       y       z     vdW  Elec       q    Type
REMARK                         _______ _______ _______ _____ _____    ______ ____
ROOT
ATOM      1  C   UNL     1       3.085   2.611  20.133  0.00  0.00    +0.000 C 
ATOM      2  C   UNL     1       1.602   2.261  20.301  0.00  0.00    +0.000 C 
ATOM      3  C   UNL     1       0.696   3.309  19.677  0.00  0.00    +0.000 C 
ATOM      4  C   UNL     1       0.999   4.687  20.251  0.00  0.00    +0.000 C 
ATOM      5  N   UNL     1       2.365   5.090  19.919  0.00  0.00    +0.000 NA
ATOM      6  C   UNL     1       3.376   4.107  20.373  0.00  0.00    +0.000 C 
ENDROOT
BRANCH   1   8
ATOM      7  O   UNL     1       3.759   0.837  18.591  0.00  0.00    +0.000 OA
ATOM      8  C   UNL     1       3.662   2.034  18.837  0.00  0.00    +0.000 C 
ATOM      9  N   UNL     1       4.041   3.020  17.946  0.00  0.00    +0.000 N 
ATOM     10  H   UNL     1       3.751   3.974  18.110  0.00  0.00    +0.000 HD
BRANCH   9  11
ATOM     11  C   UNL     1       4.590   2.744  16.635  0.00  0.00    +0.000 C 
BRANCH  11  12
ATOM     12  C   UNL     1       5.586   3.789  16.191  0.00  0.00    +0.000 A 
ATOM     13  C   UNL     1       5.826   3.990  14.833  0.00  0.00    +0.000 A 
ATOM     14  C   UNL     1       6.771   4.938  14.448  0.00  0.00    +0.000 A 
ATOM     15  C   UNL     1       7.444   5.665  15.421  0.00  0.00    +0.000 A 
ATOM     16  C   UNL     1       7.134   5.421  16.749  0.00  0.00    +0.000 A 
ATOM     17  N   UNL     1       6.220   4.509  17.156  0.00  0.00    +0.000 NA
ENDBRANCH  11  12
ENDBRANCH   9  11
ENDBRANCH   1   8
BRANCH   5  18
ATOM     18  C   UNL     1       2.712   6.418  20.458  0.00  0.00    +0.000 C 
BRANCH  18  19
ATOM     19  C   UNL     1       2.199   7.548  19.623  0.00  0.00    +0.000 A 
ATOM     20  C   UNL     1       2.278   7.612  18.209  0.00  0.00    +0.000 A 
ATOM     21  N   UNL     1       1.587   8.622  17.683  0.00  0.00    +0.000 NA
ATOM     22  N   UNL     1       1.148   9.325  18.760  0.00  0.00    +0.000 N 
ATOM     23  C   UNL     1       1.380   8.624  19.935  0.00  0.00    +0.000 A 
BRANCH  22  24
ATOM     24  C   UNL     1       0.609  10.632  18.569  0.00  0.00    +0.000 A 
ATOM     25  C   UNL     1      -0.769  10.785  18.364  0.00  0.00    +0.000 A 
ATOM     26  C   UNL     1      -1.320  12.067  18.283  0.00  0.00    +0.000 A 
ATOM     27  C   UNL     1      -0.500  13.192  18.369  0.00  0.00    +0.000 A 
ATOM     28  C   UNL     1       0.879  13.040  18.510  0.00  0.00    +0.000 A 
ATOM     29  C   UNL     1       1.435  11.763  18.598  0.00  0.00    +0.000 A 
ENDBRANCH  22  24
BRANCH  23  30
ATOM     30  N   UNL     1       0.774   8.918  21.157  0.00  0.00    +0.000 N 
ATOM     31  C   UNL     1       1.361   9.482  22.268  0.00  0.00    +0.000 A 
ATOM     32  C   UNL     1       0.408   9.678  23.244  0.00  0.00    +0.000 A 
ATOM     33  C   UNL     1      -0.804   9.159  22.752  0.00  0.00    +0.000 A 
ATOM     34  C   UNL     1      -0.549   8.672  21.491  0.00  0.00    +0.000 A 
ENDBRANCH  23  30
ENDBRANCH  18  19
ENDBRANCH   5  18
TORSDOF 7
ENDMDL
MODEL 7
REMARK VINA RESULT:      -7.6      5.504      9.883
REMARK  Name = 
REMARK  7 active torsions:
REMARK  status: ('A' for Active; 'I' for Inactive)
REMARK    1  A    between atoms: C_2  and  C_11
REMARK    2  A    between atoms: N_3  and  C_4
REMARK    3  A    between atoms: C_4  and  C_5
REMARK    4  A    between atoms: N_15  and  C_16
REMARK    5  A    between atoms: C_16  and  C_17
REMARK    6  A    between atoms: N_20  and  C_21
REMARK    7  A    between atoms: C_27  and  N_28
REMARK                            x       y       z     vdW  Elec       q    Type
REMARK                         _______ _______ _______ _____ _____    ______ ____
ROOT
ATOM      1  C   UNL     1      -4.781  12.886  21.925  0.00  0.00    +0.000 C 
ATOM      2  C   UNL     1      -5.422  13.919  22.859  0.00  0.00    +0.000 C 
ATOM      3  C   UNL     1      -4.492  15.086  23.142  0.00  0.00    +0.000 C 
ATOM      4  C   UNL     1      -3.167  14.589  23.707  0.00  0.00    +0.000 C 
ATOM      5  N   UNL     1      -2.475  13.753  22.726  0.00  0.00    +0.000 NA
ATOM      6  C   UNL     1      -3.301  12.613  22.264  0.00  0.00    +0.000 C 
ENDROOT
BRANCH   1   8
ATOM      7  O   UNL     1      -5.170  14.326  19.987  0.00  0.00    +0.000 OA
ATOM      8  C   UNL     1      -5.066  13.197  20.452  0.00  0.00    +0.000 C 
ATOM      9  N   UNL     1      -5.168  12.053  19.684  0.00  0.00    +0.000 N 
ATOM     10  H   UNL     1      -4.872  11.168  20.072  0.00  0.00    +0.000 HD
BRANCH   9  11
ATOM     11  C   UNL     1      -5.406  12.067  18.256  0.00  0.00    +0.000 C 
BRANCH  11  12
ATOM     12  C   UNL     1      -4.348  11.319  17.482  0.00  0.00    +0.000 A 
ATOM     13  C   UNL     1      -4.262  11.465  16.099  0.00  0.00    +0.000 A 
ATOM     14  C   UNL     1      -3.297  10.741  15.403  0.00  0.00    +0.000 A 
ATOM     15  C   UNL     1      -2.439   9.900  16.099  0.00  0.00    +0.000 A 
ATOM     16  C   UNL     1      -2.575   9.826  17.477  0.00  0.00    +0.000 A 
ATOM     17  N   UNL     1      -3.500  10.517  18.182  0.00  0.00    +0.000 NA
ENDBRANCH  11  12
ENDBRANCH   9  11
ENDBRANCH   1   8
BRANCH   5  18
ATOM     18  C   UNL     1      -1.187  13.240  23.227  0.00  0.00    +0.000 C 
BRANCH  18  19
ATOM     19  C   UNL     1      -0.764  11.962  22.575  0.00  0.00    +0.000 A 
ATOM     20  C   UNL     1      -1.040  10.665  23.077  0.00  0.00    +0.000 A 
ATOM     21  N   UNL     1      -0.728   9.688  22.227  0.00  0.00    +0.000 NA
ATOM     22  N   UNL     1      -0.113  10.325  21.196  0.00  0.00    +0.000 N 
ATOM     23  C   UNL     1      -0.249  11.701  21.313  0.00  0.00    +0.000 A 
BRANCH  22  24
ATOM     24  C   UNL     1       0.607   9.558  20.231  0.00  0.00    +0.000 A 
ATOM     25  C   UNL     1       0.600   9.960  18.889  0.00  0.00    +0.000 A 
ATOM     26  C   UNL     1       1.388   9.278  17.956  0.00  0.00    +0.000 A 
ATOM     27  C   UNL     1       2.151   8.179  18.350  0.00  0.00    +0.000 A 
ATOM     28  C   UNL     1       2.109   7.740  19.672  0.00  0.00    +0.000 A 
ATOM     29  C   UNL     1       1.330   8.420  20.610  0.00  0.00    +0.000 A 
ENDBRANCH  22  24
BRANCH  23  30
ATOM     30  N   UNL     1      -0.014  12.603  20.276  0.00  0.00    +0.000 N 
ATOM     31  C   UNL     1       1.168  13.246  19.977  0.00  0.00    +0.000 A 
ATOM     32  C   UNL     1       1.007  13.997  18.833  0.00  0.00    +0.000 A 
ATOM     33  C   UNL     1      -0.338  13.873  18.438  0.00  0.00    +0.000 A 
ATOM     34  C   UNL     1      -0.949  13.045  19.351  0.00  0.00    +0.000 A 
ENDBRANCH  23  30
ENDBRANCH  18  19
ENDBRANCH   5  18
TORSDOF 7
ENDMDL
MODEL 8
REMARK VINA RESULT:      -7.4      5.030      9.742
REMARK  Name = 
REMARK  7 active torsions:
REMARK  status: ('A' for Active; 'I' for Inactive)
REMARK    1  A    between atoms: C_2  and  C_11
REMARK    2  A    between atoms: N_3  and  C_4
REMARK    3  A    between atoms: C_4  and  C_5
REMARK    4  A    between atoms: N_15  and  C_16
REMARK    5  A    between atoms: C_16  and  C_17
REMARK    6  A    between atoms: N_20  and  C_21
REMARK    7  A    between atoms: C_27  and  N_28
REMARK                            x       y       z     vdW  Elec       q    Type
REMARK                         _______ _______ _______ _____ _____    ______ ____
ROOT
ATOM      1  C   UNL     1      -4.568  13.852  21.788  0.00  0.00    +0.000 C 
ATOM      2  C   UNL     1      -4.098  15.274  21.461  0.00  0.00    +0.000 C 
ATOM      3  C   UNL     1      -2.738  15.281  20.782  0.00  0.00    +0.000 C 
ATOM      4  C   UNL     1      -1.711  14.549  21.635  0.00  0.00    +0.000 C 
ATOM      5  N   UNL     1      -2.077  13.142  21.782  0.00  0.00    +0.000 NA
ATOM      6  C   UNL     1      -3.437  12.961  22.342  0.00  0.00    +0.000 C 
ENDROOT
BRANCH   1   8
ATOM      7  O   UNL     1      -6.595  13.131  20.626  0.00  0.00    +0.000 OA
ATOM      8  C   UNL     1      -5.375  13.242  20.637  0.00  0.00    +0.000 C 
ATOM      9  N   UNL     1      -4.572  12.849  19.584  0.00  0.00    +0.000 N 
ATOM     10  H   UNL     1      -3.607  13.148  19.557  0.00  0.00    +0.000 HD
BRANCH   9  11
ATOM     11  C   UNL     1      -5.085  12.268  18.361  0.00  0.00    +0.000 C 
BRANCH  11  12
ATOM     12  C   UNL     1      -4.055  11.436  17.635  0.00  0.00    +0.000 A 
ATOM     13  C   UNL     1      -3.045  10.797  18.352  0.00  0.00    +0.000 A 
ATOM     14  C   UNL     1      -2.087  10.061  17.659  0.00  0.00    +0.000 A 
ATOM     15  C   UNL     1      -2.166   9.971  16.275  0.00  0.00    +0.000 A 
ATOM     16  C   UNL     1      -3.213  10.617  15.638  0.00  0.00    +0.000 A 
ATOM     17  N   UNL     1      -4.159  11.338  16.282  0.00  0.00    +0.000 NA
ENDBRANCH  11  12
ENDBRANCH   9  11
ENDBRANCH   1   8
BRANCH   5  18
ATOM     18  C   UNL     1      -1.115  12.387  22.607  0.00  0.00    +0.000 C 
BRANCH  18  19
ATOM     19  C   UNL     1      -0.597  11.156  21.935  0.00  0.00    +0.000 A 
ATOM     20  C   UNL     1      -1.018   9.835  22.226  0.00  0.00    +0.000 A 
ATOM     21  N   UNL     1      -0.554   8.926  21.370  0.00  0.00    +0.000 NA
ATOM     22  N   UNL     1       0.298   9.624  20.572  0.00  0.00    +0.000 N 
ATOM     23  C   UNL     1       0.182  10.988  20.799  0.00  0.00    +0.000 A 
BRANCH  22  24
ATOM     24  C   UNL     1       1.192   8.914  19.716  0.00  0.00    +0.000 A 
ATOM     25  C   UNL     1       1.424   9.388  18.418  0.00  0.00    +0.000 A 
ATOM     26  C   UNL     1       2.378   8.761  17.611  0.00  0.00    +0.000 A 
ATOM     27  C   UNL     1       3.073   7.646  18.079  0.00  0.00    +0.000 A 
ATOM     28  C   UNL     1       2.797   7.135  19.347  0.00  0.00    +0.000 A 
ATOM     29  C   UNL     1       1.851   7.760  20.160  0.00  0.00    +0.000 A 
ENDBRANCH  22  24
BRANCH  23  30
ATOM     30  N   UNL     1       0.672  11.970  19.938  0.00  0.00    +0.000 N 
ATOM     31  C   UNL     1       0.014  12.561  18.881  0.00  0.00    +0.000 A 
ATOM     32  C   UNL     1       0.815  13.536  18.327  0.00  0.00    +0.000 A 
ATOM     33  C   UNL     1       2.040  13.511  19.018  0.00  0.00    +0.000 A 
ATOM     34  C   UNL     1       1.941  12.527  19.974  0.00  0.00    +0.000 A 
ENDBRANCH  23  30
ENDBRANCH  18  19
ENDBRANCH   5  18
TORSDOF 7
ENDMDL
MODEL 9
REMARK VINA RESULT:      -7.4      6.259     10.228
REMARK  Name = 
REMARK  7 active torsions:
REMARK  status: ('A' for Active; 'I' for Inactive)
REMARK    1  A    between atoms: C_2  and  C_11
REMARK    2  A    between atoms: N_3  and  C_4
REMARK    3  A    between atoms: C_4  and  C_5
REMARK    4  A    between atoms: N_15  and  C_16
REMARK    5  A    between atoms: C_16  and  C_17
REMARK    6  A    between atoms: N_20  and  C_21
REMARK    7  A    between atoms: C_27  and  N_28
REMARK                            x       y       z     vdW  Elec       q    Type
REMARK                         _______ _______ _______ _____ _____    ______ ____
ROOT
ATOM      1  C   UNL     1       1.912  14.002  19.983  0.00  0.00    +0.000 C 
ATOM      2  C   UNL     1       1.160  15.227  19.450  0.00  0.00    +0.000 C 
ATOM      3  C   UNL     1       2.020  16.060  18.515  0.00  0.00    +0.000 C 
ATOM      4  C   UNL     1       3.314  16.473  19.204  0.00  0.00    +0.000 C 
ATOM      5  N   UNL     1       4.112  15.294  19.540  0.00  0.00    +0.000 NA
ATOM      6  C   UNL     1       3.370  14.320  20.373  0.00  0.00    +0.000 C 
ENDROOT
BRANCH   1   8
ATOM      7  O   UNL     1       2.446  12.519  18.114  0.00  0.00    +0.000 OA
ATOM      8  C   UNL     1       1.731  12.783  19.072  0.00  0.00    +0.000 C 
ATOM      9  N   UNL     1       0.676  11.983  19.470  0.00  0.00    +0.000 N 
ATOM     10  H   UNL     1       0.255  12.132  20.376  0.00  0.00    +0.000 HD
BRANCH   9  11
ATOM     11  C   UNL     1       0.308  10.755  18.797  0.00  0.00    +0.000 C 
BRANCH  11  12
ATOM     12  C   UNL     1      -1.135  10.747  18.352  0.00  0.00    +0.000 A 
ATOM     13  C   UNL     1      -1.552   9.865  17.356  0.00  0.00    +0.000 A 
ATOM     14  C   UNL     1      -2.880   9.896  16.940  0.00  0.00    +0.000 A 
ATOM     15  C   UNL     1      -3.760  10.794  17.531  0.00  0.00    +0.000 A 
ATOM     16  C   UNL     1      -3.273  11.623  18.529  0.00  0.00    +0.000 A 
ATOM     17  N   UNL     1      -1.989  11.616  18.957  0.00  0.00    +0.000 NA
ENDBRANCH  11  12
ENDBRANCH   9  11
ENDBRANCH   1   8
BRANCH   5  18
ATOM     18  C   UNL     1       5.377  15.639  20.216  0.00  0.00    +0.000 C 
BRANCH  18  19
ATOM     19  C   UNL     1       6.581  15.040  19.562  0.00  0.00    +0.000 A 
ATOM     20  C   UNL     1       6.916  15.186  18.193  0.00  0.00    +0.000 A 
ATOM     21  N   UNL     1       8.128  14.722  17.889  0.00  0.00    +0.000 NA
ATOM     22  N   UNL     1       8.559  14.137  19.037  0.00  0.00    +0.000 N 
ATOM     23  C   UNL     1       7.711  14.438  20.094  0.00  0.00    +0.000 A 
BRANCH  22  24
ATOM     24  C   UNL     1       9.705  13.288  19.000  0.00  0.00    +0.000 A 
ATOM     25  C   UNL     1       9.741  12.219  18.094  0.00  0.00    +0.000 A 
ATOM     26  C   UNL     1      10.901  11.448  17.976  0.00  0.00    +0.000 A 
ATOM     27  C   UNL     1      12.008  11.715  18.781  0.00  0.00    +0.000 A 
ATOM     28  C   UNL     1      11.951  12.737  19.727  0.00  0.00    +0.000 A 
ATOM     29  C   UNL     1      10.799  13.515  19.845  0.00  0.00    +0.000 A 
ENDBRANCH  22  24
BRANCH  23  30
ATOM     30  N   UNL     1       8.041  14.261  21.438  0.00  0.00    +0.000 N 
ATOM     31  C   UNL     1       7.857  13.130  22.203  0.00  0.00    +0.000 A 
ATOM     32  C   UNL     1       8.381  13.333  23.461  0.00  0.00    +0.000 A 
ATOM     33  C   UNL     1       8.852  14.659  23.506  0.00  0.00    +0.000 A 
ATOM     34  C   UNL     1       8.604  15.215  22.273  0.00  0.00    +0.000 A 
ENDBRANCH  23  30
ENDBRANCH  18  19
ENDBRANCH   5  18
TORSDOF 7
ENDMDL
