MODEL 1
REMARK VINA RESULT:      -8.8      0.000      0.000
REMARK  Name = 
REMARK  4 active torsions:
REMARK  status: ('A' for Active; 'I' for Inactive)
REMARK    1  A    between atoms: C_1  and  C_2
REMARK    2  A    between atoms: C_4  and  C_5
REMARK    3  A    between atoms: N_9  and  S_10
REMARK    4  A    between atoms: S_10  and  C_13
REMARK                            x       y       z     vdW  Elec       q    Type
REMARK                         _______ _______ _______ _____ _____    ______ ____
ROOT
ATOM      1  S   UNL     1       4.030   3.136  18.569  0.00  0.00    +0.000 S 
ATOM      2  O   UNL     1       4.696   2.874  19.827  0.00  0.00    +0.000 OA
ATOM      3  O   UNL     1       3.520   2.035  17.774  0.00  0.00    +0.000 OA
ENDROOT
BRANCH   1   4
ATOM      4  C   UNL     1       5.134   4.056  17.548  0.00  0.00    +0.000 A 
ATOM      5  C   UNL     1       5.065   3.952  16.150  0.00  0.00    +0.000 A 
ATOM      6  C   UNL     1       5.961   4.666  15.338  0.00  0.00    +0.000 A 
ATOM      7  C   UNL     1       6.929   5.493  15.917  0.00  0.00    +0.000 A 
ATOM      8  C   UNL     1       6.984   5.578  17.299  0.00  0.00    +0.000 A 
ATOM      9  C   UNL     1       6.100   4.866  18.105  0.00  0.00    +0.000 A 
ATOM     10  O   UNL     1       6.293   5.100  19.441  0.00  0.00    +0.000 OA
ATOM     11  C   UNL     1       7.566   5.779  19.505  0.00  0.00    +0.000 C 
ATOM     12  C   UNL     1       7.849   6.426  18.151  0.00  0.00    +0.000 C 
ENDBRANCH   1   4
BRANCH   1  17
ATOM     13  C   UNL     1       2.854   4.959  20.130  0.00  0.00    +0.000 C 
ATOM     14  C   UNL     1       2.066   4.110  21.129  0.00  0.00    +0.000 C 
ATOM     15  C   UNL     1       0.869   3.639  20.321  0.00  0.00    +0.000 C 
ATOM     16  C   UNL     1       1.374   3.529  18.886  0.00  0.00    +0.000 C 
ATOM     17  N   UNL     1       2.710   4.197  18.846  0.00  0.00    +0.000 NA
BRANCH  13  21
ATOM     18  C   UNL     1       2.028   9.245  17.779  0.00  0.00    +0.000 C 
ATOM     19  C   UNL     1       1.965   8.251  18.886  0.00  0.00    +0.000 A 
ATOM     20  N   UNL     1       2.466   7.038  18.818  0.00  0.00    +0.000 NA
ATOM     21  C   UNL     1       2.273   6.356  20.019  0.00  0.00    +0.000 A 
ATOM     22  C   UNL     1       1.590   7.088  20.975  0.00  0.00    +0.000 A 
ATOM     23  S   UNL     1       1.223   8.655  20.380  0.00  0.00    +0.000 S 
ENDBRANCH  13  21
ENDBRANCH   1  17
TORSDOF 3
ENDMDL
MODEL 2
REMARK VINA RESULT:      -8.5      0.839      1.194
REMARK  Name = 
REMARK  4 active torsions:
REMARK  status: ('A' for Active; 'I' for Inactive)
REMARK    1  A    between atoms: C_1  and  C_2
REMARK    2  A    between atoms: C_4  and  C_5
REMARK    3  A    between atoms: N_9  and  S_10
REMARK    4  A    between atoms: S_10  and  C_13
REMARK                            x       y       z     vdW  Elec       q    Type
REMARK                         _______ _______ _______ _____ _____    ______ ____
ROOT
ATOM      1  S   UNL     1       4.005   3.146  18.535  0.00  0.00    +0.000 S 
ATOM      2  O   UNL     1       4.626   2.874  19.813  0.00  0.00    +0.000 OA
ATOM      3  O   UNL     1       3.462   2.058  17.745  0.00  0.00    +0.000 OA
ENDROOT
BRANCH   1   4
ATOM      4  C   UNL     1       5.177   3.996  17.528  0.00  0.00    +0.000 A 
ATOM      5  C   UNL     1       5.175   3.824  16.134  0.00  0.00    +0.000 A 
ATOM      6  C   UNL     1       6.125   4.481  15.336  0.00  0.00    +0.000 A 
ATOM      7  C   UNL     1       7.080   5.318  15.922  0.00  0.00    +0.000 A 
ATOM      8  C   UNL     1       7.068   5.470  17.300  0.00  0.00    +0.000 A 
ATOM      9  C   UNL     1       6.131   4.814  18.093  0.00  0.00    +0.000 A 
ATOM     10  O   UNL     1       6.262   5.109  19.425  0.00  0.00    +0.000 OA
ATOM     11  C   UNL     1       7.544   5.768  19.520  0.00  0.00    +0.000 C 
ATOM     12  C   UNL     1       7.907   6.342  18.153  0.00  0.00    +0.000 C 
ENDBRANCH   1   4
BRANCH   1  17
ATOM     13  C   UNL     1       2.926   5.110  19.991  0.00  0.00    +0.000 C 
ATOM     14  C   UNL     1       2.123   4.358  21.054  0.00  0.00    +0.000 C 
ATOM     15  C   UNL     1       0.895   3.883  20.296  0.00  0.00    +0.000 C 
ATOM     16  C   UNL     1       1.371   3.662  18.863  0.00  0.00    +0.000 C 
ATOM     17  N   UNL     1       2.731   4.273  18.762  0.00  0.00    +0.000 NA
BRANCH  13  21
ATOM     18  C   UNL     1       0.484   9.168  21.456  0.00  0.00    +0.000 C 
ATOM     19  C   UNL     1       1.270   8.292  20.544  0.00  0.00    +0.000 A 
ATOM     20  N   UNL     1       1.722   7.102  20.871  0.00  0.00    +0.000 NA
ATOM     21  C   UNL     1       2.397   6.519  19.799  0.00  0.00    +0.000 A 
ATOM     22  C   UNL     1       2.457   7.320  18.672  0.00  0.00    +0.000 A 
ATOM     23  S   UNL     1       1.628   8.798  18.944  0.00  0.00    +0.000 S 
ENDBRANCH  13  21
ENDBRANCH   1  17
TORSDOF 3
ENDMDL
MODEL 3
REMARK VINA RESULT:      -8.2      0.846      1.990
REMARK  Name = 
REMARK  4 active torsions:
REMARK  status: ('A' for Active; 'I' for Inactive)
REMARK    1  A    between atoms: C_1  and  C_2
REMARK    2  A    between atoms: C_4  and  C_5
REMARK    3  A    between atoms: N_9  and  S_10
REMARK    4  A    between atoms: S_10  and  C_13
REMARK                            x       y       z     vdW  Elec       q    Type
REMARK                         _______ _______ _______ _____ _____    ______ ____
ROOT
ATOM      1  S   UNL     1       4.224   3.333  18.756  0.00  0.00    +0.000 S 
ATOM      2  O   UNL     1       4.607   2.863  20.070  0.00  0.00    +0.000 OA
ATOM      3  O   UNL     1       3.920   2.382  17.705  0.00  0.00    +0.000 OA
ENDROOT
BRANCH   1   4
ATOM      4  C   UNL     1       5.504   4.389  18.159  0.00  0.00    +0.000 A 
ATOM      5  C   UNL     1       6.201   5.231  19.040  0.00  0.00    +0.000 A 
ATOM      6  C   UNL     1       7.203   6.089  18.560  0.00  0.00    +0.000 A 
ATOM      7  C   UNL     1       7.519   6.110  17.198  0.00  0.00    +0.000 A 
ATOM      8  C   UNL     1       6.815   5.275  16.344  0.00  0.00    +0.000 A 
ATOM      9  C   UNL     1       5.818   4.428  16.818  0.00  0.00    +0.000 A 
ATOM     10  O   UNL     1       5.256   3.663  15.829  0.00  0.00    +0.000 OA
ATOM     11  C   UNL     1       5.723   4.266  14.603  0.00  0.00    +0.000 C 
ATOM     12  C   UNL     1       7.000   5.050  14.892  0.00  0.00    +0.000 C 
ENDBRANCH   1   4
BRANCH   1  17
ATOM     13  C   UNL     1       2.840   5.098  20.210  0.00  0.00    +0.000 C 
ATOM     14  C   UNL     1       1.973   4.212  21.106  0.00  0.00    +0.000 C 
ATOM     15  C   UNL     1       0.882   3.726  20.167  0.00  0.00    +0.000 C 
ATOM     16  C   UNL     1       1.540   3.654  18.793  0.00  0.00    +0.000 C 
ATOM     17  N   UNL     1       2.854   4.356  18.907  0.00  0.00    +0.000 NA
BRANCH  13  21
ATOM     18  C   UNL     1       2.011   9.332  17.769  0.00  0.00    +0.000 C 
ATOM     19  C   UNL     1       1.931   8.354  18.888  0.00  0.00    +0.000 A 
ATOM     20  N   UNL     1       2.456   7.149  18.855  0.00  0.00    +0.000 NA
ATOM     21  C   UNL     1       2.238   6.482  20.060  0.00  0.00    +0.000 A 
ATOM     22  C   UNL     1       1.511   7.215  20.982  0.00  0.00    +0.000 A 
ATOM     23  S   UNL     1       1.134   8.765  20.351  0.00  0.00    +0.000 S 
ENDBRANCH  13  21
ENDBRANCH   1  17
TORSDOF 3
ENDMDL
MODEL 4
REMARK VINA RESULT:      -8.0      1.262      2.318
REMARK  Name = 
REMARK  4 active torsions:
REMARK  status: ('A' for Active; 'I' for Inactive)
REMARK    1  A    between atoms: C_1  and  C_2
REMARK    2  A    between atoms: C_4  and  C_5
REMARK    3  A    between atoms: N_9  and  S_10
REMARK    4  A    between atoms: S_10  and  C_13
REMARK                            x       y       z     vdW  Elec       q    Type
REMARK                         _______ _______ _______ _____ _____    ______ ____
ROOT
ATOM      1  S   UNL     1       4.145   3.413  18.688  0.00  0.00    +0.000 S 
ATOM      2  O   UNL     1       4.456   2.945  20.022  0.00  0.00    +0.000 OA
ATOM      3  O   UNL     1       3.830   2.462  17.639  0.00  0.00    +0.000 OA
ENDROOT
BRANCH   1   4
ATOM      4  C   UNL     1       5.500   4.391  18.124  0.00  0.00    +0.000 A 
ATOM      5  C   UNL     1       6.233   5.179  19.025  0.00  0.00    +0.000 A 
ATOM      6  C   UNL     1       7.295   5.977  18.570  0.00  0.00    +0.000 A 
ATOM      7  C   UNL     1       7.636   5.989  17.214  0.00  0.00    +0.000 A 
ATOM      8  C   UNL     1       6.897   5.209  16.340  0.00  0.00    +0.000 A 
ATOM      9  C   UNL     1       5.840   4.422  16.788  0.00  0.00    +0.000 A 
ATOM     10  O   UNL     1       5.248   3.702  15.782  0.00  0.00    +0.000 OA
ATOM     11  C   UNL     1       5.774   4.285  14.570  0.00  0.00    +0.000 C 
ATOM     12  C   UNL     1       7.093   4.984  14.890  0.00  0.00    +0.000 C 
ENDBRANCH   1   4
BRANCH   1  17
ATOM     13  C   UNL     1       2.927   5.426  19.955  0.00  0.00    +0.000 C 
ATOM     14  C   UNL     1       2.090   4.716  21.020  0.00  0.00    +0.000 C 
ATOM     15  C   UNL     1       0.922   4.152  20.229  0.00  0.00    +0.000 C 
ATOM     16  C   UNL     1       1.483   3.857  18.842  0.00  0.00    +0.000 C 
ATOM     17  N   UNL     1       2.827   4.508  18.773  0.00  0.00    +0.000 NA
BRANCH  13  21
ATOM     18  C   UNL     1       0.455   9.568  21.096  0.00  0.00    +0.000 C 
ATOM     19  C   UNL     1       1.229   8.621  20.249  0.00  0.00    +0.000 A 
ATOM     20  N   UNL     1       1.713   7.476  20.675  0.00  0.00    +0.000 NA
ATOM     21  C   UNL     1       2.366   6.801  19.644  0.00  0.00    +0.000 A 
ATOM     22  C   UNL     1       2.377   7.490  18.443  0.00  0.00    +0.000 A 
ATOM     23  S   UNL     1       1.529   8.973  18.597  0.00  0.00    +0.000 S 
ENDBRANCH  13  21
ENDBRANCH   1  17
TORSDOF 3
ENDMDL
MODEL 5
REMARK VINA RESULT:      -7.7      2.562      6.250
REMARK  Name = 
REMARK  4 active torsions:
REMARK  status: ('A' for Active; 'I' for Inactive)
REMARK    1  A    between atoms: C_1  and  C_2
REMARK    2  A    between atoms: C_4  and  C_5
REMARK    3  A    between atoms: N_9  and  S_10
REMARK    4  A    between atoms: S_10  and  C_13
REMARK                            x       y       z     vdW  Elec       q    Type
REMARK                         _______ _______ _______ _____ _____    ______ ____
ROOT
ATOM      1  S   UNL     1       4.962   4.661  18.928  0.00  0.00    +0.000 S 
ATOM      2  O   UNL     1       5.795   3.507  19.189  0.00  0.00    +0.000 OA
ATOM      3  O   UNL     1       4.997   5.800  19.825  0.00  0.00    +0.000 OA
ENDROOT
BRANCH   1   4
ATOM      4  C   UNL     1       3.288   4.115  18.833  0.00  0.00    +0.000 A 
ATOM      5  C   UNL     1       2.563   4.248  17.638  0.00  0.00    +0.000 A 
ATOM      6  C   UNL     1       1.222   3.836  17.571  0.00  0.00    +0.000 A 
ATOM      7  C   UNL     1       0.597   3.284  18.694  0.00  0.00    +0.000 A 
ATOM      8  C   UNL     1       1.329   3.167  19.865  0.00  0.00    +0.000 A 
ATOM      9  C   UNL     1       2.656   3.580  19.935  0.00  0.00    +0.000 A 
ATOM     10  O   UNL     1       3.218   3.360  21.165  0.00  0.00    +0.000 OA
ATOM     11  C   UNL     1       2.095   3.052  22.020  0.00  0.00    +0.000 C 
ATOM     12  C   UNL     1       0.937   2.558  21.156  0.00  0.00    +0.000 C 
ENDBRANCH   1   4
BRANCH   1  17
ATOM     13  C   UNL     1       6.712   4.938  16.927  0.00  0.00    +0.000 C 
ATOM     14  C   UNL     1       7.493   6.194  17.315  0.00  0.00    +0.000 C 
ATOM     15  C   UNL     1       6.530   7.322  16.985  0.00  0.00    +0.000 C 
ATOM     16  C   UNL     1       5.139   6.736  17.203  0.00  0.00    +0.000 C 
ATOM     17  N   UNL     1       5.312   5.260  17.358  0.00  0.00    +0.000 NA
BRANCH  13  21
ATOM     18  C   UNL     1       8.397   5.853  12.356  0.00  0.00    +0.000 C 
ATOM     19  C   UNL     1       7.601   5.177  13.416  0.00  0.00    +0.000 A 
ATOM     20  N   UNL     1       7.680   5.465  14.696  0.00  0.00    +0.000 NA
ATOM     21  C   UNL     1       6.793   4.681  15.434  0.00  0.00    +0.000 A 
ATOM     22  C   UNL     1       6.072   3.781  14.670  0.00  0.00    +0.000 A 
ATOM     23  S   UNL     1       6.476   3.946  13.011  0.00  0.00    +0.000 S 
ENDBRANCH  13  21
ENDBRANCH   1  17
TORSDOF 3
ENDMDL
MODEL 6
REMARK VINA RESULT:      -7.6      2.451      6.340
REMARK  Name = 
REMARK  4 active torsions:
REMARK  status: ('A' for Active; 'I' for Inactive)
REMARK    1  A    between atoms: C_1  and  C_2
REMARK    2  A    between atoms: C_4  and  C_5
REMARK    3  A    between atoms: N_9  and  S_10
REMARK    4  A    between atoms: S_10  and  C_13
REMARK                            x       y       z     vdW  Elec       q    Type
REMARK                         _______ _______ _______ _____ _____    ______ ____
ROOT
ATOM      1  S   UNL     1       5.185   4.474  19.099  0.00  0.00    +0.000 S 
ATOM      2  O   UNL     1       5.613   3.092  19.161  0.00  0.00    +0.000 OA
ATOM      3  O   UNL     1       5.876   5.483  19.878  0.00  0.00    +0.000 OA
ENDROOT
BRANCH   1   4
ATOM      4  C   UNL     1       3.481   4.538  19.545  0.00  0.00    +0.000 A 
ATOM      5  C   UNL     1       2.991   5.591  20.335  0.00  0.00    +0.000 A 
ATOM      6  C   UNL     1       1.638   5.628  20.710  0.00  0.00    +0.000 A 
ATOM      7  C   UNL     1       0.764   4.617  20.297  0.00  0.00    +0.000 A 
ATOM      8  C   UNL     1       1.269   3.584  19.523  0.00  0.00    +0.000 A 
ATOM      9  C   UNL     1       2.611   3.543  19.155  0.00  0.00    +0.000 A 
ATOM     10  O   UNL     1       2.914   2.461  18.369  0.00  0.00    +0.000 OA
ATOM     11  C   UNL     1       1.757   1.603  18.482  0.00  0.00    +0.000 C 
ATOM     12  C   UNL     1       0.555   2.447  18.899  0.00  0.00    +0.000 C 
ENDBRANCH   1   4
BRANCH   1  17
ATOM     13  C   UNL     1       6.620   5.027  16.913  0.00  0.00    +0.000 C 
ATOM     14  C   UNL     1       7.052   6.477  17.134  0.00  0.00    +0.000 C 
ATOM     15  C   UNL     1       5.790   7.268  16.833  0.00  0.00    +0.000 C 
ATOM     16  C   UNL     1       4.638   6.352  17.233  0.00  0.00    +0.000 C 
ATOM     17  N   UNL     1       5.226   4.998  17.465  0.00  0.00    +0.000 NA
BRANCH  13  21
ATOM     18  C   UNL     1       8.149   5.601  12.232  0.00  0.00    +0.000 C 
ATOM     19  C   UNL     1       7.385   5.010  13.365  0.00  0.00    +0.000 A 
ATOM     20  N   UNL     1       7.512   5.386  14.618  0.00  0.00    +0.000 NA
ATOM     21  C   UNL     1       6.645   4.665  15.440  0.00  0.00    +0.000 A 
ATOM     22  C   UNL     1       5.889   3.722  14.766  0.00  0.00    +0.000 A 
ATOM     23  S   UNL     1       6.235   3.766  13.086  0.00  0.00    +0.000 S 
ENDBRANCH  13  21
ENDBRANCH   1  17
TORSDOF 3
ENDMDL
MODEL 7
REMARK VINA RESULT:      -7.2      2.572      6.216
REMARK  Name = 
REMARK  4 active torsions:
REMARK  status: ('A' for Active; 'I' for Inactive)
REMARK    1  A    between atoms: C_1  and  C_2
REMARK    2  A    between atoms: C_4  and  C_5
REMARK    3  A    between atoms: N_9  and  S_10
REMARK    4  A    between atoms: S_10  and  C_13
REMARK                            x       y       z     vdW  Elec       q    Type
REMARK                         _______ _______ _______ _____ _____    ______ ____
ROOT
ATOM      1  S   UNL     1       5.016   4.609  18.802  0.00  0.00    +0.000 S 
ATOM      2  O   UNL     1       5.838   3.431  18.969  0.00  0.00    +0.000 OA
ATOM      3  O   UNL     1       5.101   5.696  19.758  0.00  0.00    +0.000 OA
ENDROOT
BRANCH   1   4
ATOM      4  C   UNL     1       3.331   4.094  18.737  0.00  0.00    +0.000 A 
ATOM      5  C   UNL     1       2.588   4.235  17.553  0.00  0.00    +0.000 A 
ATOM      6  C   UNL     1       1.239   3.847  17.510  0.00  0.00    +0.000 A 
ATOM      7  C   UNL     1       0.623   3.313  18.647  0.00  0.00    +0.000 A 
ATOM      8  C   UNL     1       1.372   3.189  19.806  0.00  0.00    +0.000 A 
ATOM      9  C   UNL     1       2.707   3.577  19.852  0.00  0.00    +0.000 A 
ATOM     10  O   UNL     1       3.285   3.353  21.075  0.00  0.00    +0.000 OA
ATOM     11  C   UNL     1       2.170   3.071  21.949  0.00  0.00    +0.000 C 
ATOM     12  C   UNL     1       0.990   2.593  21.107  0.00  0.00    +0.000 C 
ENDBRANCH   1   4
BRANCH   1  17
ATOM     13  C   UNL     1       6.701   4.976  16.761  0.00  0.00    +0.000 C 
ATOM     14  C   UNL     1       7.510   6.201  17.189  0.00  0.00    +0.000 C 
ATOM     15  C   UNL     1       6.551   7.355  16.953  0.00  0.00    +0.000 C 
ATOM     16  C   UNL     1       5.160   6.773  17.186  0.00  0.00    +0.000 C 
ATOM     17  N   UNL     1       5.321   5.288  17.255  0.00  0.00    +0.000 NA
BRANCH  13  21
ATOM     18  C   UNL     1       4.899   3.299  12.458  0.00  0.00    +0.000 C 
ATOM     19  C   UNL     1       5.845   3.994  13.373  0.00  0.00    +0.000 A 
ATOM     20  N   UNL     1       5.659   4.126  14.667  0.00  0.00    +0.000 NA
ATOM     21  C   UNL     1       6.730   4.800  15.254  0.00  0.00    +0.000 A 
ATOM     22  C   UNL     1       7.706   5.190  14.354  0.00  0.00    +0.000 A 
ATOM     23  S   UNL     1       7.301   4.675  12.769  0.00  0.00    +0.000 S 
ENDBRANCH  13  21
ENDBRANCH   1  17
TORSDOF 3
ENDMDL
MODEL 8
REMARK VINA RESULT:      -7.0      2.475      6.301
REMARK  Name = 
REMARK  4 active torsions:
REMARK  status: ('A' for Active; 'I' for Inactive)
REMARK    1  A    between atoms: C_1  and  C_2
REMARK    2  A    between atoms: C_4  and  C_5
REMARK    3  A    between atoms: N_9  and  S_10
REMARK    4  A    between atoms: S_10  and  C_13
REMARK                            x       y       z     vdW  Elec       q    Type
REMARK                         _______ _______ _______ _____ _____    ______ ____
ROOT
ATOM      1  S   UNL     1       5.435   4.541  19.164  0.00  0.00    +0.000 S 
ATOM      2  O   UNL     1       5.587   3.101  19.173  0.00  0.00    +0.000 OA
ATOM      3  O   UNL     1       6.350   5.372  19.922  0.00  0.00    +0.000 OA
ENDROOT
BRANCH   1   4
ATOM      4  C   UNL     1       3.802   4.920  19.710  0.00  0.00    +0.000 A 
ATOM      5  C   UNL     1       3.270   6.206  19.527  0.00  0.00    +0.000 A 
ATOM      6  C   UNL     1       1.979   6.514  19.985  0.00  0.00    +0.000 A 
ATOM      7  C   UNL     1       1.207   5.539  20.625  0.00  0.00    +0.000 A 
ATOM      8  C   UNL     1       1.753   4.277  20.802  0.00  0.00    +0.000 A 
ATOM      9  C   UNL     1       3.034   3.972  20.354  0.00  0.00    +0.000 A 
ATOM     10  O   UNL     1       3.386   2.670  20.595  0.00  0.00    +0.000 OA
ATOM     11  C   UNL     1       2.378   2.192  21.512  0.00  0.00    +0.000 C 
ATOM     12  C   UNL     1       1.131   3.060  21.371  0.00  0.00    +0.000 C 
ENDBRANCH   1   4
BRANCH   1  17
ATOM     13  C   UNL     1       6.859   4.972  16.944  0.00  0.00    +0.000 C 
ATOM     14  C   UNL     1       7.471   6.354  17.183  0.00  0.00    +0.000 C 
ATOM     15  C   UNL     1       6.307   7.300  16.941  0.00  0.00    +0.000 C 
ATOM     16  C   UNL     1       5.064   6.519  17.359  0.00  0.00    +0.000 C 
ATOM     17  N   UNL     1       5.489   5.098  17.542  0.00  0.00    +0.000 NA
BRANCH  13  21
ATOM     18  C   UNL     1       8.107   5.666  12.197  0.00  0.00    +0.000 C 
ATOM     19  C   UNL     1       7.411   5.046  13.358  0.00  0.00    +0.000 A 
ATOM     20  N   UNL     1       7.613   5.390  14.610  0.00  0.00    +0.000 NA
ATOM     21  C   UNL     1       6.796   4.649  15.464  0.00  0.00    +0.000 A 
ATOM     22  C   UNL     1       5.999   3.724  14.812  0.00  0.00    +0.000 A 
ATOM     23  S   UNL     1       6.244   3.811  13.116  0.00  0.00    +0.000 S 
ENDBRANCH  13  21
ENDBRANCH   1  17
TORSDOF 3
ENDMDL
MODEL 9
REMARK VINA RESULT:      -6.9      2.530      5.504
REMARK  Name = 
REMARK  4 active torsions:
REMARK  status: ('A' for Active; 'I' for Inactive)
REMARK    1  A    between atoms: C_1  and  C_2
REMARK    2  A    between atoms: C_4  and  C_5
REMARK    3  A    between atoms: N_9  and  S_10
REMARK    4  A    between atoms: S_10  and  C_13
REMARK                            x       y       z     vdW  Elec       q    Type
REMARK                         _______ _______ _______ _____ _____    ______ ____
ROOT
ATOM      1  S   UNL     1       2.193   4.871  20.048  0.00  0.00    +0.000 S 
ATOM      2  O   UNL     1       1.009   4.173  19.594  0.00  0.00    +0.000 OA
ATOM      3  O   UNL     1       2.480   4.967  21.466  0.00  0.00    +0.000 OA
ENDROOT
BRANCH   1   4
ATOM      4  C   UNL     1       2.136   6.514  19.409  0.00  0.00    +0.000 A 
ATOM      5  C   UNL     1       2.695   6.810  18.156  0.00  0.00    +0.000 A 
ATOM      6  C   UNL     1       2.671   8.124  17.660  0.00  0.00    +0.000 A 
ATOM      7  C   UNL     1       2.085   9.149  18.409  0.00  0.00    +0.000 A 
ATOM      8  C   UNL     1       1.545   8.837  19.646  0.00  0.00    +0.000 A 
ATOM      9  C   UNL     1       1.572   7.537  20.142  0.00  0.00    +0.000 A 
ATOM     10  O   UNL     1       0.966   7.421  21.365  0.00  0.00    +0.000 OA
ATOM     11  C   UNL     1       0.796   8.785  21.810  0.00  0.00    +0.000 C 
ATOM     12  C   UNL     1       0.809   9.706  20.592  0.00  0.00    +0.000 C 
ENDBRANCH   1   4
BRANCH   1  17
ATOM     13  C   UNL     1       3.420   4.039  17.825  0.00  0.00    +0.000 C 
ATOM     14  C   UNL     1       2.901   2.611  17.651  0.00  0.00    +0.000 C 
ATOM     15  C   UNL     1       3.678   1.826  18.694  0.00  0.00    +0.000 C 
ATOM     16  C   UNL     1       3.931   2.813  19.830  0.00  0.00    +0.000 C 
ATOM     17  N   UNL     1       3.573   4.168  19.311  0.00  0.00    +0.000 NA
BRANCH  13  21
ATOM     18  C   UNL     1       6.359   3.914  13.835  0.00  0.00    +0.000 C 
ATOM     19  C   UNL     1       5.986   4.132  15.259  0.00  0.00    +0.000 A 
ATOM     20  N   UNL     1       4.770   3.984  15.735  0.00  0.00    +0.000 NA
ATOM     21  C   UNL     1       4.742   4.233  17.107  0.00  0.00    +0.000 A 
ATOM     22  C   UNL     1       5.969   4.599  17.634  0.00  0.00    +0.000 A 
ATOM     23  S   UNL     1       7.172   4.590  16.412  0.00  0.00    +0.000 S 
ENDBRANCH  13  21
ENDBRANCH   1  17
TORSDOF 3
ENDMDL
