MODEL 1
REMARK VINA RESULT:      -7.4      0.000      0.000
REMARK  Name = 
REMARK  5 active torsions:
REMARK  status: ('A' for Active; 'I' for Inactive)
REMARK    1  A    between atoms: C_1  and  C_2
REMARK    2  A    between atoms: C_2  and  S_3
REMARK    3  A    between atoms: C_2  and  C_10
REMARK    4  A    between atoms: S_3  and  C_4
REMARK    5  A    between atoms: N_12  and  C_13
REMARK                            x       y       z     vdW  Elec       q    Type
REMARK                         _______ _______ _______ _____ _____    ______ ____
ROOT
ATOM      1  C   UNL     1       2.167   4.590  20.160  0.00  0.00    +0.000 C 
ATOM      2  O   UNL     1       1.035   4.422  19.702  0.00  0.00    +0.000 OA
ATOM      3  N   UNL     1       2.818   5.814  20.189  0.00  0.00    +0.000 N 
ATOM      4  H   UNL     1       3.809   5.784  20.411  0.00  0.00    +0.000 HD
ENDROOT
BRANCH   3   5
ATOM      5  C   UNL     1       2.296   7.044  19.723  0.00  0.00    +0.000 A 
ATOM      6  C   UNL     1       2.472   7.492  18.409  0.00  0.00    +0.000 A 
ATOM      7  C   UNL     1       1.965   8.724  17.993  0.00  0.00    +0.000 A 
ATOM      8  C   UNL     1       1.272   9.526  18.890  0.00  0.00    +0.000 A 
ATOM      9  C   UNL     1       1.052   9.076  20.195  0.00  0.00    +0.000 A 
ATOM     10  C   UNL     1       1.561   7.840  20.611  0.00  0.00    +0.000 A 
ATOM     11  O   UNL     1       0.358   9.811  21.124  0.00  0.00    +0.000 OA
ATOM     12  C   UNL     1      -0.375  10.880  20.512  0.00  0.00    +0.000 C 
ATOM     13  C   UNL     1       0.471  11.610  19.482  0.00  0.00    +0.000 C 
ATOM     14  O   UNL     1       0.831  10.731  18.413  0.00  0.00    +0.000 OA
ENDBRANCH   3   5
BRANCH   1  16
ATOM     15  C   UNL     1       1.891   2.587  21.620  0.00  0.00    +0.000 C 
ATOM     16  C   UNL     1       2.904   3.410  20.814  0.00  0.00    +0.000 C 
BRANCH  16  17
ATOM     17  S   UNL     1       3.772   2.366  19.584  0.00  0.00    +0.000 S 
BRANCH  17  18
ATOM     18  C   UNL     1       4.574   3.646  18.653  0.00  0.00    +0.000 A 
ATOM     19  N   UNL     1       5.534   4.339  19.285  0.00  0.00    +0.000 NA
ATOM     20  C   UNL     1       6.100   5.343  18.592  0.00  0.00    +0.000 A 
ATOM     21  C   UNL     1       5.745   5.673  17.307  0.00  0.00    +0.000 A 
ATOM     22  C   UNL     1       4.755   4.899  16.750  0.00  0.00    +0.000 A 
ATOM     23  N   UNL     1       4.149   3.884  17.398  0.00  0.00    +0.000 NA
ENDBRANCH  17  18
ENDBRANCH  16  17
ENDBRANCH   1  16
TORSDOF 4
ENDMDL
MODEL 2
REMARK VINA RESULT:      -7.4      1.885      2.211
REMARK  Name = 
REMARK  5 active torsions:
REMARK  status: ('A' for Active; 'I' for Inactive)
REMARK    1  A    between atoms: C_1  and  C_2
REMARK    2  A    between atoms: C_2  and  S_3
REMARK    3  A    between atoms: C_2  and  C_10
REMARK    4  A    between atoms: S_3  and  C_4
REMARK    5  A    between atoms: N_12  and  C_13
REMARK                            x       y       z     vdW  Elec       q    Type
REMARK                         _______ _______ _______ _____ _____    ______ ____
ROOT
ATOM      1  C   UNL     1       2.884   4.855  18.008  0.00  0.00    +0.000 C 
ATOM      2  O   UNL     1       1.716   4.665  17.663  0.00  0.00    +0.000 OA
ATOM      3  N   UNL     1       3.347   6.039  18.561  0.00  0.00    +0.000 N 
ATOM      4  H   UNL     1       4.357   6.135  18.621  0.00  0.00    +0.000 HD
ENDROOT
BRANCH   3   5
ATOM      5  C   UNL     1       2.570   7.190  18.828  0.00  0.00    +0.000 A 
ATOM      6  C   UNL     1       2.282   8.153  17.854  0.00  0.00    +0.000 A 
ATOM      7  C   UNL     1       1.534   9.290  18.163  0.00  0.00    +0.000 A 
ATOM      8  C   UNL     1       1.062   9.479  19.455  0.00  0.00    +0.000 A 
ATOM      9  C   UNL     1       1.306   8.508  20.431  0.00  0.00    +0.000 A 
ATOM     10  C   UNL     1       2.056   7.368  20.120  0.00  0.00    +0.000 A 
ATOM     11  O   UNL     1       0.851   8.624  21.721  0.00  0.00    +0.000 OA
ATOM     12  C   UNL     1      -0.153   9.642  21.838  0.00  0.00    +0.000 C 
ATOM     13  C   UNL     1       0.248  10.899  21.084  0.00  0.00    +0.000 C 
ATOM     14  O   UNL     1       0.361  10.632  19.684  0.00  0.00    +0.000 OA
ENDBRANCH   3   5
BRANCH   1  16
ATOM     15  C   UNL     1       3.136   2.382  17.800  0.00  0.00    +0.000 C 
ATOM     16  C   UNL     1       3.902   3.707  17.901  0.00  0.00    +0.000 C 
BRANCH  16  17
ATOM     17  S   UNL     1       5.042   3.921  16.483  0.00  0.00    +0.000 S 
BRANCH  17  18
ATOM     18  C   UNL     1       6.188   5.057  17.219  0.00  0.00    +0.000 A 
ATOM     19  N   UNL     1       6.966   4.576  18.202  0.00  0.00    +0.000 NA
ATOM     20  C   UNL     1       7.795   5.456  18.792  0.00  0.00    +0.000 A 
ATOM     21  C   UNL     1       7.872   6.780  18.439  0.00  0.00    +0.000 A 
ATOM     22  C   UNL     1       7.036   7.170  17.419  0.00  0.00    +0.000 A 
ATOM     23  N   UNL     1       6.183   6.334  16.795  0.00  0.00    +0.000 NA
ENDBRANCH  17  18
ENDBRANCH  16  17
ENDBRANCH   1  16
TORSDOF 4
ENDMDL
MODEL 3
REMARK VINA RESULT:      -7.2      3.163      6.089
REMARK  Name = 
REMARK  5 active torsions:
REMARK  status: ('A' for Active; 'I' for Inactive)
REMARK    1  A    between atoms: C_1  and  C_2
REMARK    2  A    between atoms: C_2  and  S_3
REMARK    3  A    between atoms: C_2  and  C_10
REMARK    4  A    between atoms: S_3  and  C_4
REMARK    5  A    between atoms: N_12  and  C_13
REMARK                            x       y       z     vdW  Elec       q    Type
REMARK                         _______ _______ _______ _____ _____    ______ ____
ROOT
ATOM      1  C   UNL     1       3.032   5.997  19.100  0.00  0.00    +0.000 C 
ATOM      2  O   UNL     1       2.557   6.620  18.148  0.00  0.00    +0.000 OA
ATOM      3  N   UNL     1       4.275   5.383  19.082  0.00  0.00    +0.000 N 
ATOM      4  H   UNL     1       4.465   4.746  19.851  0.00  0.00    +0.000 HD
ENDROOT
BRANCH   3   5
ATOM      5  C   UNL     1       5.186   5.383  18.000  0.00  0.00    +0.000 A 
ATOM      6  C   UNL     1       6.430   6.020  18.058  0.00  0.00    +0.000 A 
ATOM      7  C   UNL     1       7.291   6.022  16.959  0.00  0.00    +0.000 A 
ATOM      8  C   UNL     1       6.918   5.383  15.785  0.00  0.00    +0.000 A 
ATOM      9  C   UNL     1       5.696   4.706  15.723  0.00  0.00    +0.000 A 
ATOM     10  C   UNL     1       4.832   4.705  16.825  0.00  0.00    +0.000 A 
ATOM     11  O   UNL     1       5.275   4.038  14.600  0.00  0.00    +0.000 OA
ATOM     12  C   UNL     1       6.350   3.835  13.672  0.00  0.00    +0.000 C 
ATOM     13  C   UNL     1       7.181   5.097  13.508  0.00  0.00    +0.000 C 
ATOM     14  O   UNL     1       7.805   5.453  14.745  0.00  0.00    +0.000 OA
ENDBRANCH   3   5
BRANCH   1  16
ATOM     15  C   UNL     1       1.540   7.278  20.634  0.00  0.00    +0.000 C 
ATOM     16  C   UNL     1       2.261   5.940  20.429  0.00  0.00    +0.000 C 
BRANCH  16  17
ATOM     17  S   UNL     1       1.082   4.539  20.486  0.00  0.00    +0.000 S 
BRANCH  17  18
ATOM     18  C   UNL     1       2.051   3.326  19.628  0.00  0.00    +0.000 A 
ATOM     19  N   UNL     1       3.097   2.811  20.293  0.00  0.00    +0.000 NA
ATOM     20  C   UNL     1       3.859   1.932  19.617  0.00  0.00    +0.000 A 
ATOM     21  C   UNL     1       3.616   1.557  18.319  0.00  0.00    +0.000 A 
ATOM     22  C   UNL     1       2.519   2.141  17.731  0.00  0.00    +0.000 A 
ATOM     23  N   UNL     1       1.722   3.030  18.357  0.00  0.00    +0.000 NA
ENDBRANCH  17  18
ENDBRANCH  16  17
ENDBRANCH   1  16
TORSDOF 4
ENDMDL
MODEL 4
REMARK VINA RESULT:      -7.1      0.883      1.309
REMARK  Name = 
REMARK  5 active torsions:
REMARK  status: ('A' for Active; 'I' for Inactive)
REMARK    1  A    between atoms: C_1  and  C_2
REMARK    2  A    between atoms: C_2  and  S_3
REMARK    3  A    between atoms: C_2  and  C_10
REMARK    4  A    between atoms: S_3  and  C_4
REMARK    5  A    between atoms: N_12  and  C_13
REMARK                            x       y       z     vdW  Elec       q    Type
REMARK                         _______ _______ _______ _____ _____    ______ ____
ROOT
ATOM      1  C   UNL     1       2.337   5.004  20.050  0.00  0.00    +0.000 C 
ATOM      2  O   UNL     1       1.121   4.808  20.054  0.00  0.00    +0.000 OA
ATOM      3  N   UNL     1       2.924   6.236  19.799  0.00  0.00    +0.000 N 
ATOM      4  H   UNL     1       3.927   6.224  19.635  0.00  0.00    +0.000 HD
ENDROOT
BRANCH   3   5
ATOM      5  C   UNL     1       2.237   7.443  19.528  0.00  0.00    +0.000 A 
ATOM      6  C   UNL     1       2.175   8.009  18.250  0.00  0.00    +0.000 A 
ATOM      7  C   UNL     1       1.511   9.216  18.027  0.00  0.00    +0.000 A 
ATOM      8  C   UNL     1       0.897   9.874  19.083  0.00  0.00    +0.000 A 
ATOM      9  C   UNL     1       0.914   9.303  20.360  0.00  0.00    +0.000 A 
ATOM     10  C   UNL     1       1.581   8.092  20.583  0.00  0.00    +0.000 A 
ATOM     11  O   UNL     1       0.310   9.892  21.443  0.00  0.00    +0.000 OA
ATOM     12  C   UNL     1      -0.594  10.931  21.044  0.00  0.00    +0.000 C 
ATOM     13  C   UNL     1       0.024  11.817  19.975  0.00  0.00    +0.000 C 
ATOM     14  O   UNL     1       0.290  11.065  18.789  0.00  0.00    +0.000 OA
ENDBRANCH   3   5
BRANCH   1  16
ATOM     15  C   UNL     1       2.542   2.859  21.306  0.00  0.00    +0.000 C 
ATOM     16  C   UNL     1       3.292   3.856  20.413  0.00  0.00    +0.000 C 
BRANCH  16  17
ATOM     17  S   UNL     1       3.977   3.027  18.929  0.00  0.00    +0.000 S 
BRANCH  17  18
ATOM     18  C   UNL     1       5.332   4.123  18.601  0.00  0.00    +0.000 A 
ATOM     19  N   UNL     1       5.764   4.183  17.331  0.00  0.00    +0.000 NA
ATOM     20  C   UNL     1       6.826   4.975  17.098  0.00  0.00    +0.000 A 
ATOM     21  C   UNL     1       7.462   5.698  18.077  0.00  0.00    +0.000 A 
ATOM     22  C   UNL     1       6.939   5.569  19.342  0.00  0.00    +0.000 A 
ATOM     23  N   UNL     1       5.880   4.788  19.634  0.00  0.00    +0.000 NA
ENDBRANCH  17  18
ENDBRANCH  16  17
ENDBRANCH   1  16
TORSDOF 4
ENDMDL
MODEL 5
REMARK VINA RESULT:      -7.1      3.164      6.178
REMARK  Name = 
REMARK  5 active torsions:
REMARK  status: ('A' for Active; 'I' for Inactive)
REMARK    1  A    between atoms: C_1  and  C_2
REMARK    2  A    between atoms: C_2  and  S_3
REMARK    3  A    between atoms: C_2  and  C_10
REMARK    4  A    between atoms: S_3  and  C_4
REMARK    5  A    between atoms: N_12  and  C_13
REMARK                            x       y       z     vdW  Elec       q    Type
REMARK                         _______ _______ _______ _____ _____    ______ ____
ROOT
ATOM      1  C   UNL     1       3.043   6.204  19.123  0.00  0.00    +0.000 C 
ATOM      2  O   UNL     1       2.734   7.043  18.275  0.00  0.00    +0.000 OA
ATOM      3  N   UNL     1       4.154   5.378  19.029  0.00  0.00    +0.000 N 
ATOM      4  H   UNL     1       4.189   4.606  19.689  0.00  0.00    +0.000 HD
ENDROOT
BRANCH   3   5
ATOM      5  C   UNL     1       5.099   5.375  17.977  0.00  0.00    +0.000 A 
ATOM      6  C   UNL     1       6.353   5.985  18.083  0.00  0.00    +0.000 A 
ATOM      7  C   UNL     1       7.249   5.984  17.013  0.00  0.00    +0.000 A 
ATOM      8  C   UNL     1       6.900   5.370  15.818  0.00  0.00    +0.000 A 
ATOM      9  C   UNL     1       5.667   4.720  15.707  0.00  0.00    +0.000 A 
ATOM     10  C   UNL     1       4.769   4.722  16.781  0.00  0.00    +0.000 A 
ATOM     11  O   UNL     1       5.269   4.078  14.561  0.00  0.00    +0.000 OA
ATOM     12  C   UNL     1       6.368   3.866  13.664  0.00  0.00    +0.000 C 
ATOM     13  C   UNL     1       7.231   5.112  13.547  0.00  0.00    +0.000 C 
ATOM     14  O   UNL     1       7.821   5.437  14.808  0.00  0.00    +0.000 OA
ENDBRANCH   3   5
BRANCH   1  16
ATOM     15  C   UNL     1       1.489   7.418  20.650  0.00  0.00    +0.000 C 
ATOM     16  C   UNL     1       2.214   6.087  20.413  0.00  0.00    +0.000 C 
BRANCH  16  17
ATOM     17  S   UNL     1       1.029   4.692  20.351  0.00  0.00    +0.000 S 
BRANCH  17  18
ATOM     18  C   UNL     1       2.067   3.482  19.574  0.00  0.00    +0.000 A 
ATOM     19  N   UNL     1       1.754   3.140  18.314  0.00  0.00    +0.000 NA
ATOM     20  C   UNL     1       2.513   2.182  17.749  0.00  0.00    +0.000 A 
ATOM     21  C   UNL     1       3.556   1.564  18.392  0.00  0.00    +0.000 A 
ATOM     22  C   UNL     1       3.794   1.989  19.678  0.00  0.00    +0.000 A 
ATOM     23  N   UNL     1       3.065   2.940  20.295  0.00  0.00    +0.000 NA
ENDBRANCH  17  18
ENDBRANCH  16  17
ENDBRANCH   1  16
TORSDOF 4
ENDMDL
MODEL 6
REMARK VINA RESULT:      -7.0      1.015      1.106
REMARK  Name = 
REMARK  5 active torsions:
REMARK  status: ('A' for Active; 'I' for Inactive)
REMARK    1  A    between atoms: C_1  and  C_2
REMARK    2  A    between atoms: C_2  and  S_3
REMARK    3  A    between atoms: C_2  and  C_10
REMARK    4  A    between atoms: S_3  and  C_4
REMARK    5  A    between atoms: N_12  and  C_13
REMARK                            x       y       z     vdW  Elec       q    Type
REMARK                         _______ _______ _______ _____ _____    ______ ____
ROOT
ATOM      1  C   UNL     1       2.555   5.009  19.247  0.00  0.00    +0.000 C 
ATOM      2  O   UNL     1       1.586   4.815  18.510  0.00  0.00    +0.000 OA
ATOM      3  N   UNL     1       2.953   6.261  19.692  0.00  0.00    +0.000 N 
ATOM      4  H   UNL     1       3.869   6.306  20.129  0.00  0.00    +0.000 HD
ENDROOT
BRANCH   3   5
ATOM      5  C   UNL     1       2.318   7.489  19.392  0.00  0.00    +0.000 A 
ATOM      6  C   UNL     1       2.417   8.107  18.140  0.00  0.00    +0.000 A 
ATOM      7  C   UNL     1       1.798   9.333  17.890  0.00  0.00    +0.000 A 
ATOM      8  C   UNL     1       1.068   9.957  18.892  0.00  0.00    +0.000 A 
ATOM      9  C   UNL     1       0.924   9.335  20.136  0.00  0.00    +0.000 A 
ATOM     10  C   UNL     1       1.546   8.106  20.386  0.00  0.00    +0.000 A 
ATOM     11  O   UNL     1       0.201   9.890  21.162  0.00  0.00    +0.000 OA
ATOM     12  C   UNL     1      -0.637  10.959  20.702  0.00  0.00    +0.000 C 
ATOM     13  C   UNL     1       0.116  11.878  19.753  0.00  0.00    +0.000 C 
ATOM     14  O   UNL     1       0.515  11.169  18.577  0.00  0.00    +0.000 OA
ENDBRANCH   3   5
BRANCH   1  16
ATOM     15  C   UNL     1       2.377   2.848  20.479  0.00  0.00    +0.000 C 
ATOM     16  C   UNL     1       3.351   3.809  19.787  0.00  0.00    +0.000 C 
BRANCH  16  17
ATOM     17  S   UNL     1       4.297   2.956  18.470  0.00  0.00    +0.000 S 
BRANCH  17  18
ATOM     18  C   UNL     1       5.604   4.136  18.261  0.00  0.00    +0.000 A 
ATOM     19  N   UNL     1       6.041   4.754  19.369  0.00  0.00    +0.000 NA
ATOM     20  C   UNL     1       6.996   5.686  19.196  0.00  0.00    +0.000 A 
ATOM     21  C   UNL     1       7.520   6.017  17.971  0.00  0.00    +0.000 A 
ATOM     22  C   UNL     1       7.006   5.323  16.901  0.00  0.00    +0.000 A 
ATOM     23  N   UNL     1       6.047   4.382  17.014  0.00  0.00    +0.000 NA
ENDBRANCH  17  18
ENDBRANCH  16  17
ENDBRANCH   1  16
TORSDOF 4
ENDMDL
MODEL 7
REMARK VINA RESULT:      -6.9      1.798      2.658
REMARK  Name = 
REMARK  5 active torsions:
REMARK  status: ('A' for Active; 'I' for Inactive)
REMARK    1  A    between atoms: C_1  and  C_2
REMARK    2  A    between atoms: C_2  and  S_3
REMARK    3  A    between atoms: C_2  and  C_10
REMARK    4  A    between atoms: S_3  and  C_4
REMARK    5  A    between atoms: N_12  and  C_13
REMARK                            x       y       z     vdW  Elec       q    Type
REMARK                         _______ _______ _______ _____ _____    ______ ____
ROOT
ATOM      1  C   UNL     1       2.818   4.813  18.151  0.00  0.00    +0.000 C 
ATOM      2  O   UNL     1       1.627   4.600  17.915  0.00  0.00    +0.000 OA
ATOM      3  N   UNL     1       3.290   5.942  18.804  0.00  0.00    +0.000 N 
ATOM      4  H   UNL     1       4.294   6.089  18.765  0.00  0.00    +0.000 HD
ENDROOT
BRANCH   3   5
ATOM      5  C   UNL     1       2.499   7.002  19.305  0.00  0.00    +0.000 A 
ATOM      6  C   UNL     1       1.905   6.970  20.572  0.00  0.00    +0.000 A 
ATOM      7  C   UNL     1       1.108   8.024  21.022  0.00  0.00    +0.000 A 
ATOM      8  C   UNL     1       0.896   9.128  20.208  0.00  0.00    +0.000 A 
ATOM      9  C   UNL     1       1.514   9.196  18.956  0.00  0.00    +0.000 A 
ATOM     10  C   UNL     1       2.313   8.138  18.505  0.00  0.00    +0.000 A 
ATOM     11  O   UNL     1       1.361  10.267  18.111  0.00  0.00    +0.000 OA
ATOM     12  C   UNL     1       0.804  11.401  18.790  0.00  0.00    +0.000 C 
ATOM     13  C   UNL     1      -0.360  10.993  19.678  0.00  0.00    +0.000 C 
ATOM     14  O   UNL     1       0.080  10.106  20.710  0.00  0.00    +0.000 OA
ENDBRANCH   3   5
BRANCH   1  16
ATOM     15  C   UNL     1       3.142   2.436  17.470  0.00  0.00    +0.000 C 
ATOM     16  C   UNL     1       3.867   3.750  17.783  0.00  0.00    +0.000 C 
BRANCH  16  17
ATOM     17  S   UNL     1       4.919   4.274  16.378  0.00  0.00    +0.000 S 
BRANCH  17  18
ATOM     18  C   UNL     1       6.084   5.277  17.264  0.00  0.00    +0.000 A 
ATOM     19  N   UNL     1       6.435   6.440  16.692  0.00  0.00    +0.000 NA
ATOM     20  C   UNL     1       7.359   7.170  17.342  0.00  0.00    +0.000 A 
ATOM     21  C   UNL     1       7.935   6.783  18.527  0.00  0.00    +0.000 A 
ATOM     22  C   UNL     1       7.504   5.578  19.029  0.00  0.00    +0.000 A 
ATOM     23  N   UNL     1       6.585   4.803  18.419  0.00  0.00    +0.000 NA
ENDBRANCH  17  18
ENDBRANCH  16  17
ENDBRANCH   1  16
TORSDOF 4
ENDMDL
MODEL 8
REMARK VINA RESULT:      -6.9      1.736      2.483
REMARK  Name = 
REMARK  5 active torsions:
REMARK  status: ('A' for Active; 'I' for Inactive)
REMARK    1  A    between atoms: C_1  and  C_2
REMARK    2  A    between atoms: C_2  and  S_3
REMARK    3  A    between atoms: C_2  and  C_10
REMARK    4  A    between atoms: S_3  and  C_4
REMARK    5  A    between atoms: N_12  and  C_13
REMARK                            x       y       z     vdW  Elec       q    Type
REMARK                         _______ _______ _______ _____ _____    ______ ____
ROOT
ATOM      1  C   UNL     1       2.863   4.629  18.305  0.00  0.00    +0.000 C 
ATOM      2  O   UNL     1       1.671   4.385  18.110  0.00  0.00    +0.000 OA
ATOM      3  N   UNL     1       3.332   5.800  18.882  0.00  0.00    +0.000 N 
ATOM      4  H   UNL     1       4.333   5.960  18.811  0.00  0.00    +0.000 HD
ENDROOT
BRANCH   3   5
ATOM      5  C   UNL     1       2.536   6.874  19.345  0.00  0.00    +0.000 A 
ATOM      6  C   UNL     1       1.931   6.880  20.607  0.00  0.00    +0.000 A 
ATOM      7  C   UNL     1       1.130   7.946  21.018  0.00  0.00    +0.000 A 
ATOM      8  C   UNL     1       0.922   9.024  20.168  0.00  0.00    +0.000 A 
ATOM      9  C   UNL     1       1.551   9.054  18.919  0.00  0.00    +0.000 A 
ATOM     10  C   UNL     1       2.355   7.984  18.508  0.00  0.00    +0.000 A 
ATOM     11  O   UNL     1       1.403  10.098  18.040  0.00  0.00    +0.000 OA
ATOM     12  C   UNL     1       0.839  11.252  18.679  0.00  0.00    +0.000 C 
ATOM     13  C   UNL     1      -0.331  10.870  19.570  0.00  0.00    +0.000 C 
ATOM     14  O   UNL     1       0.102  10.017  20.633  0.00  0.00    +0.000 OA
ENDBRANCH   3   5
BRANCH   1  16
ATOM     15  C   UNL     1       3.217   2.211  17.808  0.00  0.00    +0.000 C 
ATOM     16  C   UNL     1       3.921   3.564  17.969  0.00  0.00    +0.000 C 
BRANCH  16  17
ATOM     17  S   UNL     1       4.882   3.991  16.469  0.00  0.00    +0.000 S 
BRANCH  17  18
ATOM     18  C   UNL     1       6.079   5.072  17.206  0.00  0.00    +0.000 A 
ATOM     19  N   UNL     1       6.836   4.554  18.186  0.00  0.00    +0.000 NA
ATOM     20  C   UNL     1       7.705   5.395  18.778  0.00  0.00    +0.000 A 
ATOM     21  C   UNL     1       7.840   6.715  18.429  0.00  0.00    +0.000 A 
ATOM     22  C   UNL     1       7.020   7.145  17.412  0.00  0.00    +0.000 A 
ATOM     23  N   UNL     1       6.129   6.350  16.786  0.00  0.00    +0.000 NA
ENDBRANCH  17  18
ENDBRANCH  16  17
ENDBRANCH   1  16
TORSDOF 4
ENDMDL
MODEL 9
REMARK VINA RESULT:      -6.9      1.590      3.289
REMARK  Name = 
REMARK  5 active torsions:
REMARK  status: ('A' for Active; 'I' for Inactive)
REMARK    1  A    between atoms: C_1  and  C_2
REMARK    2  A    between atoms: C_2  and  S_3
REMARK    3  A    between atoms: C_2  and  C_10
REMARK    4  A    between atoms: S_3  and  C_4
REMARK    5  A    between atoms: N_12  and  C_13
REMARK                            x       y       z     vdW  Elec       q    Type
REMARK                         _______ _______ _______ _____ _____    ______ ____
ROOT
ATOM      1  C   UNL     1       2.922   5.533  17.685  0.00  0.00    +0.000 C 
ATOM      2  O   UNL     1       1.760   5.135  17.581  0.00  0.00    +0.000 OA
ATOM      3  N   UNL     1       3.274   6.772  18.201  0.00  0.00    +0.000 N 
ATOM      4  H   UNL     1       4.239   7.054  18.055  0.00  0.00    +0.000 HD
ENDROOT
BRANCH   3   5
ATOM      5  C   UNL     1       2.380   7.750  18.694  0.00  0.00    +0.000 A 
ATOM      6  C   UNL     1       1.832   8.752  17.884  0.00  0.00    +0.000 A 
ATOM      7  C   UNL     1       0.973   9.717  18.412  0.00  0.00    +0.000 A 
ATOM      8  C   UNL     1       0.650   9.692  19.762  0.00  0.00    +0.000 A 
ATOM      9  C   UNL     1       1.155   8.675  20.578  0.00  0.00    +0.000 A 
ATOM     10  C   UNL     1       2.017   7.707  20.047  0.00  0.00    +0.000 A 
ATOM     11  O   UNL     1       0.859   8.582  21.915  0.00  0.00    +0.000 OA
ATOM     12  C   UNL     1      -0.258   9.409  22.268  0.00  0.00    +0.000 C 
ATOM     13  C   UNL     1      -0.145  10.786  21.635  0.00  0.00    +0.000 C 
ATOM     14  O   UNL     1      -0.176  10.689  20.209  0.00  0.00    +0.000 OA
ENDBRANCH   3   5
BRANCH   1  16
ATOM     15  C   UNL     1       5.056   5.375  16.405  0.00  0.00    +0.000 C 
ATOM     16  C   UNL     1       4.082   4.600  17.300  0.00  0.00    +0.000 C 
BRANCH  16  17
ATOM     17  S   UNL     1       4.937   3.916  18.769  0.00  0.00    +0.000 S 
BRANCH  17  18
ATOM     18  C   UNL     1       3.518   3.501  19.747  0.00  0.00    +0.000 A 
ATOM     19  N   UNL     1       2.865   2.376  19.415  0.00  0.00    +0.000 NA
ATOM     20  C   UNL     1       1.758   2.096  20.127  0.00  0.00    +0.000 A 
ATOM     21  C   UNL     1       1.288   2.890  21.144  0.00  0.00    +0.000 A 
ATOM     22  C   UNL     1       2.031   4.016  21.405  0.00  0.00    +0.000 A 
ATOM     23  N   UNL     1       3.145   4.350  20.723  0.00  0.00    +0.000 NA
ENDBRANCH  17  18
ENDBRANCH  16  17
ENDBRANCH   1  16
TORSDOF 4
ENDMDL
