MODEL 1
REMARK VINA RESULT:      -6.9      0.000      0.000
REMARK  Name = 
REMARK  7 active torsions:
REMARK  status: ('A' for Active; 'I' for Inactive)
REMARK    1  A    between atoms: O_1  and  C_2
REMARK    2  A    between atoms: C_5  and  S_6
REMARK    3  A    between atoms: S_6  and  C_7
REMARK    4  A    between atoms: C_7  and  C_8
REMARK    5  A    between atoms: C_10  and  O_11
REMARK    6  A    between atoms: C_12  and  O_13
REMARK    7  A    between atoms: C_14  and  O_15
REMARK                            x       y       z     vdW  Elec       q    Type
REMARK                         _______ _______ _______ _____ _____    ______ ____
ROOT
ATOM      1  C   UNL     1       4.865   6.364  17.544  0.00  0.00    +0.000 A 
ATOM      2  C   UNL     1       5.369   5.766  16.371  0.00  0.00    +0.000 A 
ATOM      3  C   UNL     1       6.525   4.989  16.427  0.00  0.00    +0.000 A 
ATOM      4  C   UNL     1       7.182   4.794  17.636  0.00  0.00    +0.000 A 
ATOM      5  C   UNL     1       6.687   5.368  18.797  0.00  0.00    +0.000 A 
ATOM      6  C   UNL     1       5.536   6.146  18.764  0.00  0.00    +0.000 A 
ENDROOT
BRANCH   3   7
ATOM      7  O   UNL     1       7.058   4.394  15.317  0.00  0.00    +0.000 OA
ATOM      8  H   UNL     1       6.651   4.798  14.531  0.00  0.00    +0.000 HD
ENDBRANCH   3   7
BRANCH   4   9
ATOM      9  O   UNL     1       8.319   4.036  17.700  0.00  0.00    +0.000 OA
ATOM     10  H   UNL     1       8.786   4.234  16.863  0.00  0.00    +0.000 HD
ENDBRANCH   4   9
BRANCH   5  11
ATOM     11  O   UNL     1       7.331   5.172  19.985  0.00  0.00    +0.000 OA
ATOM     12  H   UNL     1       8.222   5.553  19.844  0.00  0.00    +0.000 HD
ENDBRANCH   5  11
BRANCH   1  13
ATOM     13  C   UNL     1       3.611   7.210  17.513  0.00  0.00    +0.000 C 
BRANCH  13  14
ATOM     14  S   UNL     1       2.683   7.067  19.079  0.00  0.00    +0.000 S 
BRANCH  14  18
ATOM     15  C   UNL     1       1.423   2.656  18.909  0.00  0.00    +0.000 A 
ATOM     16  C   UNL     1       1.588   3.399  17.748  0.00  0.00    +0.000 A 
ATOM     17  C   UNL     1       1.950   4.746  17.845  0.00  0.00    +0.000 A 
ATOM     18  C   UNL     1       2.144   5.360  19.092  0.00  0.00    +0.000 A 
ATOM     19  C   UNL     1       1.979   4.591  20.247  0.00  0.00    +0.000 A 
ATOM     20  C   UNL     1       1.616   3.241  20.156  0.00  0.00    +0.000 A 
BRANCH  15  21
ATOM     21  O   UNL     1       1.082   1.337  18.867  0.00  0.00    +0.000 OA
ATOM     22  H   UNL     1       1.641   0.890  18.209  0.00  0.00    +0.000 HD
ENDBRANCH  15  21
ENDBRANCH  14  18
ENDBRANCH  13  14
ENDBRANCH   1  13
TORSDOF 7
ENDMDL
MODEL 2
REMARK VINA RESULT:      -6.8      0.278      1.968
REMARK  Name = 
REMARK  7 active torsions:
REMARK  status: ('A' for Active; 'I' for Inactive)
REMARK    1  A    between atoms: O_1  and  C_2
REMARK    2  A    between atoms: C_5  and  S_6
REMARK    3  A    between atoms: S_6  and  C_7
REMARK    4  A    between atoms: C_7  and  C_8
REMARK    5  A    between atoms: C_10  and  O_11
REMARK    6  A    between atoms: C_12  and  O_13
REMARK    7  A    between atoms: C_14  and  O_15
REMARK                            x       y       z     vdW  Elec       q    Type
REMARK                         _______ _______ _______ _____ _____    ______ ____
ROOT
ATOM      1  C   UNL     1       4.909   6.402  17.508  0.00  0.00    +0.000 A 
ATOM      2  C   UNL     1       5.573   6.212  18.738  0.00  0.00    +0.000 A 
ATOM      3  C   UNL     1       6.716   5.416  18.796  0.00  0.00    +0.000 A 
ATOM      4  C   UNL     1       7.210   4.813  17.645  0.00  0.00    +0.000 A 
ATOM      5  C   UNL     1       6.571   5.005  16.430  0.00  0.00    +0.000 A 
ATOM      6  C   UNL     1       5.430   5.795  16.349  0.00  0.00    +0.000 A 
ENDROOT
BRANCH   3   7
ATOM      7  O   UNL     1       7.391   5.193  19.964  0.00  0.00    +0.000 OA
ATOM      8  H   UNL     1       6.937   5.679  20.674  0.00  0.00    +0.000 HD
ENDBRANCH   3   7
BRANCH   4   9
ATOM      9  O   UNL     1       8.329   4.026  17.693  0.00  0.00    +0.000 OA
ATOM     10  H   UNL     1       8.401   3.659  16.788  0.00  0.00    +0.000 HD
ENDBRANCH   4   9
BRANCH   5  11
ATOM     11  O   UNL     1       7.061   4.415  15.300  0.00  0.00    +0.000 OA
ATOM     12  H   UNL     1       6.455   3.664  15.134  0.00  0.00    +0.000 HD
ENDBRANCH   5  11
BRANCH   1  13
ATOM     13  C   UNL     1       3.668   7.264  17.416  0.00  0.00    +0.000 C 
BRANCH  13  14
ATOM     14  S   UNL     1       2.649   7.111  18.924  0.00  0.00    +0.000 S 
BRANCH  14  18
ATOM     15  C   UNL     1       1.835   2.593  18.940  0.00  0.00    +0.000 A 
ATOM     16  C   UNL     1       1.607   3.357  17.804  0.00  0.00    +0.000 A 
ATOM     17  C   UNL     1       1.846   4.734  17.848  0.00  0.00    +0.000 A 
ATOM     18  C   UNL     1       2.306   5.357  19.020  0.00  0.00    +0.000 A 
ATOM     19  C   UNL     1       2.534   4.565  20.149  0.00  0.00    +0.000 A 
ATOM     20  C   UNL     1       2.296   3.186  20.110  0.00  0.00    +0.000 A 
BRANCH  15  21
ATOM     21  O   UNL     1       1.628   1.245  18.944  0.00  0.00    +0.000 OA
ATOM     22  H   UNL     1       1.074   1.017  19.709  0.00  0.00    +0.000 HD
ENDBRANCH  15  21
ENDBRANCH  14  18
ENDBRANCH  13  14
ENDBRANCH   1  13
TORSDOF 7
ENDMDL
MODEL 3
REMARK VINA RESULT:      -6.8      0.135      1.141
REMARK  Name = 
REMARK  7 active torsions:
REMARK  status: ('A' for Active; 'I' for Inactive)
REMARK    1  A    between atoms: O_1  and  C_2
REMARK    2  A    between atoms: C_5  and  S_6
REMARK    3  A    between atoms: S_6  and  C_7
REMARK    4  A    between atoms: C_7  and  C_8
REMARK    5  A    between atoms: C_10  and  O_11
REMARK    6  A    between atoms: C_12  and  O_13
REMARK    7  A    between atoms: C_14  and  O_15
REMARK                            x       y       z     vdW  Elec       q    Type
REMARK                         _______ _______ _______ _____ _____    ______ ____
ROOT
ATOM      1  C   UNL     1       4.905   6.414  17.516  0.00  0.00    +0.000 A 
ATOM      2  C   UNL     1       5.410   5.812  16.345  0.00  0.00    +0.000 A 
ATOM      3  C   UNL     1       6.553   5.017  16.409  0.00  0.00    +0.000 A 
ATOM      4  C   UNL     1       7.195   4.808  17.624  0.00  0.00    +0.000 A 
ATOM      5  C   UNL     1       6.699   5.385  18.782  0.00  0.00    +0.000 A 
ATOM      6  C   UNL     1       5.560   6.181  18.741  0.00  0.00    +0.000 A 
ENDROOT
BRANCH   3   7
ATOM      7  O   UNL     1       7.087   4.417  15.302  0.00  0.00    +0.000 OA
ATOM      8  H   UNL     1       6.373   4.283  14.655  0.00  0.00    +0.000 HD
ENDBRANCH   3   7
BRANCH   4   9
ATOM      9  O   UNL     1       8.320   4.031  17.696  0.00  0.00    +0.000 OA
ATOM     10  H   UNL     1       8.101   3.243  17.158  0.00  0.00    +0.000 HD
ENDBRANCH   4   9
BRANCH   5  11
ATOM     11  O   UNL     1       7.329   5.174  19.975  0.00  0.00    +0.000 OA
ATOM     12  H   UNL     1       7.052   5.929  20.534  0.00  0.00    +0.000 HD
ENDBRANCH   5  11
BRANCH   1  13
ATOM     13  C   UNL     1       3.664   7.280  17.476  0.00  0.00    +0.000 C 
BRANCH  13  14
ATOM     14  S   UNL     1       2.641   7.031  18.967  0.00  0.00    +0.000 S 
BRANCH  14  18
ATOM     15  C   UNL     1       1.524   2.579  19.054  0.00  0.00    +0.000 A 
ATOM     16  C   UNL     1       1.756   3.282  20.228  0.00  0.00    +0.000 A 
ATOM     17  C   UNL     1       2.117   4.631  20.157  0.00  0.00    +0.000 A 
ATOM     18  C   UNL     1       2.253   5.284  18.922  0.00  0.00    +0.000 A 
ATOM     19  C   UNL     1       2.008   4.558  17.753  0.00  0.00    +0.000 A 
ATOM     20  C   UNL     1       1.647   3.206  17.819  0.00  0.00    +0.000 A 
BRANCH  15  21
ATOM     21  O   UNL     1       1.158   1.266  19.071  0.00  0.00    +0.000 OA
ATOM     22  H   UNL     1       1.459   0.847  18.247  0.00  0.00    +0.000 HD
ENDBRANCH  15  21
ENDBRANCH  14  18
ENDBRANCH  13  14
ENDBRANCH   1  13
TORSDOF 7
ENDMDL
MODEL 4
REMARK VINA RESULT:      -6.8      2.614      6.081
REMARK  Name = 
REMARK  7 active torsions:
REMARK  status: ('A' for Active; 'I' for Inactive)
REMARK    1  A    between atoms: O_1  and  C_2
REMARK    2  A    between atoms: C_5  and  S_6
REMARK    3  A    between atoms: S_6  and  C_7
REMARK    4  A    between atoms: C_7  and  C_8
REMARK    5  A    between atoms: C_10  and  O_11
REMARK    6  A    between atoms: C_12  and  O_13
REMARK    7  A    between atoms: C_14  and  O_15
REMARK                            x       y       z     vdW  Elec       q    Type
REMARK                         _______ _______ _______ _____ _____    ______ ____
ROOT
ATOM      1  C   UNL     1       3.446   3.686  18.209  0.00  0.00    +0.000 A 
ATOM      2  C   UNL     1       4.392   2.951  18.952  0.00  0.00    +0.000 A 
ATOM      3  C   UNL     1       4.085   2.525  20.243  0.00  0.00    +0.000 A 
ATOM      4  C   UNL     1       2.845   2.816  20.802  0.00  0.00    +0.000 A 
ATOM      5  C   UNL     1       1.905   3.528  20.074  0.00  0.00    +0.000 A 
ATOM      6  C   UNL     1       2.190   3.962  18.785  0.00  0.00    +0.000 A 
ENDROOT
BRANCH   3   7
ATOM      7  O   UNL     1       4.970   1.816  21.007  0.00  0.00    +0.000 OA
ATOM      8  H   UNL     1       5.778   2.347  21.109  0.00  0.00    +0.000 HD
ENDBRANCH   3   7
BRANCH   4   9
ATOM      9  O   UNL     1       2.536   2.406  22.070  0.00  0.00    +0.000 OA
ATOM     10  H   UNL     1       3.314   1.881  22.348  0.00  0.00    +0.000 HD
ENDBRANCH   4   9
BRANCH   5  11
ATOM     11  O   UNL     1       0.686   3.809  20.623  0.00  0.00    +0.000 OA
ATOM     12  H   UNL     1       0.297   4.478  20.023  0.00  0.00    +0.000 HD
ENDBRANCH   5  11
BRANCH   1  13
ATOM     13  C   UNL     1       3.753   4.158  16.804  0.00  0.00    +0.000 C 
BRANCH  13  14
ATOM     14  S   UNL     1       5.495   3.829  16.367  0.00  0.00    +0.000 S 
BRANCH  14  18
ATOM     15  C   UNL     1       7.952   7.136  18.392  0.00  0.00    +0.000 A 
ATOM     16  C   UNL     1       8.035   5.819  18.820  0.00  0.00    +0.000 A 
ATOM     17  C   UNL     1       7.252   4.845  18.191  0.00  0.00    +0.000 A 
ATOM     18  C   UNL     1       6.382   5.177  17.141  0.00  0.00    +0.000 A 
ATOM     19  C   UNL     1       6.321   6.510  16.722  0.00  0.00    +0.000 A 
ATOM     20  C   UNL     1       7.102   7.488  17.349  0.00  0.00    +0.000 A 
BRANCH  15  21
ATOM     21  O   UNL     1       8.703   8.119  18.964  0.00  0.00    +0.000 OA
ATOM     22  H   UNL     1       8.200   8.509  19.699  0.00  0.00    +0.000 HD
ENDBRANCH  15  21
ENDBRANCH  14  18
ENDBRANCH  13  14
ENDBRANCH   1  13
TORSDOF 7
ENDMDL
MODEL 5
REMARK VINA RESULT:      -6.7      2.157      2.579
REMARK  Name = 
REMARK  7 active torsions:
REMARK  status: ('A' for Active; 'I' for Inactive)
REMARK    1  A    between atoms: O_1  and  C_2
REMARK    2  A    between atoms: C_5  and  S_6
REMARK    3  A    between atoms: S_6  and  C_7
REMARK    4  A    between atoms: C_7  and  C_8
REMARK    5  A    between atoms: C_10  and  O_11
REMARK    6  A    between atoms: C_12  and  O_13
REMARK    7  A    between atoms: C_14  and  O_15
REMARK                            x       y       z     vdW  Elec       q    Type
REMARK                         _______ _______ _______ _____ _____    ______ ____
ROOT
ATOM      1  C   UNL     1       6.023   4.886  17.674  0.00  0.00    +0.000 A 
ATOM      2  C   UNL     1       6.318   6.058  16.949  0.00  0.00    +0.000 A 
ATOM      3  C   UNL     1       7.229   6.982  17.459  0.00  0.00    +0.000 A 
ATOM      4  C   UNL     1       7.855   6.749  18.679  0.00  0.00    +0.000 A 
ATOM      5  C   UNL     1       7.580   5.593  19.392  0.00  0.00    +0.000 A 
ATOM      6  C   UNL     1       6.676   4.659  18.902  0.00  0.00    +0.000 A 
ENDROOT
BRANCH   3   7
ATOM      7  O   UNL     1       7.544   8.137  16.799  0.00  0.00    +0.000 OA
ATOM      8  H   UNL     1       7.543   7.952  15.845  0.00  0.00    +0.000 HD
ENDBRANCH   3   7
BRANCH   4   9
ATOM      9  O   UNL     1       8.748   7.652  19.190  0.00  0.00    +0.000 OA
ATOM     10  H   UNL     1       9.367   7.104  19.715  0.00  0.00    +0.000 HD
ENDBRANCH   4   9
BRANCH   5  11
ATOM     11  O   UNL     1       8.200   5.365  20.588  0.00  0.00    +0.000 OA
ATOM     12  H   UNL     1       8.563   6.238  20.844  0.00  0.00    +0.000 HD
ENDBRANCH   5  11
BRANCH   1  13
ATOM     13  C   UNL     1       5.041   3.865  17.142  0.00  0.00    +0.000 C 
BRANCH  13  14
ATOM     14  S   UNL     1       3.324   4.470  17.283  0.00  0.00    +0.000 S 
BRANCH  14  18
ATOM     15  C   UNL     1       1.755   2.938  21.316  0.00  0.00    +0.000 A 
ATOM     16  C   UNL     1       1.009   3.819  20.547  0.00  0.00    +0.000 A 
ATOM     17  C   UNL     1       1.533   4.280  19.335  0.00  0.00    +0.000 A 
ATOM     18  C   UNL     1       2.800   3.872  18.887  0.00  0.00    +0.000 A 
ATOM     19  C   UNL     1       3.530   2.979  19.676  0.00  0.00    +0.000 A 
ATOM     20  C   UNL     1       3.010   2.515  20.891  0.00  0.00    +0.000 A 
BRANCH  15  21
ATOM     21  O   UNL     1       1.283   2.451  22.499  0.00  0.00    +0.000 OA
ATOM     22  H   UNL     1       1.830   2.801  23.222  0.00  0.00    +0.000 HD
ENDBRANCH  15  21
ENDBRANCH  14  18
ENDBRANCH  13  14
ENDBRANCH   1  13
TORSDOF 7
ENDMDL
MODEL 6
REMARK VINA RESULT:      -6.7      2.608      6.058
REMARK  Name = 
REMARK  7 active torsions:
REMARK  status: ('A' for Active; 'I' for Inactive)
REMARK    1  A    between atoms: O_1  and  C_2
REMARK    2  A    between atoms: C_5  and  S_6
REMARK    3  A    between atoms: S_6  and  C_7
REMARK    4  A    between atoms: C_7  and  C_8
REMARK    5  A    between atoms: C_10  and  O_11
REMARK    6  A    between atoms: C_12  and  O_13
REMARK    7  A    between atoms: C_14  and  O_15
REMARK                            x       y       z     vdW  Elec       q    Type
REMARK                         _______ _______ _______ _____ _____    ______ ____
ROOT
ATOM      1  C   UNL     1       3.408   3.666  18.217  0.00  0.00    +0.000 A 
ATOM      2  C   UNL     1       2.165   3.958  18.815  0.00  0.00    +0.000 A 
ATOM      3  C   UNL     1       1.895   3.515  20.110  0.00  0.00    +0.000 A 
ATOM      4  C   UNL     1       2.849   2.792  20.817  0.00  0.00    +0.000 A 
ATOM      5  C   UNL     1       4.078   2.512  20.240  0.00  0.00    +0.000 A 
ATOM      6  C   UNL     1       4.368   2.944  18.952  0.00  0.00    +0.000 A 
ENDROOT
BRANCH   3   7
ATOM      7  O   UNL     1       0.703   3.765  20.732  0.00  0.00    +0.000 OA
ATOM      8  H   UNL     1       0.168   2.954  20.701  0.00  0.00    +0.000 HD
ENDBRANCH   3   7
BRANCH   4   9
ATOM      9  O   UNL     1       2.592   2.350  22.087  0.00  0.00    +0.000 OA
ATOM     10  H   UNL     1       1.616   2.277  22.121  0.00  0.00    +0.000 HD
ENDBRANCH   4   9
BRANCH   5  11
ATOM     11  O   UNL     1       5.015   1.805  20.940  0.00  0.00    +0.000 OA
ATOM     12  H   UNL     1       4.495   1.284  21.585  0.00  0.00    +0.000 HD
ENDBRANCH   5  11
BRANCH   1  13
ATOM     13  C   UNL     1       3.728   4.137  16.814  0.00  0.00    +0.000 C 
BRANCH  13  14
ATOM     14  S   UNL     1       5.469   3.792  16.387  0.00  0.00    +0.000 S 
BRANCH  14  18
ATOM     15  C   UNL     1       7.938   7.104  18.390  0.00  0.00    +0.000 A 
ATOM     16  C   UNL     1       7.999   5.794  18.843  0.00  0.00    +0.000 A 
ATOM     17  C   UNL     1       7.213   4.819  18.219  0.00  0.00    +0.000 A 
ATOM     18  C   UNL     1       6.362   5.143  17.151  0.00  0.00    +0.000 A 
ATOM     19  C   UNL     1       6.323   6.469  16.709  0.00  0.00    +0.000 A 
ATOM     20  C   UNL     1       7.107   7.449  17.330  0.00  0.00    +0.000 A 
BRANCH  15  21
ATOM     21  O   UNL     1       8.693   8.088  18.957  0.00  0.00    +0.000 OA
ATOM     22  H   UNL     1       8.793   8.813  18.317  0.00  0.00    +0.000 HD
ENDBRANCH  15  21
ENDBRANCH  14  18
ENDBRANCH  13  14
ENDBRANCH   1  13
TORSDOF 7
ENDMDL
MODEL 7
REMARK VINA RESULT:      -6.7      1.952      2.780
REMARK  Name = 
REMARK  7 active torsions:
REMARK  status: ('A' for Active; 'I' for Inactive)
REMARK    1  A    between atoms: O_1  and  C_2
REMARK    2  A    between atoms: C_5  and  S_6
REMARK    3  A    between atoms: S_6  and  C_7
REMARK    4  A    between atoms: C_7  and  C_8
REMARK    5  A    between atoms: C_10  and  O_11
REMARK    6  A    between atoms: C_12  and  O_13
REMARK    7  A    between atoms: C_14  and  O_15
REMARK                            x       y       z     vdW  Elec       q    Type
REMARK                         _______ _______ _______ _____ _____    ______ ____
ROOT
ATOM      1  C   UNL     1       5.431   5.323  17.729  0.00  0.00    +0.000 A 
ATOM      2  C   UNL     1       6.063   4.919  18.923  0.00  0.00    +0.000 A 
ATOM      3  C   UNL     1       7.182   5.610  19.387  0.00  0.00    +0.000 A 
ATOM      4  C   UNL     1       7.674   6.702  18.682  0.00  0.00    +0.000 A 
ATOM      5  C   UNL     1       7.051   7.114  17.514  0.00  0.00    +0.000 A 
ATOM      6  C   UNL     1       5.935   6.439  17.034  0.00  0.00    +0.000 A 
ENDROOT
BRANCH   3   7
ATOM      7  O   UNL     1       7.835   5.255  20.535  0.00  0.00    +0.000 OA
ATOM      8  H   UNL     1       7.700   4.302  20.678  0.00  0.00    +0.000 HD
ENDBRANCH   3   7
BRANCH   4   9
ATOM      9  O   UNL     1       8.773   7.385  19.127  0.00  0.00    +0.000 OA
ATOM     10  H   UNL     1       8.840   7.140  20.073  0.00  0.00    +0.000 HD
ENDBRANCH   4   9
BRANCH   5  11
ATOM     11  O   UNL     1       7.534   8.190  16.825  0.00  0.00    +0.000 OA
ATOM     12  H   UNL     1       6.854   8.884  16.950  0.00  0.00    +0.000 HD
ENDBRANCH   5  11
BRANCH   1  13
ATOM     13  C   UNL     1       4.214   4.592  17.205  0.00  0.00    +0.000 C 
BRANCH  13  14
ATOM     14  S   UNL     1       2.674   5.416  17.737  0.00  0.00    +0.000 S 
BRANCH  14  18
ATOM     15  C   UNL     1       1.475   2.899  21.385  0.00  0.00    +0.000 A 
ATOM     16  C   UNL     1       1.042   2.563  20.110  0.00  0.00    +0.000 A 
ATOM     17  C   UNL     1       1.411   3.370  19.029  0.00  0.00    +0.000 A 
ATOM     18  C   UNL     1       2.205   4.513  19.210  0.00  0.00    +0.000 A 
ATOM     19  C   UNL     1       2.635   4.827  20.503  0.00  0.00    +0.000 A 
ATOM     20  C   UNL     1       2.267   4.023  21.589  0.00  0.00    +0.000 A 
BRANCH  15  21
ATOM     21  O   UNL     1       1.152   2.139  22.470  0.00  0.00    +0.000 OA
ATOM     22  H   UNL     1       1.870   2.204  23.122  0.00  0.00    +0.000 HD
ENDBRANCH  15  21
ENDBRANCH  14  18
ENDBRANCH  13  14
ENDBRANCH   1  13
TORSDOF 7
ENDMDL
MODEL 8
REMARK VINA RESULT:      -6.7      2.600      6.067
REMARK  Name = 
REMARK  7 active torsions:
REMARK  status: ('A' for Active; 'I' for Inactive)
REMARK    1  A    between atoms: O_1  and  C_2
REMARK    2  A    between atoms: C_5  and  S_6
REMARK    3  A    between atoms: S_6  and  C_7
REMARK    4  A    between atoms: C_7  and  C_8
REMARK    5  A    between atoms: C_10  and  O_11
REMARK    6  A    between atoms: C_12  and  O_13
REMARK    7  A    between atoms: C_14  and  O_15
REMARK                            x       y       z     vdW  Elec       q    Type
REMARK                         _______ _______ _______ _____ _____    ______ ____
ROOT
ATOM      1  C   UNL     1       3.386   3.832  18.270  0.00  0.00    +0.000 A 
ATOM      2  C   UNL     1       4.326   3.125  19.047  0.00  0.00    +0.000 A 
ATOM      3  C   UNL     1       3.957   2.611  20.290  0.00  0.00    +0.000 A 
ATOM      4  C   UNL     1       2.662   2.786  20.764  0.00  0.00    +0.000 A 
ATOM      5  C   UNL     1       1.728   3.468  20.001  0.00  0.00    +0.000 A 
ATOM      6  C   UNL     1       2.075   3.989  18.760  0.00  0.00    +0.000 A 
ENDROOT
BRANCH   3   7
ATOM      7  O   UNL     1       4.833   1.925  21.085  0.00  0.00    +0.000 OA
ATOM      8  H   UNL     1       5.384   1.363  20.515  0.00  0.00    +0.000 HD
ENDBRANCH   3   7
BRANCH   4   9
ATOM      9  O   UNL     1       2.291   2.288  21.984  0.00  0.00    +0.000 OA
ATOM     10  H   UNL     1       2.042   1.360  21.798  0.00  0.00    +0.000 HD
ENDBRANCH   4   9
BRANCH   5  11
ATOM     11  O   UNL     1       0.455   3.634  20.468  0.00  0.00    +0.000 OA
ATOM     12  H   UNL     1       0.215   2.759  20.836  0.00  0.00    +0.000 HD
ENDBRANCH   5  11
BRANCH   1  13
ATOM     13  C   UNL     1       3.760   4.398  16.917  0.00  0.00    +0.000 C 
BRANCH  13  14
ATOM     14  S   UNL     1       5.441   3.878  16.430  0.00  0.00    +0.000 S 
BRANCH  14  18
ATOM     15  C   UNL     1       7.976   7.176  18.374  0.00  0.00    +0.000 A 
ATOM     16  C   UNL     1       7.125   7.458  17.314  0.00  0.00    +0.000 A 
ATOM     17  C   UNL     1       6.387   6.420  16.735  0.00  0.00    +0.000 A 
ATOM     18  C   UNL     1       6.497   5.100  17.202  0.00  0.00    +0.000 A 
ATOM     19  C   UNL     1       7.355   4.842  18.274  0.00  0.00    +0.000 A 
ATOM     20  C   UNL     1       8.096   5.877  18.857  0.00  0.00    +0.000 A 
BRANCH  15  21
ATOM     21  O   UNL     1       8.707   8.154  18.979  0.00  0.00    +0.000 OA
ATOM     22  H   UNL     1       9.463   8.376  18.411  0.00  0.00    +0.000 HD
ENDBRANCH  15  21
ENDBRANCH  14  18
ENDBRANCH  13  14
ENDBRANCH   1  13
TORSDOF 7
ENDMDL
MODEL 9
REMARK VINA RESULT:      -6.7      2.640      6.021
REMARK  Name = 
REMARK  7 active torsions:
REMARK  status: ('A' for Active; 'I' for Inactive)
REMARK    1  A    between atoms: O_1  and  C_2
REMARK    2  A    between atoms: C_5  and  S_6
REMARK    3  A    between atoms: S_6  and  C_7
REMARK    4  A    between atoms: C_7  and  C_8
REMARK    5  A    between atoms: C_10  and  O_11
REMARK    6  A    between atoms: C_12  and  O_13
REMARK    7  A    between atoms: C_14  and  O_15
REMARK                            x       y       z     vdW  Elec       q    Type
REMARK                         _______ _______ _______ _____ _____    ______ ____
ROOT
ATOM      1  C   UNL     1       3.457   3.819  18.209  0.00  0.00    +0.000 A 
ATOM      2  C   UNL     1       2.167   4.061  18.723  0.00  0.00    +0.000 A 
ATOM      3  C   UNL     1       1.812   3.561  19.975  0.00  0.00    +0.000 A 
ATOM      4  C   UNL     1       2.727   2.830  20.724  0.00  0.00    +0.000 A 
ATOM      5  C   UNL     1       4.002   2.599  20.231  0.00  0.00    +0.000 A 
ATOM      6  C   UNL     1       4.377   3.088  18.986  0.00  0.00    +0.000 A 
ENDROOT
BRANCH   3   7
ATOM      7  O   UNL     1       0.571   3.761  20.515  0.00  0.00    +0.000 OA
ATOM      8  H   UNL     1       0.679   4.240  21.355  0.00  0.00    +0.000 HD
ENDBRANCH   3   7
BRANCH   4   9
ATOM      9  O   UNL     1       2.387   2.333  21.953  0.00  0.00    +0.000 OA
ATOM     10  H   UNL     1       2.000   1.455  21.756  0.00  0.00    +0.000 HD
ENDBRANCH   4   9
BRANCH   5  11
ATOM     11  O   UNL     1       4.901   1.885  20.971  0.00  0.00    +0.000 OA
ATOM     12  H   UNL     1       5.768   2.090  20.565  0.00  0.00    +0.000 HD
ENDBRANCH   5  11
BRANCH   1  13
ATOM     13  C   UNL     1       3.869   4.353  16.853  0.00  0.00    +0.000 C 
BRANCH  13  14
ATOM     14  S   UNL     1       5.571   3.838  16.435  0.00  0.00    +0.000 S 
BRANCH  14  18
ATOM     15  C   UNL     1       8.015   7.190  18.402  0.00  0.00    +0.000 A 
ATOM     16  C   UNL     1       7.235   7.436  17.280  0.00  0.00    +0.000 A 
ATOM     17  C   UNL     1       6.524   6.382  16.698  0.00  0.00    +0.000 A 
ATOM     18  C   UNL     1       6.589   5.082  17.223  0.00  0.00    +0.000 A 
ATOM     19  C   UNL     1       7.376   4.860  18.357  0.00  0.00    +0.000 A 
ATOM     20  C   UNL     1       8.091   5.912  18.943  0.00  0.00    +0.000 A 
BRANCH  15  21
ATOM     21  O   UNL     1       8.717   8.186  19.012  0.00  0.00    +0.000 OA
ATOM     22  H   UNL     1       9.254   8.645  18.344  0.00  0.00    +0.000 HD
ENDBRANCH  15  21
ENDBRANCH  14  18
ENDBRANCH  13  14
ENDBRANCH   1  13
TORSDOF 7
ENDMDL
