MODEL 1
REMARK VINA RESULT:      -9.7      0.000      0.000
REMARK  Name = 
REMARK  7 active torsions:
REMARK  status: ('A' for Active; 'I' for Inactive)
REMARK    1  A    between atoms: C_1  and  C_2
REMARK    2  A    between atoms: C_3  and  C_4
REMARK    3  A    between atoms: C_8  and  C_9
REMARK    4  A    between atoms: C_9  and  C_10
REMARK    5  A    between atoms: C_13  and  O_14
REMARK    6  A    between atoms: O_14  and  C_15
REMARK    7  A    between atoms: N_23  and  C_24
REMARK                            x       y       z     vdW  Elec       q    Type
REMARK                         _______ _______ _______ _____ _____    ______ ____
ROOT
ATOM      1  C   UNL     1       2.853   4.991  19.037  0.00  0.00    +0.000 C 
ATOM      2  N   UNL     1       2.955   4.481  20.457  0.00  0.00    +0.000 NA
ATOM      3  C   UNL     1       2.078   3.539  20.572  0.00  0.00    +0.000 C 
ATOM      4  N   UNL     1       1.833   2.934  21.761  0.00  0.00    +0.000 N 
ATOM      5  N   UNL     1       1.396   3.209  19.465  0.00  0.00    +0.000 N 
ATOM      6  C   UNL     1       0.615   2.017  19.218  0.00  0.00    +0.000 C 
ATOM      7  C   UNL     1       1.725   4.090  18.473  0.00  0.00    +0.000 C 
ATOM      8  O   UNL     1       1.230   4.102  17.354  0.00  0.00    +0.000 OA
ATOM      9  H   UNL     1       2.177   3.491  22.538  0.00  0.00    +0.000 HD
ATOM     10  H   UNL     1       0.874   2.645  21.911  0.00  0.00    +0.000 HD
ENDROOT
BRANCH   1  15
ATOM     11  C   UNL     1       1.497   8.470  20.047  0.00  0.00    +0.000 A 
ATOM     12  C   UNL     1       1.646   9.165  18.844  0.00  0.00    +0.000 A 
ATOM     13  C   UNL     1       2.256   8.555  17.757  0.00  0.00    +0.000 A 
ATOM     14  C   UNL     1       2.707   7.242  17.870  0.00  0.00    +0.000 A 
ATOM     15  C   UNL     1       2.557   6.507  19.070  0.00  0.00    +0.000 A 
ATOM     16  C   UNL     1       1.948   7.150  20.164  0.00  0.00    +0.000 A 
BRANCH  11  19
ATOM     17  C   UNL     1      -0.586  10.055  23.177  0.00  0.00    +0.000 C 
ATOM     18  C   UNL     1       0.229   9.594  22.054  0.00  0.00    +0.000 C 
ATOM     19  C   UNL     1       0.848   9.141  21.132  0.00  0.00    +0.000 C 
ENDBRANCH  11  19
ENDBRANCH   1  15
BRANCH   1  20
ATOM     20  C   UNL     1       4.161   4.810  18.231  0.00  0.00    +0.000 A 
ATOM     21  C   UNL     1       5.245   5.688  18.380  0.00  0.00    +0.000 A 
ATOM     22  C   UNL     1       6.298   5.679  17.456  0.00  0.00    +0.000 A 
ATOM     23  C   UNL     1       6.303   4.786  16.382  0.00  0.00    +0.000 A 
ATOM     24  C   UNL     1       5.251   3.886  16.242  0.00  0.00    +0.000 A 
ATOM     25  C   UNL     1       4.201   3.895  17.160  0.00  0.00    +0.000 A 
BRANCH  23  26
ATOM     26  O   UNL     1       7.349   4.915  15.512  0.00  0.00    +0.000 OA
BRANCH  26  27
ATOM     27  C   UNL     1       6.997   4.965  14.139  0.00  0.00    +0.000 C 
ATOM     28  F   UNL     1       8.044   5.441  13.420  0.00  0.00    +0.000 F 
ATOM     29  F   UNL     1       6.792   3.689  13.725  0.00  0.00    +0.000 F 
ENDBRANCH  26  27
ENDBRANCH  23  26
ENDBRANCH   1  20
TORSDOF 5
ENDMDL
MODEL 2
REMARK VINA RESULT:      -9.7      0.623      1.109
REMARK  Name = 
REMARK  7 active torsions:
REMARK  status: ('A' for Active; 'I' for Inactive)
REMARK    1  A    between atoms: C_1  and  C_2
REMARK    2  A    between atoms: C_3  and  C_4
REMARK    3  A    between atoms: C_8  and  C_9
REMARK    4  A    between atoms: C_9  and  C_10
REMARK    5  A    between atoms: C_13  and  O_14
REMARK    6  A    between atoms: O_14  and  C_15
REMARK    7  A    between atoms: N_23  and  C_24
REMARK                            x       y       z     vdW  Elec       q    Type
REMARK                         _______ _______ _______ _____ _____    ______ ____
ROOT
ATOM      1  C   UNL     1       2.979   5.268  18.542  0.00  0.00    +0.000 C 
ATOM      2  N   UNL     1       3.460   4.681  19.849  0.00  0.00    +0.000 NA
ATOM      3  C   UNL     1       2.721   3.645  20.080  0.00  0.00    +0.000 C 
ATOM      4  N   UNL     1       2.819   2.941  21.235  0.00  0.00    +0.000 N 
ATOM      5  N   UNL     1       1.827   3.318  19.135  0.00  0.00    +0.000 N 
ATOM      6  C   UNL     1       1.117   2.069  18.970  0.00  0.00    +0.000 C 
ATOM      7  C   UNL     1       1.833   4.292  18.176  0.00  0.00    +0.000 C 
ATOM      8  O   UNL     1       1.087   4.325  17.206  0.00  0.00    +0.000 OA
ATOM      9  H   UNL     1       3.288   3.479  21.958  0.00  0.00    +0.000 HD
ATOM     10  H   UNL     1       1.953   2.543  21.576  0.00  0.00    +0.000 HD
ENDROOT
BRANCH   1  15
ATOM     11  C   UNL     1       1.489   8.488  20.082  0.00  0.00    +0.000 A 
ATOM     12  C   UNL     1       1.423   9.309  18.953  0.00  0.00    +0.000 A 
ATOM     13  C   UNL     1       1.934   8.868  17.740  0.00  0.00    +0.000 A 
ATOM     14  C   UNL     1       2.501   7.599  17.654  0.00  0.00    +0.000 A 
ATOM     15  C   UNL     1       2.569   6.739  18.775  0.00  0.00    +0.000 A 
ATOM     16  C   UNL     1       2.057   7.211  19.999  0.00  0.00    +0.000 A 
BRANCH  11  19
ATOM     17  C   UNL     1      -0.455   9.807  23.419  0.00  0.00    +0.000 C 
ATOM     18  C   UNL     1       0.350   9.367  22.280  0.00  0.00    +0.000 C 
ATOM     19  C   UNL     1       0.934   8.985  21.304  0.00  0.00    +0.000 C 
ENDBRANCH  11  19
ENDBRANCH   1  15
BRANCH   1  20
ATOM     20  C   UNL     1       4.069   5.279  17.444  0.00  0.00    +0.000 A 
ATOM     21  C   UNL     1       4.236   4.202  16.561  0.00  0.00    +0.000 A 
ATOM     22  C   UNL     1       5.388   4.106  15.768  0.00  0.00    +0.000 A 
ATOM     23  C   UNL     1       6.381   5.087  15.823  0.00  0.00    +0.000 A 
ATOM     24  C   UNL     1       6.211   6.178  16.669  0.00  0.00    +0.000 A 
ATOM     25  C   UNL     1       5.066   6.275  17.460  0.00  0.00    +0.000 A 
BRANCH  23  26
ATOM     26  O   UNL     1       7.486   4.852  15.054  0.00  0.00    +0.000 OA
BRANCH  26  27
ATOM     27  C   UNL     1       7.351   5.176  13.679  0.00  0.00    +0.000 C 
ATOM     28  F   UNL     1       8.552   5.569  13.186  0.00  0.00    +0.000 F 
ATOM     29  F   UNL     1       7.020   4.035  13.024  0.00  0.00    +0.000 F 
ENDBRANCH  26  27
ENDBRANCH  23  26
ENDBRANCH   1  20
TORSDOF 5
ENDMDL
MODEL 3
REMARK VINA RESULT:      -9.3      3.826      7.212
REMARK  Name = 
REMARK  7 active torsions:
REMARK  status: ('A' for Active; 'I' for Inactive)
REMARK    1  A    between atoms: C_1  and  C_2
REMARK    2  A    between atoms: C_3  and  C_4
REMARK    3  A    between atoms: C_8  and  C_9
REMARK    4  A    between atoms: C_9  and  C_10
REMARK    5  A    between atoms: C_13  and  O_14
REMARK    6  A    between atoms: O_14  and  C_15
REMARK    7  A    between atoms: N_23  and  C_24
REMARK                            x       y       z     vdW  Elec       q    Type
REMARK                         _______ _______ _______ _____ _____    ______ ____
ROOT
ATOM      1  C   UNL     1       4.093   4.721  18.000  0.00  0.00    +0.000 C 
ATOM      2  N   UNL     1       3.043   3.726  17.559  0.00  0.00    +0.000 NA
ATOM      3  C   UNL     1       3.117   2.728  18.377  0.00  0.00    +0.000 C 
ATOM      4  N   UNL     1       2.377   1.605  18.201  0.00  0.00    +0.000 N 
ATOM      5  N   UNL     1       3.986   2.842  19.393  0.00  0.00    +0.000 N 
ATOM      6  C   UNL     1       4.050   2.058  20.606  0.00  0.00    +0.000 C 
ATOM      7  C   UNL     1       4.707   3.991  19.220  0.00  0.00    +0.000 C 
ATOM      8  O   UNL     1       5.626   4.355  19.942  0.00  0.00    +0.000 OA
ATOM      9  H   UNL     1       2.026   1.538  17.250  0.00  0.00    +0.000 HD
ATOM     10  H   UNL     1       2.822   0.743  18.491  0.00  0.00    +0.000 HD
ENDROOT
BRANCH   1  15
ATOM     11  C   UNL     1       5.994   4.435  14.643  0.00  0.00    +0.000 A 
ATOM     12  C   UNL     1       7.117   5.221  14.914  0.00  0.00    +0.000 A 
ATOM     13  C   UNL     1       7.216   5.904  16.118  0.00  0.00    +0.000 A 
ATOM     14  C   UNL     1       6.195   5.791  17.057  0.00  0.00    +0.000 A 
ATOM     15  C   UNL     1       5.053   4.992  16.819  0.00  0.00    +0.000 A 
ATOM     16  C   UNL     1       4.966   4.318  15.586  0.00  0.00    +0.000 A 
BRANCH  11  19
ATOM     17  C   UNL     1       5.740   2.131  11.285  0.00  0.00    +0.000 C 
ATOM     18  C   UNL     1       5.869   3.052  12.414  0.00  0.00    +0.000 C 
ATOM     19  C   UNL     1       5.949   3.740  13.393  0.00  0.00    +0.000 C 
ENDBRANCH  11  19
ENDBRANCH   1  15
BRANCH   1  20
ATOM     20  C   UNL     1       3.499   6.088  18.413  0.00  0.00    +0.000 A 
ATOM     21  C   UNL     1       2.858   6.269  19.647  0.00  0.00    +0.000 A 
ATOM     22  C   UNL     1       2.090   7.417  19.887  0.00  0.00    +0.000 A 
ATOM     23  C   UNL     1       1.965   8.412  18.915  0.00  0.00    +0.000 A 
ATOM     24  C   UNL     1       2.624   8.261  17.699  0.00  0.00    +0.000 A 
ATOM     25  C   UNL     1       3.387   7.118  17.458  0.00  0.00    +0.000 A 
BRANCH  23  26
ATOM     26  O   UNL     1       1.139   9.453  19.238  0.00  0.00    +0.000 OA
BRANCH  26  27
ATOM     27  C   UNL     1       0.611   9.425  20.555  0.00  0.00    +0.000 C 
ATOM     28  F   UNL     1       1.212  10.382  21.304  0.00  0.00    +0.000 F 
ATOM     29  F   UNL     1      -0.700   9.765  20.472  0.00  0.00    +0.000 F 
ENDBRANCH  26  27
ENDBRANCH  23  26
ENDBRANCH   1  20
TORSDOF 5
ENDMDL
MODEL 4
REMARK VINA RESULT:      -9.2      3.602      7.055
REMARK  Name = 
REMARK  7 active torsions:
REMARK  status: ('A' for Active; 'I' for Inactive)
REMARK    1  A    between atoms: C_1  and  C_2
REMARK    2  A    between atoms: C_3  and  C_4
REMARK    3  A    between atoms: C_8  and  C_9
REMARK    4  A    between atoms: C_9  and  C_10
REMARK    5  A    between atoms: C_13  and  O_14
REMARK    6  A    between atoms: O_14  and  C_15
REMARK    7  A    between atoms: N_23  and  C_24
REMARK                            x       y       z     vdW  Elec       q    Type
REMARK                         _______ _______ _______ _____ _____    ______ ____
ROOT
ATOM      1  C   UNL     1       4.137   4.697  18.039  0.00  0.00    +0.000 C 
ATOM      2  N   UNL     1       3.090   3.688  17.623  0.00  0.00    +0.000 NA
ATOM      3  C   UNL     1       3.201   2.689  18.436  0.00  0.00    +0.000 C 
ATOM      4  N   UNL     1       2.473   1.555  18.276  0.00  0.00    +0.000 N 
ATOM      5  N   UNL     1       4.095   2.812  19.428  0.00  0.00    +0.000 N 
ATOM      6  C   UNL     1       4.204   2.026  20.637  0.00  0.00    +0.000 C 
ATOM      7  C   UNL     1       4.794   3.972  19.240  0.00  0.00    +0.000 C 
ATOM      8  O   UNL     1       5.727   4.348  19.938  0.00  0.00    +0.000 OA
ATOM      9  H   UNL     1       2.097   1.486  17.335  0.00  0.00    +0.000 HD
ATOM     10  H   UNL     1       2.938   0.699  18.551  0.00  0.00    +0.000 HD
ENDROOT
BRANCH   1  15
ATOM     11  C   UNL     1       5.950   4.449  14.631  0.00  0.00    +0.000 A 
ATOM     12  C   UNL     1       7.069   5.250  14.874  0.00  0.00    +0.000 A 
ATOM     13  C   UNL     1       7.191   5.931  16.078  0.00  0.00    +0.000 A 
ATOM     14  C   UNL     1       6.197   5.801  17.044  0.00  0.00    +0.000 A 
ATOM     15  C   UNL     1       5.060   4.986  16.834  0.00  0.00    +0.000 A 
ATOM     16  C   UNL     1       4.950   4.314  15.601  0.00  0.00    +0.000 A 
BRANCH  11  19
ATOM     17  C   UNL     1       5.736   2.135  11.277  0.00  0.00    +0.000 C 
ATOM     18  C   UNL     1       5.816   3.065  12.403  0.00  0.00    +0.000 C 
ATOM     19  C   UNL     1       5.881   3.757  13.380  0.00  0.00    +0.000 C 
ENDBRANCH  11  19
ENDBRANCH   1  15
BRANCH   1  20
ATOM     20  C   UNL     1       3.535   6.054  18.473  0.00  0.00    +0.000 A 
ATOM     21  C   UNL     1       2.835   6.196  19.681  0.00  0.00    +0.000 A 
ATOM     22  C   UNL     1       2.066   7.342  19.925  0.00  0.00    +0.000 A 
ATOM     23  C   UNL     1       1.996   8.373  18.985  0.00  0.00    +0.000 A 
ATOM     24  C   UNL     1       2.713   8.260  17.798  0.00  0.00    +0.000 A 
ATOM     25  C   UNL     1       3.478   7.119  17.553  0.00  0.00    +0.000 A 
BRANCH  23  26
ATOM     26  O   UNL     1       1.164   9.409  19.306  0.00  0.00    +0.000 OA
BRANCH  26  27
ATOM     27  C   UNL     1       0.643  10.135  18.204  0.00  0.00    +0.000 C 
ATOM     28  F   UNL     1      -0.290   9.384  17.567  0.00  0.00    +0.000 F 
ATOM     29  F   UNL     1      -0.008  11.216  18.703  0.00  0.00    +0.000 F 
ENDBRANCH  26  27
ENDBRANCH  23  26
ENDBRANCH   1  20
TORSDOF 5
ENDMDL
MODEL 5
REMARK VINA RESULT:      -9.0      3.711      6.959
REMARK  Name = 
REMARK  7 active torsions:
REMARK  status: ('A' for Active; 'I' for Inactive)
REMARK    1  A    between atoms: C_1  and  C_2
REMARK    2  A    between atoms: C_3  and  C_4
REMARK    3  A    between atoms: C_8  and  C_9
REMARK    4  A    between atoms: C_9  and  C_10
REMARK    5  A    between atoms: C_13  and  O_14
REMARK    6  A    between atoms: O_14  and  C_15
REMARK    7  A    between atoms: N_23  and  C_24
REMARK                            x       y       z     vdW  Elec       q    Type
REMARK                         _______ _______ _______ _____ _____    ______ ____
ROOT
ATOM      1  C   UNL     1       3.014   5.160  18.746  0.00  0.00    +0.000 C 
ATOM      2  N   UNL     1       2.014   4.377  17.925  0.00  0.00    +0.000 NA
ATOM      3  C   UNL     1       1.546   3.454  18.700  0.00  0.00    +0.000 C 
ATOM      4  N   UNL     1       0.696   2.501  18.242  0.00  0.00    +0.000 N 
ATOM      5  N   UNL     1       1.969   3.461  19.973  0.00  0.00    +0.000 N 
ATOM      6  C   UNL     1       1.391   2.780  21.110  0.00  0.00    +0.000 C 
ATOM      7  C   UNL     1       2.940   4.415  20.102  0.00  0.00    +0.000 C 
ATOM      8  O   UNL     1       3.574   4.634  21.126  0.00  0.00    +0.000 OA
ATOM      9  H   UNL     1       0.725   2.435  17.229  0.00  0.00    +0.000 HD
ATOM     10  H   UNL     1       0.792   1.590  18.674  0.00  0.00    +0.000 HD
ENDROOT
BRANCH   1  15
ATOM     11  C   UNL     1       5.824   4.484  16.175  0.00  0.00    +0.000 A 
ATOM     12  C   UNL     1       6.955   4.667  16.973  0.00  0.00    +0.000 A 
ATOM     13  C   UNL     1       6.819   5.092  18.288  0.00  0.00    +0.000 A 
ATOM     14  C   UNL     1       5.548   5.320  18.807  0.00  0.00    +0.000 A 
ATOM     15  C   UNL     1       4.383   5.128  18.029  0.00  0.00    +0.000 A 
ATOM     16  C   UNL     1       4.544   4.711  16.695  0.00  0.00    +0.000 A 
BRANCH  11  19
ATOM     17  C   UNL     1       6.033   3.375  12.253  0.00  0.00    +0.000 C 
ATOM     18  C   UNL     1       6.069   3.713  13.675  0.00  0.00    +0.000 C 
ATOM     19  C   UNL     1       6.019   4.031  14.831  0.00  0.00    +0.000 C 
ENDBRANCH  11  19
ENDBRANCH   1  15
BRANCH   1  20
ATOM     20  C   UNL     1       2.632   6.650  18.910  0.00  0.00    +0.000 A 
ATOM     21  C   UNL     1       2.017   7.128  20.077  0.00  0.00    +0.000 A 
ATOM     22  C   UNL     1       1.431   8.400  20.100  0.00  0.00    +0.000 A 
ATOM     23  C   UNL     1       1.465   9.227  18.974  0.00  0.00    +0.000 A 
ATOM     24  C   UNL     1       2.103   8.779  17.822  0.00  0.00    +0.000 A 
ATOM     25  C   UNL     1       2.685   7.511  17.796  0.00  0.00    +0.000 A 
BRANCH  23  26
ATOM     26  O   UNL     1       0.805  10.418  19.096  0.00  0.00    +0.000 OA
BRANCH  26  27
ATOM     27  C   UNL     1      -0.607  10.324  19.199  0.00  0.00    +0.000 C 
ATOM     28  F   UNL     1      -1.130  11.562  19.379  0.00  0.00    +0.000 F 
ATOM     29  F   UNL     1      -1.071   9.879  18.004  0.00  0.00    +0.000 F 
ENDBRANCH  26  27
ENDBRANCH  23  26
ENDBRANCH   1  20
TORSDOF 5
ENDMDL
MODEL 6
REMARK VINA RESULT:      -8.9      1.974      2.119
REMARK  Name = 
REMARK  7 active torsions:
REMARK  status: ('A' for Active; 'I' for Inactive)
REMARK    1  A    between atoms: C_1  and  C_2
REMARK    2  A    between atoms: C_3  and  C_4
REMARK    3  A    between atoms: C_8  and  C_9
REMARK    4  A    between atoms: C_9  and  C_10
REMARK    5  A    between atoms: C_13  and  O_14
REMARK    6  A    between atoms: O_14  and  C_15
REMARK    7  A    between atoms: N_23  and  C_24
REMARK                            x       y       z     vdW  Elec       q    Type
REMARK                         _______ _______ _______ _____ _____    ______ ____
ROOT
ATOM      1  C   UNL     1       2.698   5.578  19.235  0.00  0.00    +0.000 C 
ATOM      2  N   UNL     1       2.763   5.011  20.635  0.00  0.00    +0.000 NA
ATOM      3  C   UNL     1       2.024   3.949  20.636  0.00  0.00    +0.000 C 
ATOM      4  N   UNL     1       1.779   3.252  21.773  0.00  0.00    +0.000 N 
ATOM      5  N   UNL     1       1.484   3.588  19.463  0.00  0.00    +0.000 N 
ATOM      6  C   UNL     1       0.904   2.314  19.101  0.00  0.00    +0.000 C 
ATOM      7  C   UNL     1       1.758   4.560  18.541  0.00  0.00    +0.000 C 
ATOM      8  O   UNL     1       1.354   4.563  17.386  0.00  0.00    +0.000 OA
ATOM      9  H   UNL     1       1.978   3.809  22.600  0.00  0.00    +0.000 HD
ATOM     10  H   UNL     1       0.863   2.824  21.830  0.00  0.00    +0.000 HD
ENDROOT
BRANCH   1  15
ATOM     11  C   UNL     1       0.910   8.812  20.377  0.00  0.00    +0.000 A 
ATOM     12  C   UNL     1       0.880   9.529  19.178  0.00  0.00    +0.000 A 
ATOM     13  C   UNL     1       1.505   9.021  18.047  0.00  0.00    +0.000 A 
ATOM     14  C   UNL     1       2.150   7.790  18.114  0.00  0.00    +0.000 A 
ATOM     15  C   UNL     1       2.185   7.034  19.308  0.00  0.00    +0.000 A 
ATOM     16  C   UNL     1       1.556   7.572  20.447  0.00  0.00    +0.000 A 
BRANCH  11  19
ATOM     17  C   UNL     1      -1.235  10.616  23.343  0.00  0.00    +0.000 C 
ATOM     18  C   UNL     1      -0.402   9.909  22.371  0.00  0.00    +0.000 C 
ATOM     19  C   UNL     1       0.237   9.373  21.509  0.00  0.00    +0.000 C 
ENDBRANCH  11  19
ENDBRANCH   1  15
BRANCH   1  20
ATOM     20  C   UNL     1       4.076   5.626  18.535  0.00  0.00    +0.000 A 
ATOM     21  C   UNL     1       5.272   5.463  19.250  0.00  0.00    +0.000 A 
ATOM     22  C   UNL     1       6.501   5.784  18.660  0.00  0.00    +0.000 A 
ATOM     23  C   UNL     1       6.566   6.252  17.346  0.00  0.00    +0.000 A 
ATOM     24  C   UNL     1       5.391   6.386  16.613  0.00  0.00    +0.000 A 
ATOM     25  C   UNL     1       4.166   6.068  17.200  0.00  0.00    +0.000 A 
BRANCH  23  26
ATOM     26  O   UNL     1       7.813   6.593  16.902  0.00  0.00    +0.000 OA
BRANCH  26  27
ATOM     27  C   UNL     1       8.316   7.828  17.386  0.00  0.00    +0.000 C 
ATOM     28  F   UNL     1       7.328   8.758  17.365  0.00  0.00    +0.000 F 
ATOM     29  F   UNL     1       8.648   7.647  18.689  0.00  0.00    +0.000 F 
ENDBRANCH  26  27
ENDBRANCH  23  26
ENDBRANCH   1  20
TORSDOF 5
ENDMDL
MODEL 7
REMARK VINA RESULT:      -8.7      3.661      6.994
REMARK  Name = 
REMARK  7 active torsions:
REMARK  status: ('A' for Active; 'I' for Inactive)
REMARK    1  A    between atoms: C_1  and  C_2
REMARK    2  A    between atoms: C_3  and  C_4
REMARK    3  A    between atoms: C_8  and  C_9
REMARK    4  A    between atoms: C_9  and  C_10
REMARK    5  A    between atoms: C_13  and  O_14
REMARK    6  A    between atoms: O_14  and  C_15
REMARK    7  A    between atoms: N_23  and  C_24
REMARK                            x       y       z     vdW  Elec       q    Type
REMARK                         _______ _______ _______ _____ _____    ______ ____
ROOT
ATOM      1  C   UNL     1       3.376   4.983  18.202  0.00  0.00    +0.000 C 
ATOM      2  N   UNL     1       2.492   3.895  17.635  0.00  0.00    +0.000 NA
ATOM      3  C   UNL     1       2.470   2.946  18.512  0.00  0.00    +0.000 C 
ATOM      4  N   UNL     1       1.847   1.766  18.271  0.00  0.00    +0.000 N 
ATOM      5  N   UNL     1       3.122   3.171  19.663  0.00  0.00    +0.000 N 
ATOM      6  C   UNL     1       3.002   2.454  20.913  0.00  0.00    +0.000 C 
ATOM      7  C   UNL     1       3.791   4.359  19.557  0.00  0.00    +0.000 C 
ATOM      8  O   UNL     1       4.532   4.824  20.414  0.00  0.00    +0.000 OA
ATOM      9  H   UNL     1       1.688   1.627  17.277  0.00  0.00    +0.000 HD
ATOM     10  H   UNL     1       2.281   0.953  18.691  0.00  0.00    +0.000 HD
ENDROOT
BRANCH   1  15
ATOM     11  C   UNL     1       5.805   4.745  15.201  0.00  0.00    +0.000 A 
ATOM     12  C   UNL     1       6.881   5.498  15.678  0.00  0.00    +0.000 A 
ATOM     13  C   UNL     1       6.789   6.147  16.901  0.00  0.00    +0.000 A 
ATOM     14  C   UNL     1       5.624   6.032  17.654  0.00  0.00    +0.000 A 
ATOM     15  C   UNL     1       4.523   5.265  17.205  0.00  0.00    +0.000 A 
ATOM     16  C   UNL     1       4.632   4.626  15.956  0.00  0.00    +0.000 A 
BRANCH  11  19
ATOM     17  C   UNL     1       5.907   2.654  11.698  0.00  0.00    +0.000 C 
ATOM     18  C   UNL     1       5.975   3.464  12.914  0.00  0.00    +0.000 C 
ATOM     19  C   UNL     1       5.957   4.084  13.940  0.00  0.00    +0.000 C 
ENDBRANCH  11  19
ENDBRANCH   1  15
BRANCH   1  20
ATOM     20  C   UNL     1       2.632   6.323  18.413  0.00  0.00    +0.000 A 
ATOM     21  C   UNL     1       2.599   7.311  17.418  0.00  0.00    +0.000 A 
ATOM     22  C   UNL     1       2.168   8.610  17.722  0.00  0.00    +0.000 A 
ATOM     23  C   UNL     1       1.744   8.942  19.010  0.00  0.00    +0.000 A 
ATOM     24  C   UNL     1       1.739   7.962  19.998  0.00  0.00    +0.000 A 
ATOM     25  C   UNL     1       2.169   6.670  19.698  0.00  0.00    +0.000 A 
BRANCH  23  26
ATOM     26  O   UNL     1       1.409  10.254  19.201  0.00  0.00    +0.000 OA
BRANCH  26  27
ATOM     27  C   UNL     1       0.020  10.540  19.156  0.00  0.00    +0.000 C 
ATOM     28  F   UNL     1      -0.570   9.771  18.207  0.00  0.00    +0.000 F 
ATOM     29  F   UNL     1      -0.511  10.161  20.346  0.00  0.00    +0.000 F 
ENDBRANCH  26  27
ENDBRANCH  23  26
ENDBRANCH   1  20
TORSDOF 5
ENDMDL
MODEL 8
REMARK VINA RESULT:      -8.7      3.839      7.224
REMARK  Name = 
REMARK  7 active torsions:
REMARK  status: ('A' for Active; 'I' for Inactive)
REMARK    1  A    between atoms: C_1  and  C_2
REMARK    2  A    between atoms: C_3  and  C_4
REMARK    3  A    between atoms: C_8  and  C_9
REMARK    4  A    between atoms: C_9  and  C_10
REMARK    5  A    between atoms: C_13  and  O_14
REMARK    6  A    between atoms: O_14  and  C_15
REMARK    7  A    between atoms: N_23  and  C_24
REMARK                            x       y       z     vdW  Elec       q    Type
REMARK                         _______ _______ _______ _____ _____    ______ ____
ROOT
ATOM      1  C   UNL     1       4.118   4.456  17.990  0.00  0.00    +0.000 C 
ATOM      2  N   UNL     1       3.309   3.230  17.632  0.00  0.00    +0.000 NA
ATOM      3  C   UNL     1       3.566   2.343  18.536  0.00  0.00    +0.000 C 
ATOM      4  N   UNL     1       3.080   1.079  18.456  0.00  0.00    +0.000 N 
ATOM      5  N   UNL     1       4.367   2.722  19.544  0.00  0.00    +0.000 N 
ATOM      6  C   UNL     1       4.561   2.076  20.823  0.00  0.00    +0.000 C 
ATOM      7  C   UNL     1       4.838   3.977  19.275  0.00  0.00    +0.000 C 
ATOM      8  O   UNL     1       5.643   4.586  19.968  0.00  0.00    +0.000 OA
ATOM      9  H   UNL     1       2.776   0.859  17.512  0.00  0.00    +0.000 HD
ATOM     10  H   UNL     1       3.687   0.357  18.825  0.00  0.00    +0.000 HD
ENDROOT
BRANCH   1  15
ATOM     11  C   UNL     1       5.961   4.376  14.590  0.00  0.00    +0.000 A 
ATOM     12  C   UNL     1       7.032   5.233  14.856  0.00  0.00    +0.000 A 
ATOM     13  C   UNL     1       7.109   5.896  16.073  0.00  0.00    +0.000 A 
ATOM     14  C   UNL     1       6.118   5.691  17.030  0.00  0.00    +0.000 A 
ATOM     15  C   UNL     1       5.030   4.819  16.796  0.00  0.00    +0.000 A 
ATOM     16  C   UNL     1       4.965   4.167  15.551  0.00  0.00    +0.000 A 
BRANCH  11  19
ATOM     17  C   UNL     1       6.025   2.137  11.179  0.00  0.00    +0.000 C 
ATOM     18  C   UNL     1       5.960   3.036  12.331  0.00  0.00    +0.000 C 
ATOM     19  C   UNL     1       5.938   3.706  13.326  0.00  0.00    +0.000 C 
ENDBRANCH  11  19
ENDBRANCH   1  15
BRANCH   1  20
ATOM     20  C   UNL     1       3.243   5.699  18.276  0.00  0.00    +0.000 A 
ATOM     21  C   UNL     1       3.316   6.850  17.477  0.00  0.00    +0.000 A 
ATOM     22  C   UNL     1       2.734   8.050  17.906  0.00  0.00    +0.000 A 
ATOM     23  C   UNL     1       2.054   8.123  19.124  0.00  0.00    +0.000 A 
ATOM     24  C   UNL     1       1.945   6.980  19.910  0.00  0.00    +0.000 A 
ATOM     25  C   UNL     1       2.525   5.785  19.485  0.00  0.00    +0.000 A 
BRANCH  23  26
ATOM     26  O   UNL     1       1.586   9.361  19.466  0.00  0.00    +0.000 OA
BRANCH  26  27
ATOM     27  C   UNL     1       0.931   9.439  20.722  0.00  0.00    +0.000 C 
ATOM     28  F   UNL     1       1.103  10.678  21.246  0.00  0.00    +0.000 F 
ATOM     29  F   UNL     1      -0.399   9.297  20.494  0.00  0.00    +0.000 F 
ENDBRANCH  26  27
ENDBRANCH  23  26
ENDBRANCH   1  20
TORSDOF 5
ENDMDL
MODEL 9
REMARK VINA RESULT:      -8.7      3.764      6.276
REMARK  Name = 
REMARK  7 active torsions:
REMARK  status: ('A' for Active; 'I' for Inactive)
REMARK    1  A    between atoms: C_1  and  C_2
REMARK    2  A    between atoms: C_3  and  C_4
REMARK    3  A    between atoms: C_8  and  C_9
REMARK    4  A    between atoms: C_9  and  C_10
REMARK    5  A    between atoms: C_13  and  O_14
REMARK    6  A    between atoms: O_14  and  C_15
REMARK    7  A    between atoms: N_23  and  C_24
REMARK                            x       y       z     vdW  Elec       q    Type
REMARK                         _______ _______ _______ _____ _____    ______ ____
ROOT
ATOM      1  C   UNL     1       2.836   4.934  18.637  0.00  0.00    +0.000 C 
ATOM      2  N   UNL     1       1.951   3.947  17.910  0.00  0.00    +0.000 NA
ATOM      3  C   UNL     1       1.671   3.012  18.758  0.00  0.00    +0.000 C 
ATOM      4  N   UNL     1       0.975   1.906  18.397  0.00  0.00    +0.000 N 
ATOM      5  N   UNL     1       2.131   3.173  20.008  0.00  0.00    +0.000 N 
ATOM      6  C   UNL     1       1.716   2.482  21.209  0.00  0.00    +0.000 C 
ATOM      7  C   UNL     1       2.935   4.278  20.036  0.00  0.00    +0.000 C 
ATOM      8  O   UNL     1       3.560   4.665  21.015  0.00  0.00    +0.000 OA
ATOM      9  H   UNL     1       0.978   1.779  17.389  0.00  0.00    +0.000 HD
ATOM     10  H   UNL     1       1.235   1.053  18.877  0.00  0.00    +0.000 HD
ENDROOT
BRANCH   1  15
ATOM     11  C   UNL     1       6.174   6.314  17.252  0.00  0.00    +0.000 A 
ATOM     12  C   UNL     1       6.316   5.540  16.098  0.00  0.00    +0.000 A 
ATOM     13  C   UNL     1       5.404   4.530  15.820  0.00  0.00    +0.000 A 
ATOM     14  C   UNL     1       4.343   4.304  16.692  0.00  0.00    +0.000 A 
ATOM     15  C   UNL     1       4.164   5.080  17.861  0.00  0.00    +0.000 A 
ATOM     16  C   UNL     1       5.107   6.090  18.131  0.00  0.00    +0.000 A 
BRANCH  11  19
ATOM     17  C   UNL     1       8.633   9.442  18.155  0.00  0.00    +0.000 C 
ATOM     18  C   UNL     1       7.846   8.276  17.759  0.00  0.00    +0.000 C 
ATOM     19  C   UNL     1       7.132   7.352  17.484  0.00  0.00    +0.000 C 
ENDBRANCH  11  19
ENDBRANCH   1  15
BRANCH   1  20
ATOM     20  C   UNL     1       2.218   6.350  18.730  0.00  0.00    +0.000 A 
ATOM     21  C   UNL     1       2.180   7.211  17.624  0.00  0.00    +0.000 A 
ATOM     22  C   UNL     1       1.878   8.569  17.791  0.00  0.00    +0.000 A 
ATOM     23  C   UNL     1       1.589   9.089  19.055  0.00  0.00    +0.000 A 
ATOM     24  C   UNL     1       1.589   8.239  20.156  0.00  0.00    +0.000 A 
ATOM     25  C   UNL     1       1.891   6.887  19.991  0.00  0.00    +0.000 A 
BRANCH  23  26
ATOM     26  O   UNL     1       1.373  10.438  19.103  0.00  0.00    +0.000 OA
BRANCH  26  27
ATOM     27  C   UNL     1       0.015  10.835  19.201  0.00  0.00    +0.000 C 
ATOM     28  F   UNL     1      -0.768   9.931  18.560  0.00  0.00    +0.000 F 
ATOM     29  F   UNL     1      -0.329  10.782  20.512  0.00  0.00    +0.000 F 
ENDBRANCH  26  27
ENDBRANCH  23  26
ENDBRANCH   1  20
TORSDOF 5
ENDMDL
