MODEL 1
REMARK VINA RESULT:      -6.2      0.000      0.000
REMARK  Name = 
REMARK  4 active torsions:
REMARK  status: ('A' for Active; 'I' for Inactive)
REMARK    1  A    between atoms: C_1  and  C_2
REMARK    2  A    between atoms: N_4  and  C_5
REMARK    3  A    between atoms: N_4  and  C_10
REMARK    4  A    between atoms: C_5  and  C_6
REMARK                            x       y       z     vdW  Elec       q    Type
REMARK                         _______ _______ _______ _____ _____    ______ ____
ROOT
ATOM      1  C   UNL     1       7.734   5.907  18.886  0.00  0.00    +0.000 C 
ATOM      2  C   UNL     1       7.085   5.970  17.520  0.00  0.00    +0.000 C 
ATOM      3  O   UNL     1       7.617   6.668  16.653  0.00  0.00    +0.000 OA
ATOM      4  N   UNL     1       5.931   5.231  17.266  0.00  0.00    +0.000 N 
ENDROOT
BRANCH   4   5
ATOM      5  C   UNL     1       5.179   4.496  18.328  0.00  0.00    +0.000 C 
ATOM      6  C   UNL     1       4.408   5.482  19.225  0.00  0.00    +0.000 C 
ATOM      7  C   UNL     1       3.184   6.040  18.506  0.00  0.00    +0.000 C 
ATOM      8  C   UNL     1       2.325   4.918  17.935  0.00  0.00    +0.000 C 
ATOM      9  O   UNL     1       3.086   4.000  17.148  0.00  0.00    +0.000 OA
ATOM     10  C   UNL     1       4.184   3.422  17.850  0.00  0.00    +0.000 C 
ENDBRANCH   4   5
BRANCH   4  11
ATOM     11  C   UNL     1       5.366   5.344  15.884  0.00  0.00    +0.000 C 
BRANCH  11  12
ATOM     12  C   UNL     1       5.916   4.394  14.809  0.00  0.00    +0.000 C 
ATOM     13  F   UNL     1       7.049   4.855  14.233  0.00  0.00    +0.000 F 
ATOM     14  F   UNL     1       6.194   3.173  15.325  0.00  0.00    +0.000 F 
ATOM     15  F   UNL     1       5.012   4.199  13.819  0.00  0.00    +0.000 F 
ENDBRANCH  11  12
ENDBRANCH   4  11
TORSDOF 3
ENDMDL
MODEL 2
REMARK VINA RESULT:      -6.2      0.125      1.005
REMARK  Name = 
REMARK  4 active torsions:
REMARK  status: ('A' for Active; 'I' for Inactive)
REMARK    1  A    between atoms: C_1  and  C_2
REMARK    2  A    between atoms: N_4  and  C_5
REMARK    3  A    between atoms: N_4  and  C_10
REMARK    4  A    between atoms: C_5  and  C_6
REMARK                            x       y       z     vdW  Elec       q    Type
REMARK                         _______ _______ _______ _____ _____    ______ ____
ROOT
ATOM      1  C   UNL     1       7.774   6.003  18.835  0.00  0.00    +0.000 C 
ATOM      2  C   UNL     1       7.108   6.071  17.478  0.00  0.00    +0.000 C 
ATOM      3  O   UNL     1       7.611   6.797  16.617  0.00  0.00    +0.000 OA
ATOM      4  N   UNL     1       5.972   5.304  17.224  0.00  0.00    +0.000 N 
ENDROOT
BRANCH   4   5
ATOM      5  C   UNL     1       5.253   4.532  18.282  0.00  0.00    +0.000 C 
ATOM      6  C   UNL     1       4.489   5.483  19.222  0.00  0.00    +0.000 C 
ATOM      7  C   UNL     1       3.242   6.044  18.544  0.00  0.00    +0.000 C 
ATOM      8  C   UNL     1       2.385   4.925  17.962  0.00  0.00    +0.000 C 
ATOM      9  O   UNL     1       3.141   4.039  17.135  0.00  0.00    +0.000 OA
ATOM     10  C   UNL     1       4.261   3.457  17.796  0.00  0.00    +0.000 C 
ENDBRANCH   4   5
BRANCH   4  11
ATOM     11  C   UNL     1       5.388   5.424  15.850  0.00  0.00    +0.000 C 
BRANCH  11  12
ATOM     12  C   UNL     1       5.949   4.506  14.754  0.00  0.00    +0.000 C 
ATOM     13  F   UNL     1       5.040   4.217  13.797  0.00  0.00    +0.000 F 
ATOM     14  F   UNL     1       7.017   5.069  14.139  0.00  0.00    +0.000 F 
ATOM     15  F   UNL     1       6.377   3.330  15.272  0.00  0.00    +0.000 F 
ENDBRANCH  11  12
ENDBRANCH   4  11
TORSDOF 3
ENDMDL
MODEL 3
REMARK VINA RESULT:      -6.1      1.429      1.797
REMARK  Name = 
REMARK  4 active torsions:
REMARK  status: ('A' for Active; 'I' for Inactive)
REMARK    1  A    between atoms: C_1  and  C_2
REMARK    2  A    between atoms: N_4  and  C_5
REMARK    3  A    between atoms: N_4  and  C_10
REMARK    4  A    between atoms: C_5  and  C_6
REMARK                            x       y       z     vdW  Elec       q    Type
REMARK                         _______ _______ _______ _____ _____    ______ ____
ROOT
ATOM      1  C   UNL     1       7.673   5.478  18.989  0.00  0.00    +0.000 C 
ATOM      2  C   UNL     1       7.281   4.758  17.717  0.00  0.00    +0.000 C 
ATOM      3  O   UNL     1       8.174   4.239  17.042  0.00  0.00    +0.000 OA
ATOM      4  N   UNL     1       5.939   4.674  17.352  0.00  0.00    +0.000 N 
ENDROOT
BRANCH   4   5
ATOM      5  C   UNL     1       4.851   5.412  18.062  0.00  0.00    +0.000 C 
ATOM      6  C   UNL     1       3.503   5.211  17.344  0.00  0.00    +0.000 C 
ATOM      7  C   UNL     1       2.949   3.811  17.595  0.00  0.00    +0.000 C 
ATOM      8  C   UNL     1       2.912   3.496  19.086  0.00  0.00    +0.000 C 
ATOM      9  O   UNL     1       4.168   3.741  19.723  0.00  0.00    +0.000 OA
ATOM     10  C   UNL     1       4.644   5.073  19.550  0.00  0.00    +0.000 C 
ENDBRANCH   4   5
BRANCH   4  11
ATOM     11  C   UNL     1       5.644   3.931  16.086  0.00  0.00    +0.000 C 
BRANCH  11  12
ATOM     12  C   UNL     1       5.827   4.682  14.759  0.00  0.00    +0.000 C 
ATOM     13  F   UNL     1       7.108   4.674  14.325  0.00  0.00    +0.000 F 
ATOM     14  F   UNL     1       5.066   4.141  13.778  0.00  0.00    +0.000 F 
ATOM     15  F   UNL     1       5.448   5.977  14.873  0.00  0.00    +0.000 F 
ENDBRANCH  11  12
ENDBRANCH   4  11
TORSDOF 3
ENDMDL
MODEL 4
REMARK VINA RESULT:      -6.0      1.416      1.840
REMARK  Name = 
REMARK  4 active torsions:
REMARK  status: ('A' for Active; 'I' for Inactive)
REMARK    1  A    between atoms: C_1  and  C_2
REMARK    2  A    between atoms: N_4  and  C_5
REMARK    3  A    between atoms: N_4  and  C_10
REMARK    4  A    between atoms: C_5  and  C_6
REMARK                            x       y       z     vdW  Elec       q    Type
REMARK                         _______ _______ _______ _____ _____    ______ ____
ROOT
ATOM      1  C   UNL     1       7.476   5.397  19.051  0.00  0.00    +0.000 C 
ATOM      2  C   UNL     1       7.187   4.730  17.724  0.00  0.00    +0.000 C 
ATOM      3  O   UNL     1       8.139   4.454  16.990  0.00  0.00    +0.000 OA
ATOM      4  N   UNL     1       5.874   4.422  17.374  0.00  0.00    +0.000 N 
ENDROOT
BRANCH   4   5
ATOM      5  C   UNL     1       4.689   4.871  18.165  0.00  0.00    +0.000 C 
ATOM      6  C   UNL     1       3.396   4.703  17.346  0.00  0.00    +0.000 C 
ATOM      7  C   UNL     1       2.989   3.235  17.253  0.00  0.00    +0.000 C 
ATOM      8  C   UNL     1       2.938   2.592  18.634  0.00  0.00    +0.000 C 
ATOM      9  O   UNL     1       4.138   2.811  19.379  0.00  0.00    +0.000 OA
ATOM     10  C   UNL     1       4.471   4.188  19.529  0.00  0.00    +0.000 C 
ENDBRANCH   4   5
BRANCH   4  11
ATOM     11  C   UNL     1       5.684   3.750  16.049  0.00  0.00    +0.000 C 
BRANCH  11  12
ATOM     12  C   UNL     1       5.782   4.621  14.787  0.00  0.00    +0.000 C 
ATOM     13  F   UNL     1       5.533   5.927  15.032  0.00  0.00    +0.000 F 
ATOM     14  F   UNL     1       7.014   4.543  14.229  0.00  0.00    +0.000 F 
ATOM     15  F   UNL     1       4.903   4.213  13.841  0.00  0.00    +0.000 F 
ENDBRANCH  11  12
ENDBRANCH   4  11
TORSDOF 3
ENDMDL
MODEL 5
REMARK VINA RESULT:      -6.0      1.066      1.548
REMARK  Name = 
REMARK  4 active torsions:
REMARK  status: ('A' for Active; 'I' for Inactive)
REMARK    1  A    between atoms: C_1  and  C_2
REMARK    2  A    between atoms: N_4  and  C_5
REMARK    3  A    between atoms: N_4  and  C_10
REMARK    4  A    between atoms: C_5  and  C_6
REMARK                            x       y       z     vdW  Elec       q    Type
REMARK                         _______ _______ _______ _____ _____    ______ ____
ROOT
ATOM      1  C   UNL     1       7.713   6.539  18.561  0.00  0.00    +0.000 C 
ATOM      2  C   UNL     1       7.150   6.380  17.165  0.00  0.00    +0.000 C 
ATOM      3  O   UNL     1       7.901   6.577  16.207  0.00  0.00    +0.000 OA
ATOM      4  N   UNL     1       5.822   5.994  16.993  0.00  0.00    +0.000 N 
ENDROOT
BRANCH   4   5
ATOM      5  C   UNL     1       4.847   5.891  18.120  0.00  0.00    +0.000 C 
ATOM      6  C   UNL     1       3.492   5.359  17.617  0.00  0.00    +0.000 C 
ATOM      7  C   UNL     1       3.563   3.864  17.319  0.00  0.00    +0.000 C 
ATOM      8  C   UNL     1       4.131   3.095  18.506  0.00  0.00    +0.000 C 
ATOM      9  O   UNL     1       5.363   3.648  18.972  0.00  0.00    +0.000 OA
ATOM     10  C   UNL     1       5.272   5.026  19.323  0.00  0.00    +0.000 C 
ENDBRANCH   4   5
BRANCH   4  11
ATOM     11  C   UNL     1       5.355   5.847  15.577  0.00  0.00    +0.000 C 
BRANCH  11  12
ATOM     12  C   UNL     1       5.883   4.650  14.772  0.00  0.00    +0.000 C 
ATOM     13  F   UNL     1       6.920   4.976  13.969  0.00  0.00    +0.000 F 
ATOM     14  F   UNL     1       6.303   3.654  15.589  0.00  0.00    +0.000 F 
ATOM     15  F   UNL     1       4.914   4.123  13.987  0.00  0.00    +0.000 F 
ENDBRANCH  11  12
ENDBRANCH   4  11
TORSDOF 3
ENDMDL
MODEL 6
REMARK VINA RESULT:      -5.8      2.371      3.490
REMARK  Name = 
REMARK  4 active torsions:
REMARK  status: ('A' for Active; 'I' for Inactive)
REMARK    1  A    between atoms: C_1  and  C_2
REMARK    2  A    between atoms: N_4  and  C_5
REMARK    3  A    between atoms: N_4  and  C_10
REMARK    4  A    between atoms: C_5  and  C_6
REMARK                            x       y       z     vdW  Elec       q    Type
REMARK                         _______ _______ _______ _____ _____    ______ ____
ROOT
ATOM      1  C   UNL     1       5.874   4.265  14.509  0.00  0.00    +0.000 C 
ATOM      2  C   UNL     1       6.439   5.163  15.588  0.00  0.00    +0.000 C 
ATOM      3  O   UNL     1       7.615   5.524  15.491  0.00  0.00    +0.000 OA
ATOM      4  N   UNL     1       5.626   5.579  16.641  0.00  0.00    +0.000 N 
ENDROOT
BRANCH   4   5
ATOM      5  C   UNL     1       4.249   5.047  16.871  0.00  0.00    +0.000 C 
ATOM      6  C   UNL     1       4.308   3.589  17.364  0.00  0.00    +0.000 C 
ATOM      7  C   UNL     1       4.761   3.518  18.819  0.00  0.00    +0.000 C 
ATOM      8  C   UNL     1       3.924   4.439  19.700  0.00  0.00    +0.000 C 
ATOM      9  O   UNL     1       3.857   5.769  19.182  0.00  0.00    +0.000 OA
ATOM     10  C   UNL     1       3.358   5.837  17.849  0.00  0.00    +0.000 C 
ENDBRANCH   4   5
BRANCH   4  11
ATOM     11  C   UNL     1       6.265   6.477  17.654  0.00  0.00    +0.000 C 
BRANCH  11  12
ATOM     12  C   UNL     1       7.334   5.868  18.573  0.00  0.00    +0.000 C 
ATOM     13  F   UNL     1       7.757   4.655  18.153  0.00  0.00    +0.000 F 
ATOM     14  F   UNL     1       8.425   6.668  18.658  0.00  0.00    +0.000 F 
ATOM     15  F   UNL     1       6.866   5.718  19.835  0.00  0.00    +0.000 F 
ENDBRANCH  11  12
ENDBRANCH   4  11
TORSDOF 3
ENDMDL
MODEL 7
REMARK VINA RESULT:      -5.7      2.322      3.189
REMARK  Name = 
REMARK  4 active torsions:
REMARK  status: ('A' for Active; 'I' for Inactive)
REMARK    1  A    between atoms: C_1  and  C_2
REMARK    2  A    between atoms: N_4  and  C_5
REMARK    3  A    between atoms: N_4  and  C_10
REMARK    4  A    between atoms: C_5  and  C_6
REMARK                            x       y       z     vdW  Elec       q    Type
REMARK                         _______ _______ _______ _____ _____    ______ ____
ROOT
ATOM      1  C   UNL     1       5.713   4.055  14.821  0.00  0.00    +0.000 C 
ATOM      2  C   UNL     1       6.161   5.064  15.855  0.00  0.00    +0.000 C 
ATOM      3  O   UNL     1       6.951   5.946  15.507  0.00  0.00    +0.000 OA
ATOM      4  N   UNL     1       5.661   4.995  17.154  0.00  0.00    +0.000 N 
ENDROOT
BRANCH   4   5
ATOM      5  C   UNL     1       4.823   3.860  17.649  0.00  0.00    +0.000 C 
ATOM      6  C   UNL     1       4.769   3.858  19.188  0.00  0.00    +0.000 C 
ATOM      7  C   UNL     1       3.868   4.973  19.709  0.00  0.00    +0.000 C 
ATOM      8  C   UNL     1       2.499   4.930  19.039  0.00  0.00    +0.000 C 
ATOM      9  O   UNL     1       2.594   4.885  17.615  0.00  0.00    +0.000 OA
ATOM     10  C   UNL     1       3.374   3.795  17.130  0.00  0.00    +0.000 C 
ENDBRANCH   4   5
BRANCH   4  11
ATOM     11  C   UNL     1       6.148   6.043  18.107  0.00  0.00    +0.000 C 
BRANCH  11  12
ATOM     12  C   UNL     1       7.522   5.831  18.758  0.00  0.00    +0.000 C 
ATOM     13  F   UNL     1       8.359   6.875  18.568  0.00  0.00    +0.000 F 
ATOM     14  F   UNL     1       7.410   5.643  20.095  0.00  0.00    +0.000 F 
ATOM     15  F   UNL     1       8.134   4.728  18.264  0.00  0.00    +0.000 F 
ENDBRANCH  11  12
ENDBRANCH   4  11
TORSDOF 3
ENDMDL
MODEL 8
REMARK VINA RESULT:      -5.7      2.469      3.549
REMARK  Name = 
REMARK  4 active torsions:
REMARK  status: ('A' for Active; 'I' for Inactive)
REMARK    1  A    between atoms: C_1  and  C_2
REMARK    2  A    between atoms: N_4  and  C_5
REMARK    3  A    between atoms: N_4  and  C_10
REMARK    4  A    between atoms: C_5  and  C_6
REMARK                            x       y       z     vdW  Elec       q    Type
REMARK                         _______ _______ _______ _____ _____    ______ ____
ROOT
ATOM      1  C   UNL     1       5.707   4.250  14.482  0.00  0.00    +0.000 C 
ATOM      2  C   UNL     1       6.568   4.719  15.635  0.00  0.00    +0.000 C 
ATOM      3  O   UNL     1       7.790   4.575  15.546  0.00  0.00    +0.000 OA
ATOM      4  N   UNL     1       5.975   5.317  16.744  0.00  0.00    +0.000 N 
ENDROOT
BRANCH   4   5
ATOM      5  C   UNL     1       4.497   5.374  16.951  0.00  0.00    +0.000 C 
ATOM      6  C   UNL     1       3.909   3.953  17.049  0.00  0.00    +0.000 C 
ATOM      7  C   UNL     1       4.243   3.310  18.392  0.00  0.00    +0.000 C 
ATOM      8  C   UNL     1       3.855   4.223  19.549  0.00  0.00    +0.000 C 
ATOM      9  O   UNL     1       4.380   5.543  19.396  0.00  0.00    +0.000 OA
ATOM     10  C   UNL     1       4.001   6.170  18.174  0.00  0.00    +0.000 C 
ENDBRANCH   4   5
BRANCH   4  11
ATOM     11  C   UNL     1       6.905   5.763  17.830  0.00  0.00    +0.000 C 
BRANCH  11  12
ATOM     12  C   UNL     1       7.485   7.182  17.736  0.00  0.00    +0.000 C 
ATOM     13  F   UNL     1       8.378   7.449  18.715  0.00  0.00    +0.000 F 
ATOM     14  F   UNL     1       8.114   7.379  16.552  0.00  0.00    +0.000 F 
ATOM     15  F   UNL     1       6.508   8.116  17.814  0.00  0.00    +0.000 F 
ENDBRANCH  11  12
ENDBRANCH   4  11
TORSDOF 3
ENDMDL
MODEL 9
REMARK VINA RESULT:      -5.7      3.451      4.274
REMARK  Name = 
REMARK  4 active torsions:
REMARK  status: ('A' for Active; 'I' for Inactive)
REMARK    1  A    between atoms: C_1  and  C_2
REMARK    2  A    between atoms: N_4  and  C_5
REMARK    3  A    between atoms: N_4  and  C_10
REMARK    4  A    between atoms: C_5  and  C_6
REMARK                            x       y       z     vdW  Elec       q    Type
REMARK                         _______ _______ _______ _____ _____    ______ ____
ROOT
ATOM      1  C   UNL     1       5.277   4.092  15.994  0.00  0.00    +0.000 C 
ATOM      2  C   UNL     1       4.867   4.937  17.180  0.00  0.00    +0.000 C 
ATOM      3  O   UNL     1       5.124   6.143  17.154  0.00  0.00    +0.000 OA
ATOM      4  N   UNL     1       4.196   4.350  18.251  0.00  0.00    +0.000 N 
ENDROOT
BRANCH   4   5
ATOM      5  C   UNL     1       4.000   2.875  18.385  0.00  0.00    +0.000 C 
ATOM      6  C   UNL     1       4.113   2.445  19.859  0.00  0.00    +0.000 C 
ATOM      7  C   UNL     1       2.873   2.852  20.649  0.00  0.00    +0.000 C 
ATOM      8  C   UNL     1       1.602   2.371  19.958  0.00  0.00    +0.000 C 
ATOM      9  O   UNL     1       1.558   2.750  18.581  0.00  0.00    +0.000 OA
ATOM     10  C   UNL     1       2.682   2.300  17.830  0.00  0.00    +0.000 C 
ENDBRANCH   4   5
BRANCH   4  11
ATOM     11  C   UNL     1       3.817   5.265  19.374  0.00  0.00    +0.000 C 
BRANCH  11  12
ATOM     12  C   UNL     1       2.522   6.077  19.227  0.00  0.00    +0.000 C 
ATOM     13  F   UNL     1       1.656   5.872  20.246  0.00  0.00    +0.000 F 
ATOM     14  F   UNL     1       2.777   7.407  19.176  0.00  0.00    +0.000 F 
ATOM     15  F   UNL     1       1.875   5.764  18.079  0.00  0.00    +0.000 F 
ENDBRANCH  11  12
ENDBRANCH   4  11
TORSDOF 3
ENDMDL
