MODEL 1
REMARK VINA RESULT:      -6.4      0.000      0.000
REMARK  Name = 
REMARK  3 active torsions:
REMARK  status: ('A' for Active; 'I' for Inactive)
REMARK    1  A    between atoms: C_1  and  C_2
REMARK    2  A    between atoms: C_2  and  N_11
REMARK    3  A    between atoms: C_3  and  C_4
REMARK                            x       y       z     vdW  Elec       q    Type
REMARK                         _______ _______ _______ _____ _____    ______ ____
ROOT
ATOM      1  C   UNL     1       4.221   5.557  17.573  0.00  0.00    +0.000 A 
ATOM      2  C   UNL     1       3.189   5.912  18.449  0.00  0.00    +0.000 A 
ATOM      3  C   UNL     1       2.174   4.997  18.744  0.00  0.00    +0.000 A 
ATOM      4  C   UNL     1       2.191   3.732  18.158  0.00  0.00    +0.000 A 
ATOM      5 CL   UNL     1       0.970   2.588  18.561  0.00  0.00    +0.000 Cl
ATOM      6  C   UNL     1       3.196   3.381  17.259  0.00  0.00    +0.000 A 
ATOM      7  C   UNL     1       4.208   4.298  16.960  0.00  0.00    +0.000 A 
ENDROOT
BRANCH   1  10
ATOM      8  C   UNL     1       7.643   7.464  17.512  0.00  0.00    +0.000 C 
ATOM      9  C   UNL     1       6.584   6.444  17.790  0.00  0.00    +0.000 C 
ATOM     10  C   UNL     1       5.323   6.488  17.319  0.00  0.00    +0.000 C 
BRANCH   9  11
ATOM     11  N   UNL     1       7.038   5.351  18.645  0.00  0.00    +0.000 N 
ATOM     12  O   UNL     1       7.618   4.413  18.081  0.00  0.00    +0.000 OA
ATOM     13  O   UNL     1       6.784   5.389  19.854  0.00  0.00    +0.000 OA
ENDBRANCH   9  11
ENDBRANCH   1  10
TORSDOF 2
ENDMDL
MODEL 2
REMARK VINA RESULT:      -6.4      0.226      1.604
REMARK  Name = 
REMARK  3 active torsions:
REMARK  status: ('A' for Active; 'I' for Inactive)
REMARK    1  A    between atoms: C_1  and  C_2
REMARK    2  A    between atoms: C_2  and  N_11
REMARK    3  A    between atoms: C_3  and  C_4
REMARK                            x       y       z     vdW  Elec       q    Type
REMARK                         _______ _______ _______ _____ _____    ______ ____
ROOT
ATOM      1  C   UNL     1       4.176   5.371  17.748  0.00  0.00    +0.000 A 
ATOM      2  C   UNL     1       4.073   4.169  17.040  0.00  0.00    +0.000 A 
ATOM      3  C   UNL     1       3.032   3.279  17.319  0.00  0.00    +0.000 A 
ATOM      4  C   UNL     1       2.101   3.590  18.309  0.00  0.00    +0.000 A 
ATOM      5 CL   UNL     1       0.791   2.518  18.617  0.00  0.00    +0.000 Cl
ATOM      6  C   UNL     1       2.216   4.769  19.043  0.00  0.00    +0.000 A 
ATOM      7  C   UNL     1       3.259   5.658  18.767  0.00  0.00    +0.000 A 
ENDROOT
BRANCH   1  10
ATOM      8  C   UNL     1       7.511   7.403  17.434  0.00  0.00    +0.000 C 
ATOM      9  C   UNL     1       6.513   6.349  17.795  0.00  0.00    +0.000 C 
ATOM     10  C   UNL     1       5.223   6.338  17.408  0.00  0.00    +0.000 C 
BRANCH   9  11
ATOM     11  N   UNL     1       7.064   5.289  18.634  0.00  0.00    +0.000 N 
ATOM     12  O   UNL     1       6.896   5.408  19.856  0.00  0.00    +0.000 OA
ATOM     13  O   UNL     1       7.698   4.370  18.103  0.00  0.00    +0.000 OA
ENDBRANCH   9  11
ENDBRANCH   1  10
TORSDOF 2
ENDMDL
MODEL 3
REMARK VINA RESULT:      -6.2      2.174      2.807
REMARK  Name = 
REMARK  3 active torsions:
REMARK  status: ('A' for Active; 'I' for Inactive)
REMARK    1  A    between atoms: C_1  and  C_2
REMARK    2  A    between atoms: C_2  and  N_11
REMARK    3  A    between atoms: C_3  and  C_4
REMARK                            x       y       z     vdW  Elec       q    Type
REMARK                         _______ _______ _______ _____ _____    ______ ____
ROOT
ATOM      1  C   UNL     1       4.428   4.426  17.075  0.00  0.00    +0.000 A 
ATOM      2  C   UNL     1       4.272   3.294  17.881  0.00  0.00    +0.000 A 
ATOM      3  C   UNL     1       3.626   3.396  19.116  0.00  0.00    +0.000 A 
ATOM      4  C   UNL     1       3.145   4.632  19.545  0.00  0.00    +0.000 A 
ATOM      5 CL   UNL     1       2.305   4.748  21.043  0.00  0.00    +0.000 Cl
ATOM      6  C   UNL     1       3.326   5.772  18.765  0.00  0.00    +0.000 A 
ATOM      7  C   UNL     1       3.975   5.671  17.532  0.00  0.00    +0.000 A 
ENDROOT
BRANCH   1  10
ATOM      8  C   UNL     1       6.834   4.492  13.984  0.00  0.00    +0.000 C 
ATOM      9  C   UNL     1       6.300   4.604  15.376  0.00  0.00    +0.000 C 
ATOM     10  C   UNL     1       5.040   4.308  15.749  0.00  0.00    +0.000 C 
BRANCH   9  11
ATOM     11  N   UNL     1       7.286   5.077  16.343  0.00  0.00    +0.000 N 
ATOM     12  O   UNL     1       7.438   6.305  16.420  0.00  0.00    +0.000 OA
ATOM     13  O   UNL     1       7.943   4.251  16.986  0.00  0.00    +0.000 OA
ENDBRANCH   9  11
ENDBRANCH   1  10
TORSDOF 2
ENDMDL
MODEL 4
REMARK VINA RESULT:      -6.1      0.907      1.227
REMARK  Name = 
REMARK  3 active torsions:
REMARK  status: ('A' for Active; 'I' for Inactive)
REMARK    1  A    between atoms: C_1  and  C_2
REMARK    2  A    between atoms: C_2  and  N_11
REMARK    3  A    between atoms: C_3  and  C_4
REMARK                            x       y       z     vdW  Elec       q    Type
REMARK                         _______ _______ _______ _____ _____    ______ ____
ROOT
ATOM      1  C   UNL     1       4.550   5.347  18.016  0.00  0.00    +0.000 A 
ATOM      2  C   UNL     1       4.046   5.233  19.315  0.00  0.00    +0.000 A 
ATOM      3  C   UNL     1       3.207   4.167  19.651  0.00  0.00    +0.000 A 
ATOM      4  C   UNL     1       2.870   3.220  18.685  0.00  0.00    +0.000 A 
ATOM      5 CL   UNL     1       1.880   1.879  19.112  0.00  0.00    +0.000 Cl
ATOM      6  C   UNL     1       3.340   3.344  17.379  0.00  0.00    +0.000 A 
ATOM      7  C   UNL     1       4.175   4.413  17.042  0.00  0.00    +0.000 A 
ENDROOT
BRANCH   1  10
ATOM      8  C   UNL     1       7.716   7.572  17.405  0.00  0.00    +0.000 C 
ATOM      9  C   UNL     1       6.832   6.409  17.726  0.00  0.00    +0.000 C 
ATOM     10  C   UNL     1       5.486   6.423  17.680  0.00  0.00    +0.000 C 
BRANCH   9  11
ATOM     11  N   UNL     1       7.566   5.207  18.109  0.00  0.00    +0.000 N 
ATOM     12  O   UNL     1       7.817   5.074  19.316  0.00  0.00    +0.000 OA
ATOM     13  O   UNL     1       7.938   4.423  17.229  0.00  0.00    +0.000 OA
ENDBRANCH   9  11
ENDBRANCH   1  10
TORSDOF 2
ENDMDL
MODEL 5
REMARK VINA RESULT:      -6.1      2.114      2.527
REMARK  Name = 
REMARK  3 active torsions:
REMARK  status: ('A' for Active; 'I' for Inactive)
REMARK    1  A    between atoms: C_1  and  C_2
REMARK    2  A    between atoms: C_2  and  N_11
REMARK    3  A    between atoms: C_3  and  C_4
REMARK                            x       y       z     vdW  Elec       q    Type
REMARK                         _______ _______ _______ _____ _____    ______ ____
ROOT
ATOM      1  C   UNL     1       4.416   4.535  16.838  0.00  0.00    +0.000 A 
ATOM      2  C   UNL     1       4.019   5.769  17.363  0.00  0.00    +0.000 A 
ATOM      3  C   UNL     1       3.390   5.830  18.610  0.00  0.00    +0.000 A 
ATOM      4  C   UNL     1       3.154   4.657  19.325  0.00  0.00    +0.000 A 
ATOM      5 CL   UNL     1       2.426   4.737  20.882  0.00  0.00    +0.000 Cl
ATOM      6  C   UNL     1       3.515   3.420  18.795  0.00  0.00    +0.000 A 
ATOM      7  C   UNL     1       4.141   3.358  17.546  0.00  0.00    +0.000 A 
ENDROOT
BRANCH   1  10
ATOM      8  C   UNL     1       7.078   4.738  13.971  0.00  0.00    +0.000 C 
ATOM      9  C   UNL     1       6.426   4.788  15.316  0.00  0.00    +0.000 C 
ATOM     10  C   UNL     1       5.140   4.475  15.565  0.00  0.00    +0.000 C 
BRANCH   9  11
ATOM     11  N   UNL     1       7.323   5.220  16.383  0.00  0.00    +0.000 N 
ATOM     12  O   UNL     1       7.460   6.443  16.528  0.00  0.00    +0.000 OA
ATOM     13  O   UNL     1       7.928   4.367  17.043  0.00  0.00    +0.000 OA
ENDBRANCH   9  11
ENDBRANCH   1  10
TORSDOF 2
ENDMDL
MODEL 6
REMARK VINA RESULT:      -6.0      1.099      1.543
REMARK  Name = 
REMARK  3 active torsions:
REMARK  status: ('A' for Active; 'I' for Inactive)
REMARK    1  A    between atoms: C_1  and  C_2
REMARK    2  A    between atoms: C_2  and  N_11
REMARK    3  A    between atoms: C_3  and  C_4
REMARK                            x       y       z     vdW  Elec       q    Type
REMARK                         _______ _______ _______ _____ _____    ______ ____
ROOT
ATOM      1  C   UNL     1       4.581   5.264  18.154  0.00  0.00    +0.000 A 
ATOM      2  C   UNL     1       3.840   4.717  17.102  0.00  0.00    +0.000 A 
ATOM      3  C   UNL     1       2.913   3.701  17.351  0.00  0.00    +0.000 A 
ATOM      4  C   UNL     1       2.735   3.230  18.651  0.00  0.00    +0.000 A 
ATOM      5 CL   UNL     1       1.557   2.015  18.965  0.00  0.00    +0.000 Cl
ATOM      6  C   UNL     1       3.492   3.745  19.701  0.00  0.00    +0.000 A 
ATOM      7  C   UNL     1       4.422   4.758  19.451  0.00  0.00    +0.000 A 
ENDROOT
BRANCH   1  10
ATOM      8  C   UNL     1       7.700   7.531  17.462  0.00  0.00    +0.000 C 
ATOM      9  C   UNL     1       6.824   6.336  17.664  0.00  0.00    +0.000 C 
ATOM     10  C   UNL     1       5.500   6.378  17.907  0.00  0.00    +0.000 C 
BRANCH   9  11
ATOM     11  N   UNL     1       7.540   5.067  17.576  0.00  0.00    +0.000 N 
ATOM     12  O   UNL     1       7.632   4.563  16.447  0.00  0.00    +0.000 OA
ATOM     13  O   UNL     1       7.966   4.543  18.611  0.00  0.00    +0.000 OA
ENDBRANCH   9  11
ENDBRANCH   1  10
TORSDOF 2
ENDMDL
MODEL 7
REMARK VINA RESULT:      -5.9      1.786      2.283
REMARK  Name = 
REMARK  3 active torsions:
REMARK  status: ('A' for Active; 'I' for Inactive)
REMARK    1  A    between atoms: C_1  and  C_2
REMARK    2  A    between atoms: C_2  and  N_11
REMARK    3  A    between atoms: C_3  and  C_4
REMARK                            x       y       z     vdW  Elec       q    Type
REMARK                         _______ _______ _______ _____ _____    ______ ____
ROOT
ATOM      1  C   UNL     1       4.012   4.008  17.381  0.00  0.00    +0.000 A 
ATOM      2  C   UNL     1       3.995   2.844  18.157  0.00  0.00    +0.000 A 
ATOM      3  C   UNL     1       3.077   2.712  19.202  0.00  0.00    +0.000 A 
ATOM      4  C   UNL     1       2.182   3.746  19.473  0.00  0.00    +0.000 A 
ATOM      5 CL   UNL     1       1.017   3.562  20.727  0.00  0.00    +0.000 Cl
ATOM      6  C   UNL     1       2.213   4.923  18.727  0.00  0.00    +0.000 A 
ATOM      7  C   UNL     1       3.134   5.057  17.684  0.00  0.00    +0.000 A 
ENDROOT
BRANCH   1  10
ATOM      8  C   UNL     1       7.023   4.742  14.985  0.00  0.00    +0.000 C 
ATOM      9  C   UNL     1       6.170   4.627  16.208  0.00  0.00    +0.000 C 
ATOM     10  C   UNL     1       4.924   4.119  16.240  0.00  0.00    +0.000 C 
BRANCH   9  11
ATOM     11  N   UNL     1       6.817   5.129  17.418  0.00  0.00    +0.000 N 
ATOM     12  O   UNL     1       7.545   4.331  18.026  0.00  0.00    +0.000 OA
ATOM     13  O   UNL     1       6.575   6.281  17.796  0.00  0.00    +0.000 OA
ENDBRANCH   9  11
ENDBRANCH   1  10
TORSDOF 2
ENDMDL
MODEL 8
REMARK VINA RESULT:      -5.9      1.735      2.075
REMARK  Name = 
REMARK  3 active torsions:
REMARK  status: ('A' for Active; 'I' for Inactive)
REMARK    1  A    between atoms: C_1  and  C_2
REMARK    2  A    between atoms: C_2  and  N_11
REMARK    3  A    between atoms: C_3  and  C_4
REMARK                            x       y       z     vdW  Elec       q    Type
REMARK                         _______ _______ _______ _____ _____    ______ ____
ROOT
ATOM      1  C   UNL     1       3.850   3.839  17.289  0.00  0.00    +0.000 A 
ATOM      2  C   UNL     1       3.058   4.920  17.688  0.00  0.00    +0.000 A 
ATOM      3  C   UNL     1       2.143   4.770  18.734  0.00  0.00    +0.000 A 
ATOM      4  C   UNL     1       2.018   3.538  19.374  0.00  0.00    +0.000 A 
ATOM      5 CL   UNL     1       0.929   3.367  20.695  0.00  0.00    +0.000 Cl
ATOM      6  C   UNL     1       2.779   2.446  18.961  0.00  0.00    +0.000 A 
ATOM      7  C   UNL     1       3.691   2.594  17.912  0.00  0.00    +0.000 A 
ENDROOT
BRANCH   1  10
ATOM      8  C   UNL     1       7.031   4.768  15.199  0.00  0.00    +0.000 C 
ATOM      9  C   UNL     1       6.072   4.593  16.334  0.00  0.00    +0.000 C 
ATOM     10  C   UNL     1       4.861   4.013  16.242  0.00  0.00    +0.000 C 
BRANCH   9  11
ATOM     11  N   UNL     1       6.568   5.121  17.601  0.00  0.00    +0.000 N 
ATOM     12  O   UNL     1       6.354   6.322  17.821  0.00  0.00    +0.000 OA
ATOM     13  O   UNL     1       7.205   4.377  18.355  0.00  0.00    +0.000 OA
ENDBRANCH   9  11
ENDBRANCH   1  10
TORSDOF 2
ENDMDL
MODEL 9
REMARK VINA RESULT:      -5.8      1.406      1.952
REMARK  Name = 
REMARK  3 active torsions:
REMARK  status: ('A' for Active; 'I' for Inactive)
REMARK    1  A    between atoms: C_1  and  C_2
REMARK    2  A    between atoms: C_2  and  N_11
REMARK    3  A    between atoms: C_3  and  C_4
REMARK                            x       y       z     vdW  Elec       q    Type
REMARK                         _______ _______ _______ _____ _____    ______ ____
ROOT
ATOM      1  C   UNL     1       4.319   5.189  18.787  0.00  0.00    +0.000 A 
ATOM      2  C   UNL     1       4.358   3.802  18.608  0.00  0.00    +0.000 A 
ATOM      3  C   UNL     1       3.487   2.978  19.325  0.00  0.00    +0.000 A 
ATOM      4  C   UNL     1       2.583   3.541  20.224  0.00  0.00    +0.000 A 
ATOM      5 CL   UNL     1       1.475   2.530  21.069  0.00  0.00    +0.000 Cl
ATOM      6  C   UNL     1       2.558   4.919  20.434  0.00  0.00    +0.000 A 
ATOM      7  C   UNL     1       3.433   5.743  19.720  0.00  0.00    +0.000 A 
ENDROOT
BRANCH   1  10
ATOM      8  C   UNL     1       7.327   7.107  17.169  0.00  0.00    +0.000 C 
ATOM      9  C   UNL     1       6.523   6.155  17.997  0.00  0.00    +0.000 C 
ATOM     10  C   UNL     1       5.180   6.060  17.984  0.00  0.00    +0.000 C 
BRANCH   9  11
ATOM     11  N   UNL     1       7.337   5.301  18.858  0.00  0.00    +0.000 N 
ATOM     12  O   UNL     1       7.964   4.391  18.298  0.00  0.00    +0.000 OA
ATOM     13  O   UNL     1       7.323   5.490  20.080  0.00  0.00    +0.000 OA
ENDBRANCH   9  11
ENDBRANCH   1  10
TORSDOF 2
ENDMDL
