MODEL 1
REMARK VINA RESULT:      -7.0      0.000      0.000
REMARK  Name = 
REMARK  6 active torsions:
REMARK  status: ('A' for Active; 'I' for Inactive)
REMARK    1  A    between atoms: C_1  and  C_2
REMARK    2  A    between atoms: C_2  and  N_3
REMARK    3  A    between atoms: C_7  and  C_9
REMARK    4  A    between atoms: C_14  and  O_15
REMARK    5  A    between atoms: O_15  and  C_16
REMARK    6  A    between atoms: C_19  and  C_20
REMARK                            x       y       z     vdW  Elec       q    Type
REMARK                         _______ _______ _______ _____ _____    ______ ____
ROOT
ATOM      1  C   UNL     1       1.705   8.277  19.764  0.00  0.00    +0.000 A 
ATOM      2  N   UNL     1       1.630   8.245  21.144  0.00  0.00    +0.000 N 
ATOM      3  C   UNL     1       0.698   9.124  21.625  0.00  0.00    +0.000 A 
ATOM      4  C   UNL     1       0.212   9.305  22.923  0.00  0.00    +0.000 A 
ATOM      5  C   UNL     1      -0.656  10.381  23.135  0.00  0.00    +0.000 A 
ATOM      6  C   UNL     1      -1.020  11.239  22.098  0.00  0.00    +0.000 A 
ATOM      7  C   UNL     1      -0.563  10.995  20.798  0.00  0.00    +0.000 A 
ATOM      8  C   UNL     1       0.303   9.907  20.550  0.00  0.00    +0.000 A 
ATOM      9  C   UNL     1       0.922   9.364  19.373  0.00  0.00    +0.000 A 
ATOM     10  C   UNL     1       0.743   9.874  17.983  0.00  0.00    +0.000 C 
ATOM     11  H   UNL     1       2.170   7.628  21.730  0.00  0.00    +0.000 HD
ENDROOT
BRANCH   1  16
ATOM     12  N   UNL     1       3.062   3.395  20.453  0.00  0.00    +0.000 NA
ATOM     13  C   UNL     1       3.989   3.985  19.449  0.00  0.00    +0.000 C 
ATOM     14  C   UNL     1       3.454   5.124  18.523  0.00  0.00    +0.000 C 
ATOM     15  N   UNL     1       2.520   6.022  19.210  0.00  0.00    +0.000 N 
ATOM     16  C   UNL     1       2.538   7.395  18.947  0.00  0.00    +0.000 C 
ATOM     17  O   UNL     1       3.262   7.853  18.061  0.00  0.00    +0.000 OA
ATOM     18  C   UNL     1       1.507   5.301  19.976  0.00  0.00    +0.000 C 
ATOM     19  C   UNL     1       2.233   4.468  21.046  0.00  0.00    +0.000 C 
BRANCH  12  21
ATOM     20  C   UNL     1       2.650   1.693  18.639  0.00  0.00    +0.000 C 
ATOM     21  C   UNL     1       2.192   2.325  19.945  0.00  0.00    +0.000 C 
ENDBRANCH  12  21
ENDBRANCH   1  16
BRANCH   6  22
ATOM     22  O   UNL     1      -1.828  12.279  22.474  0.00  0.00    +0.000 OA
ATOM     23  C   UNL     1      -2.809  11.990  23.464  0.00  0.00    +0.000 C 
ENDBRANCH   6  22
TORSDOF 3
ENDMDL
MODEL 2
REMARK VINA RESULT:      -6.9      2.546      7.390
REMARK  Name = 
REMARK  6 active torsions:
REMARK  status: ('A' for Active; 'I' for Inactive)
REMARK    1  A    between atoms: C_1  and  C_2
REMARK    2  A    between atoms: C_2  and  N_3
REMARK    3  A    between atoms: C_7  and  C_9
REMARK    4  A    between atoms: C_14  and  O_15
REMARK    5  A    between atoms: O_15  and  C_16
REMARK    6  A    between atoms: C_19  and  C_20
REMARK                            x       y       z     vdW  Elec       q    Type
REMARK                         _______ _______ _______ _____ _____    ______ ____
ROOT
ATOM      1  C   UNL     1       1.408   8.578  20.252  0.00  0.00    +0.000 A 
ATOM      2  N   UNL     1       1.333   7.380  20.938  0.00  0.00    +0.000 N 
ATOM      3  C   UNL     1       2.004   6.377  20.292  0.00  0.00    +0.000 A 
ATOM      4  C   UNL     1       2.293   5.073  20.701  0.00  0.00    +0.000 A 
ATOM      5  C   UNL     1       2.891   4.227  19.762  0.00  0.00    +0.000 A 
ATOM      6  C   UNL     1       3.185   4.664  18.471  0.00  0.00    +0.000 A 
ATOM      7  C   UNL     1       2.937   5.994  18.111  0.00  0.00    +0.000 A 
ATOM      8  C   UNL     1       2.348   6.875  19.043  0.00  0.00    +0.000 A 
ATOM      9  C   UNL     1       1.990   8.266  19.022  0.00  0.00    +0.000 A 
ATOM     10  C   UNL     1       2.216   9.205  17.885  0.00  0.00    +0.000 C 
ATOM     11  H   UNL     1       0.869   7.259  21.825  0.00  0.00    +0.000 HD
ENDROOT
BRANCH   1  16
ATOM     12  N   UNL     1      -1.907  11.811  18.084  0.00  0.00    +0.000 NA
ATOM     13  C   UNL     1      -1.198  12.548  19.165  0.00  0.00    +0.000 C 
ATOM     14  C   UNL     1      -0.708  11.746  20.412  0.00  0.00    +0.000 C 
ATOM     15  N   UNL     1      -0.237  10.399  20.072  0.00  0.00    +0.000 N 
ATOM     16  C   UNL     1       0.872   9.852  20.726  0.00  0.00    +0.000 C 
ATOM     17  O   UNL     1       1.399  10.449  21.667  0.00  0.00    +0.000 OA
ATOM     18  C   UNL     1      -1.154   9.690  19.184  0.00  0.00    +0.000 C 
ATOM     19  C   UNL     1      -1.260  10.496  17.879  0.00  0.00    +0.000 C 
BRANCH  12  21
ATOM     20  C   UNL     1      -4.125  11.162  17.076  0.00  0.00    +0.000 C 
ATOM     21  C   UNL     1      -3.348  11.621  18.301  0.00  0.00    +0.000 C 
ENDBRANCH  12  21
ENDBRANCH   1  16
BRANCH   6  22
ATOM     22  O   UNL     1       3.715   3.704  17.650  0.00  0.00    +0.000 OA
ATOM     23  C   UNL     1       3.334   2.360  17.922  0.00  0.00    +0.000 C 
ENDBRANCH   6  22
TORSDOF 3
ENDMDL
MODEL 3
REMARK VINA RESULT:      -6.7      2.823      8.246
REMARK  Name = 
REMARK  6 active torsions:
REMARK  status: ('A' for Active; 'I' for Inactive)
REMARK    1  A    between atoms: C_1  and  C_2
REMARK    2  A    between atoms: C_2  and  N_3
REMARK    3  A    between atoms: C_7  and  C_9
REMARK    4  A    between atoms: C_14  and  O_15
REMARK    5  A    between atoms: O_15  and  C_16
REMARK    6  A    between atoms: C_19  and  C_20
REMARK                            x       y       z     vdW  Elec       q    Type
REMARK                         _______ _______ _______ _____ _____    ______ ____
ROOT
ATOM      1  C   UNL     1       2.697   6.791  18.881  0.00  0.00    +0.000 A 
ATOM      2  N   UNL     1       3.715   7.407  18.177  0.00  0.00    +0.000 N 
ATOM      3  C   UNL     1       4.270   6.573  17.245  0.00  0.00    +0.000 A 
ATOM      4  C   UNL     1       5.210   6.835  16.245  0.00  0.00    +0.000 A 
ATOM      5  C   UNL     1       5.689   5.741  15.517  0.00  0.00    +0.000 A 
ATOM      6  C   UNL     1       5.250   4.443  15.780  0.00  0.00    +0.000 A 
ATOM      7  C   UNL     1       4.265   4.222  16.748  0.00  0.00    +0.000 A 
ATOM      8  C   UNL     1       3.751   5.310  17.488  0.00  0.00    +0.000 A 
ATOM      9  C   UNL     1       2.746   5.447  18.505  0.00  0.00    +0.000 A 
ATOM     10  C   UNL     1       1.904   4.343  19.049  0.00  0.00    +0.000 C 
ATOM     11  H   UNL     1       3.997   8.367  18.306  0.00  0.00    +0.000 HD
ENDROOT
BRANCH   1  16
ATOM     12  N   UNL     1       1.077  11.628  19.228  0.00  0.00    +0.000 NA
ATOM     13  C   UNL     1       0.893  10.993  20.562  0.00  0.00    +0.000 C 
ATOM     14  C   UNL     1       0.601   9.460  20.619  0.00  0.00    +0.000 C 
ATOM     15  N   UNL     1       1.322   8.705  19.589  0.00  0.00    +0.000 N 
ATOM     16  C   UNL     1       1.851   7.443  19.879  0.00  0.00    +0.000 C 
ATOM     17  O   UNL     1       1.625   6.905  20.965  0.00  0.00    +0.000 OA
ATOM     18  C   UNL     1       1.221   9.318  18.268  0.00  0.00    +0.000 C 
ATOM     19  C   UNL     1       1.850  10.719  18.352  0.00  0.00    +0.000 C 
BRANCH  12  21
ATOM     20  C   UNL     1      -0.376  13.526  18.425  0.00  0.00    +0.000 C 
ATOM     21  C   UNL     1      -0.166  12.024  18.550  0.00  0.00    +0.000 C 
ENDBRANCH  12  21
ENDBRANCH   1  16
BRANCH   6  22
ATOM     22  O   UNL     1       5.855   3.473  15.025  0.00  0.00    +0.000 OA
ATOM     23  C   UNL     1       6.229   3.842  13.703  0.00  0.00    +0.000 C 
ENDBRANCH   6  22
TORSDOF 3
ENDMDL
MODEL 4
REMARK VINA RESULT:      -6.7      2.457      3.911
REMARK  Name = 
REMARK  6 active torsions:
REMARK  status: ('A' for Active; 'I' for Inactive)
REMARK    1  A    between atoms: C_1  and  C_2
REMARK    2  A    between atoms: C_2  and  N_3
REMARK    3  A    between atoms: C_7  and  C_9
REMARK    4  A    between atoms: C_14  and  O_15
REMARK    5  A    between atoms: O_15  and  C_16
REMARK    6  A    between atoms: C_19  and  C_20
REMARK                            x       y       z     vdW  Elec       q    Type
REMARK                         _______ _______ _______ _____ _____    ______ ____
ROOT
ATOM      1  C   UNL     1       2.258   6.391  18.664  0.00  0.00    +0.000 A 
ATOM      2  N   UNL     1       1.994   7.619  18.085  0.00  0.00    +0.000 N 
ATOM      3  C   UNL     1       1.655   8.561  19.019  0.00  0.00    +0.000 A 
ATOM      4  C   UNL     1       1.454   9.937  18.882  0.00  0.00    +0.000 A 
ATOM      5  C   UNL     1       0.984  10.628  20.003  0.00  0.00    +0.000 A 
ATOM      6  C   UNL     1       0.723   9.972  21.207  0.00  0.00    +0.000 A 
ATOM      7  C   UNL     1       0.991   8.604  21.328  0.00  0.00    +0.000 A 
ATOM      8  C   UNL     1       1.482   7.884  20.217  0.00  0.00    +0.000 A 
ATOM      9  C   UNL     1       1.878   6.520  20.000  0.00  0.00    +0.000 A 
ATOM     10  C   UNL     1       1.889   5.443  21.033  0.00  0.00    +0.000 C 
ATOM     11  H   UNL     1       2.073   7.814  17.099  0.00  0.00    +0.000 HD
ENDROOT
BRANCH   1  16
ATOM     12  N   UNL     1       6.895   5.236  16.844  0.00  0.00    +0.000 NA
ATOM     13  C   UNL     1       5.911   4.338  16.179  0.00  0.00    +0.000 C 
ATOM     14  C   UNL     1       4.627   3.931  16.967  0.00  0.00    +0.000 C 
ATOM     15  N   UNL     1       4.111   5.014  17.811  0.00  0.00    +0.000 N 
ATOM     16  C   UNL     1       2.732   5.209  17.946  0.00  0.00    +0.000 C 
ATOM     17  O   UNL     1       1.936   4.412  17.445  0.00  0.00    +0.000 OA
ATOM     18  C   UNL     1       5.157   5.661  18.598  0.00  0.00    +0.000 C 
ATOM     19  C   UNL     1       6.172   6.270  17.617  0.00  0.00    +0.000 C 
BRANCH  12  21
ATOM     20  C   UNL     1       8.216   5.313  18.991  0.00  0.00    +0.000 C 
ATOM     21  C   UNL     1       7.865   4.559  17.717  0.00  0.00    +0.000 C 
ENDBRANCH  12  21
ENDBRANCH   1  16
BRANCH   6  22
ATOM     22  O   UNL     1       0.212  10.773  22.193  0.00  0.00    +0.000 OA
ATOM     23  C   UNL     1      -0.530  10.120  23.216  0.00  0.00    +0.000 C 
ENDBRANCH   6  22
TORSDOF 3
ENDMDL
MODEL 5
REMARK VINA RESULT:      -6.7      3.246      8.428
REMARK  Name = 
REMARK  6 active torsions:
REMARK  status: ('A' for Active; 'I' for Inactive)
REMARK    1  A    between atoms: C_1  and  C_2
REMARK    2  A    between atoms: C_2  and  N_3
REMARK    3  A    between atoms: C_7  and  C_9
REMARK    4  A    between atoms: C_14  and  O_15
REMARK    5  A    between atoms: O_15  and  C_16
REMARK    6  A    between atoms: C_19  and  C_20
REMARK                            x       y       z     vdW  Elec       q    Type
REMARK                         _______ _______ _______ _____ _____    ______ ____
ROOT
ATOM      1  C   UNL     1       3.842   5.456  18.465  0.00  0.00    +0.000 A 
ATOM      2  N   UNL     1       5.140   5.896  18.283  0.00  0.00    +0.000 N 
ATOM      3  C   UNL     1       5.650   5.500  17.076  0.00  0.00    +0.000 A 
ATOM      4  C   UNL     1       6.849   5.842  16.446  0.00  0.00    +0.000 A 
ATOM      5  C   UNL     1       7.160   5.170  15.259  0.00  0.00    +0.000 A 
ATOM      6  C   UNL     1       6.311   4.200  14.727  0.00  0.00    +0.000 A 
ATOM      7  C   UNL     1       5.089   3.923  15.351  0.00  0.00    +0.000 A 
ATOM      8  C   UNL     1       4.742   4.597  16.543  0.00  0.00    +0.000 A 
ATOM      9  C   UNL     1       3.594   4.581  17.406  0.00  0.00    +0.000 A 
ATOM     10  C   UNL     1       2.357   3.775  17.193  0.00  0.00    +0.000 C 
ATOM     11  H   UNL     1       5.646   6.468  18.941  0.00  0.00    +0.000 HD
ENDROOT
BRANCH   1  16
ATOM     12  N   UNL     1       1.257   9.729  19.563  0.00  0.00    +0.000 NA
ATOM     13  C   UNL     1       1.372   8.935  20.817  0.00  0.00    +0.000 C 
ATOM     14  C   UNL     1       1.429   7.379  20.707  0.00  0.00    +0.000 C 
ATOM     15  N   UNL     1       2.174   6.919  19.529  0.00  0.00    +0.000 N 
ATOM     16  C   UNL     1       2.995   5.790  19.608  0.00  0.00    +0.000 C 
ATOM     17  O   UNL     1       3.019   5.106  20.634  0.00  0.00    +0.000 OA
ATOM     18  C   UNL     1       1.790   7.626  18.310  0.00  0.00    +0.000 C 
ATOM     19  C   UNL     1       2.104   9.118  18.515  0.00  0.00    +0.000 C 
BRANCH  12  21
ATOM     20  C   UNL     1      -0.827  11.148  19.541  0.00  0.00    +0.000 C 
ATOM     21  C   UNL     1      -0.111   9.897  19.054  0.00  0.00    +0.000 C 
ENDBRANCH  12  21
ENDBRANCH   1  16
BRANCH   6  22
ATOM     22  O   UNL     1       6.781   3.590  13.593  0.00  0.00    +0.000 OA
ATOM     23  C   UNL     1       5.841   3.402  12.542  0.00  0.00    +0.000 C 
ENDBRANCH   6  22
TORSDOF 3
ENDMDL
MODEL 6
REMARK VINA RESULT:      -6.4      2.106      7.440
REMARK  Name = 
REMARK  6 active torsions:
REMARK  status: ('A' for Active; 'I' for Inactive)
REMARK    1  A    between atoms: C_1  and  C_2
REMARK    2  A    between atoms: C_2  and  N_3
REMARK    3  A    between atoms: C_7  and  C_9
REMARK    4  A    between atoms: C_14  and  O_15
REMARK    5  A    between atoms: O_15  and  C_16
REMARK    6  A    between atoms: C_19  and  C_20
REMARK                            x       y       z     vdW  Elec       q    Type
REMARK                         _______ _______ _______ _____ _____    ______ ____
ROOT
ATOM      1  C   UNL     1       2.615   6.808  18.958  0.00  0.00    +0.000 A 
ATOM      2  N   UNL     1       1.912   5.935  19.767  0.00  0.00    +0.000 N 
ATOM      3  C   UNL     1       2.629   4.802  20.041  0.00  0.00    +0.000 A 
ATOM      4  C   UNL     1       2.353   3.748  20.916  0.00  0.00    +0.000 A 
ATOM      5  C   UNL     1       3.221   2.652  20.888  0.00  0.00    +0.000 A 
ATOM      6  C   UNL     1       4.313   2.609  20.022  0.00  0.00    +0.000 A 
ATOM      7  C   UNL     1       4.595   3.706  19.199  0.00  0.00    +0.000 A 
ATOM      8  C   UNL     1       3.745   4.834  19.218  0.00  0.00    +0.000 A 
ATOM      9  C   UNL     1       3.749   6.105  18.549  0.00  0.00    +0.000 A 
ATOM     10  C   UNL     1       4.792   6.581  17.594  0.00  0.00    +0.000 C 
ATOM     11  H   UNL     1       0.993   6.118  20.141  0.00  0.00    +0.000 HD
ENDROOT
BRANCH   1  16
ATOM     12  N   UNL     1      -0.686  10.002  21.205  0.00  0.00    +0.000 NA
ATOM     13  C   UNL     1      -0.513  10.448  19.796  0.00  0.00    +0.000 C 
ATOM     14  C   UNL     1       0.861  10.191  19.099  0.00  0.00    +0.000 C 
ATOM     15  N   UNL     1       1.471   8.919  19.500  0.00  0.00    +0.000 N 
ATOM     16  C   UNL     1       2.159   8.140  18.564  0.00  0.00    +0.000 C 
ATOM     17  O   UNL     1       2.353   8.561  17.422  0.00  0.00    +0.000 OA
ATOM     18  C   UNL     1       1.447   8.714  20.945  0.00  0.00    +0.000 C 
ATOM     19  C   UNL     1      -0.025   8.691  21.390  0.00  0.00    +0.000 C 
BRANCH  12  21
ATOM     20  C   UNL     1      -1.172  12.062  22.575  0.00  0.00    +0.000 C 
ATOM     21  C   UNL     1      -0.201  10.946  22.222  0.00  0.00    +0.000 C 
ENDBRANCH  12  21
ENDBRANCH   1  16
BRANCH   6  22
ATOM     22  O   UNL     1       5.034   1.445  20.069  0.00  0.00    +0.000 OA
ATOM     23  C   UNL     1       5.424   0.996  21.361  0.00  0.00    +0.000 C 
ENDBRANCH   6  22
TORSDOF 3
ENDMDL
MODEL 7
REMARK VINA RESULT:      -6.4      2.288      3.235
REMARK  Name = 
REMARK  6 active torsions:
REMARK  status: ('A' for Active; 'I' for Inactive)
REMARK    1  A    between atoms: C_1  and  C_2
REMARK    2  A    between atoms: C_2  and  N_3
REMARK    3  A    between atoms: C_7  and  C_9
REMARK    4  A    between atoms: C_14  and  O_15
REMARK    5  A    between atoms: O_15  and  C_16
REMARK    6  A    between atoms: C_19  and  C_20
REMARK                            x       y       z     vdW  Elec       q    Type
REMARK                         _______ _______ _______ _____ _____    ______ ____
ROOT
ATOM      1  C   UNL     1       2.041   6.540  19.572  0.00  0.00    +0.000 A 
ATOM      2  N   UNL     1       1.722   6.817  20.888  0.00  0.00    +0.000 N 
ATOM      3  C   UNL     1       1.271   8.100  21.045  0.00  0.00    +0.000 A 
ATOM      4  C   UNL     1       0.720   8.734  22.162  0.00  0.00    +0.000 A 
ATOM      5  C   UNL     1       0.468  10.105  22.058  0.00  0.00    +0.000 A 
ATOM      6  C   UNL     1       0.756  10.813  20.891  0.00  0.00    +0.000 A 
ATOM      7  C   UNL     1       1.252  10.137  19.770  0.00  0.00    +0.000 A 
ATOM      8  C   UNL     1       1.502   8.749  19.841  0.00  0.00    +0.000 A 
ATOM      9  C   UNL     1       1.970   7.764  18.906  0.00  0.00    +0.000 A 
ATOM     10  C   UNL     1       2.306   8.016  17.474  0.00  0.00    +0.000 C 
ATOM     11  H   UNL     1       1.780   6.151  21.642  0.00  0.00    +0.000 HD
ENDROOT
BRANCH   1  16
ATOM     12  N   UNL     1       6.307   5.131  17.132  0.00  0.00    +0.000 NA
ATOM     13  C   UNL     1       5.292   4.063  16.920  0.00  0.00    +0.000 C 
ATOM     14  C   UNL     1       4.228   3.819  18.036  0.00  0.00    +0.000 C 
ATOM     15  N   UNL     1       3.798   5.059  18.693  0.00  0.00    +0.000 N 
ATOM     16  C   UNL     1       2.462   5.234  19.067  0.00  0.00    +0.000 C 
ATOM     17  O   UNL     1       1.654   4.311  18.949  0.00  0.00    +0.000 OA
ATOM     18  C   UNL     1       4.921   5.916  19.065  0.00  0.00    +0.000 C 
ATOM     19  C   UNL     1       5.667   6.299  17.776  0.00  0.00    +0.000 C 
BRANCH  12  21
ATOM     20  C   UNL     1       7.977   5.757  18.914  0.00  0.00    +0.000 C 
ATOM     21  C   UNL     1       7.485   4.724  17.912  0.00  0.00    +0.000 C 
ENDBRANCH  12  21
ENDBRANCH   1  16
BRANCH   6  22
ATOM     22  O   UNL     1       0.508  12.158  20.963  0.00  0.00    +0.000 OA
ATOM     23  C   UNL     1      -0.410  12.578  21.965  0.00  0.00    +0.000 C 
ENDBRANCH   6  22
TORSDOF 3
ENDMDL
MODEL 8
REMARK VINA RESULT:      -6.4      2.512      7.531
REMARK  Name = 
REMARK  6 active torsions:
REMARK  status: ('A' for Active; 'I' for Inactive)
REMARK    1  A    between atoms: C_1  and  C_2
REMARK    2  A    between atoms: C_2  and  N_3
REMARK    3  A    between atoms: C_7  and  C_9
REMARK    4  A    between atoms: C_14  and  O_15
REMARK    5  A    between atoms: O_15  and  C_16
REMARK    6  A    between atoms: C_19  and  C_20
REMARK                            x       y       z     vdW  Elec       q    Type
REMARK                         _______ _______ _______ _____ _____    ______ ____
ROOT
ATOM      1  C   UNL     1       1.306   8.835  20.259  0.00  0.00    +0.000 A 
ATOM      2  N   UNL     1       1.333   7.562  20.798  0.00  0.00    +0.000 N 
ATOM      3  C   UNL     1       2.105   6.709  20.056  0.00  0.00    +0.000 A 
ATOM      4  C   UNL     1       2.510   5.398  20.318  0.00  0.00    +0.000 A 
ATOM      5  C   UNL     1       3.198   4.728  19.302  0.00  0.00    +0.000 A 
ATOM      6  C   UNL     1       3.469   5.340  18.078  0.00  0.00    +0.000 A 
ATOM      7  C   UNL     1       3.102   6.675  17.870  0.00  0.00    +0.000 A 
ATOM      8  C   UNL     1       2.419   7.381  18.884  0.00  0.00    +0.000 A 
ATOM      9  C   UNL     1       1.932   8.726  19.016  0.00  0.00    +0.000 A 
ATOM     10  C   UNL     1       2.085   9.810  18.002  0.00  0.00    +0.000 C 
ATOM     11  H   UNL     1       0.870   7.295  21.653  0.00  0.00    +0.000 HD
ENDROOT
BRANCH   1  16
ATOM     12  N   UNL     1      -2.260  11.991  18.396  0.00  0.00    +0.000 NA
ATOM     13  C   UNL     1      -1.641  12.654  19.576  0.00  0.00    +0.000 C 
ATOM     14  C   UNL     1      -1.099  11.756  20.733  0.00  0.00    +0.000 C 
ATOM     15  N   UNL     1      -0.499  10.508  20.250  0.00  0.00    +0.000 N 
ATOM     16  C   UNL     1       0.645   9.990  20.865  0.00  0.00    +0.000 C 
ATOM     17  O   UNL     1       1.099  10.514  21.884  0.00  0.00    +0.000 OA
ATOM     18  C   UNL     1      -1.331   9.830  19.259  0.00  0.00    +0.000 C 
ATOM     19  C   UNL     1      -1.490  10.774  18.056  0.00  0.00    +0.000 C 
BRANCH  12  21
ATOM     20  C   UNL     1      -4.429  12.463  19.593  0.00  0.00    +0.000 C 
ATOM     21  C   UNL     1      -3.681  11.647  18.550  0.00  0.00    +0.000 C 
ENDBRANCH  12  21
ENDBRANCH   1  16
BRANCH   6  22
ATOM     22  O   UNL     1       4.098   4.537  17.164  0.00  0.00    +0.000 OA
ATOM     23  C   UNL     1       5.073   5.162  16.339  0.00  0.00    +0.000 C 
ENDBRANCH   6  22
TORSDOF 3
ENDMDL
MODEL 9
REMARK VINA RESULT:      -6.3      3.690      8.238
REMARK  Name = 
REMARK  6 active torsions:
REMARK  status: ('A' for Active; 'I' for Inactive)
REMARK    1  A    between atoms: C_1  and  C_2
REMARK    2  A    between atoms: C_2  and  N_3
REMARK    3  A    between atoms: C_7  and  C_9
REMARK    4  A    between atoms: C_14  and  O_15
REMARK    5  A    between atoms: O_15  and  C_16
REMARK    6  A    between atoms: C_19  and  C_20
REMARK                            x       y       z     vdW  Elec       q    Type
REMARK                         _______ _______ _______ _____ _____    ______ ____
ROOT
ATOM      1  C   UNL     1       0.697  10.423  18.684  0.00  0.00    +0.000 A 
ATOM      2  N   UNL     1       1.600   9.939  17.756  0.00  0.00    +0.000 N 
ATOM      3  C   UNL     1       2.073   8.701  18.101  0.00  0.00    +0.000 A 
ATOM      4  C   UNL     1       2.877   7.810  17.386  0.00  0.00    +0.000 A 
ATOM      5  C   UNL     1       3.309   6.662  18.056  0.00  0.00    +0.000 A 
ATOM      6  C   UNL     1       2.955   6.415  19.383  0.00  0.00    +0.000 A 
ATOM      7  C   UNL     1       2.099   7.299  20.052  0.00  0.00    +0.000 A 
ATOM      8  C   UNL     1       1.635   8.459  19.395  0.00  0.00    +0.000 A 
ATOM      9  C   UNL     1       0.753   9.533  19.758  0.00  0.00    +0.000 A 
ATOM     10  C   UNL     1       0.024   9.659  21.053  0.00  0.00    +0.000 C 
ATOM     11  H   UNL     1       1.858  10.418  16.908  0.00  0.00    +0.000 HD
ENDROOT
BRANCH   1  16
ATOM     12  N   UNL     1       2.089  15.250  19.637  0.00  0.00    +0.000 NA
ATOM     13  C   UNL     1       0.602  15.212  19.573  0.00  0.00    +0.000 C 
ATOM     14  C   UNL     1      -0.074  14.157  18.641  0.00  0.00    +0.000 C 
ATOM     15  N   UNL     1       0.650  12.882  18.607  0.00  0.00    +0.000 N 
ATOM     16  C   UNL     1      -0.051  11.673  18.556  0.00  0.00    +0.000 C 
ATOM     17  O   UNL     1      -1.277  11.666  18.431  0.00  0.00    +0.000 OA
ATOM     18  C   UNL     1       2.089  13.057  18.425  0.00  0.00    +0.000 C 
ATOM     19  C   UNL     1       2.617  13.868  19.621  0.00  0.00    +0.000 C 
BRANCH  12  21
ATOM     20  C   UNL     1       1.910  17.194  18.041  0.00  0.00    +0.000 C 
ATOM     21  C   UNL     1       2.738  16.037  18.579  0.00  0.00    +0.000 C 
ENDBRANCH  12  21
ENDBRANCH   1  16
BRANCH   6  22
ATOM     22  O   UNL     1       3.502   5.280  19.918  0.00  0.00    +0.000 OA
ATOM     23  C   UNL     1       4.693   4.802  19.304  0.00  0.00    +0.000 C 
ENDBRANCH   6  22
TORSDOF 3
ENDMDL
