MODEL 1
REMARK VINA RESULT:      -7.4      0.000      0.000
REMARK  Name = 
REMARK  3 active torsions:
REMARK  status: ('A' for Active; 'I' for Inactive)
REMARK    1  A    between atoms: C_2  and  C_3
REMARK    2  A    between atoms: C_3  and  N_4
REMARK    3  A    between atoms: C_13  and  C_14
REMARK                            x       y       z     vdW  Elec       q    Type
REMARK                         _______ _______ _______ _____ _____    ______ ____
ROOT
ATOM      1  O   UNL     1       3.728   1.766  17.783  0.00  0.00    +0.000 OA
ATOM      2  C   UNL     1       3.672   2.990  17.924  0.00  0.00    +0.000 C 
ATOM      3  N   UNL     1       2.997   3.470  19.019  0.00  0.00    +0.000 N 
ATOM      4  C   UNL     1       2.639   4.792  19.292  0.00  0.00    +0.000 A 
ATOM      5  C   UNL     1       2.121   5.085  20.546  0.00  0.00    +0.000 A 
ATOM      6  C   UNL     1       1.735   6.401  20.827  0.00  0.00    +0.000 A 
ATOM      7  C   UNL     1       1.839   7.390  19.845  0.00  0.00    +0.000 A 
ATOM      8  C   UNL     1       2.371   6.988  18.624  0.00  0.00    +0.000 A 
ATOM      9  N   UNL     1       2.774   5.724  18.339  0.00  0.00    +0.000 NA
ATOM     10  H   UNL     1       2.690   2.749  19.658  0.00  0.00    +0.000 HD
ENDROOT
BRANCH   7  11
ATOM     11  C   UNL     1       1.412   8.771  20.105  0.00  0.00    +0.000 A 
ATOM     12  C   UNL     1       1.099   9.375  21.313  0.00  0.00    +0.000 A 
ATOM     13  C   UNL     1       0.698  10.738  21.164  0.00  0.00    +0.000 A 
ATOM     14  C   UNL     1       0.717  11.114  19.849  0.00  0.00    +0.000 A 
ATOM     15 CL   UNL     1       0.310  12.657  19.216  0.00  0.00    +0.000 Cl
ATOM     16  S   UNL     1       1.195   9.879  18.802  0.00  0.00    +0.000 S 
ENDBRANCH   7  11
BRANCH   2  17
ATOM     17  C   UNL     1       4.333   3.966  16.970  0.00  0.00    +0.000 C 
BRANCH  17  18
ATOM     18  N   UNL     1       5.757   4.126  17.172  0.00  0.00    +0.000 N 
ATOM     19  C   UNL     1       6.749   4.351  16.273  0.00  0.00    +0.000 A 
ATOM     20  N   UNL     1       7.861   4.600  16.930  0.00  0.00    +0.000 NA
ATOM     21  N   UNL     1       7.531   4.542  18.263  0.00  0.00    +0.000 NA
ATOM     22  N   UNL     1       6.244   4.267  18.422  0.00  0.00    +0.000 NA
ENDBRANCH  17  18
ENDBRANCH   2  17
TORSDOF 3
ENDMDL
MODEL 2
REMARK VINA RESULT:      -7.0      1.608      2.162
REMARK  Name = 
REMARK  3 active torsions:
REMARK  status: ('A' for Active; 'I' for Inactive)
REMARK    1  A    between atoms: C_2  and  C_3
REMARK    2  A    between atoms: C_3  and  N_4
REMARK    3  A    between atoms: C_13  and  C_14
REMARK                            x       y       z     vdW  Elec       q    Type
REMARK                         _______ _______ _______ _____ _____    ______ ____
ROOT
ATOM      1  O   UNL     1       4.232   3.759  19.598  0.00  0.00    +0.000 OA
ATOM      2  C   UNL     1       3.974   4.924  19.285  0.00  0.00    +0.000 C 
ATOM      3  N   UNL     1       3.041   5.589  20.040  0.00  0.00    +0.000 N 
ATOM      4  C   UNL     1       2.450   6.827  19.777  0.00  0.00    +0.000 A 
ATOM      5  C   UNL     1       1.666   7.404  20.766  0.00  0.00    +0.000 A 
ATOM      6  C   UNL     1       1.047   8.632  20.507  0.00  0.00    +0.000 A 
ATOM      7  C   UNL     1       1.192   9.245  19.260  0.00  0.00    +0.000 A 
ATOM      8  C   UNL     1       2.000   8.581  18.342  0.00  0.00    +0.000 A 
ATOM      9  N   UNL     1       2.628   7.402  18.580  0.00  0.00    +0.000 NA
ATOM     10  H   UNL     1       2.724   5.071  20.850  0.00  0.00    +0.000 HD
ENDROOT
BRANCH   7  11
ATOM     11  C   UNL     1       0.529  10.519  18.953  0.00  0.00    +0.000 A 
ATOM     12  C   UNL     1      -0.709  10.740  18.369  0.00  0.00    +0.000 A 
ATOM     13  C   UNL     1      -1.006  12.128  18.209  0.00  0.00    +0.000 A 
ATOM     14  C   UNL     1       0.019  12.906  18.673  0.00  0.00    +0.000 A 
ATOM     15 CL   UNL     1       0.085  14.622  18.676  0.00  0.00    +0.000 Cl
ATOM     16  S   UNL     1       1.316  12.017  19.284  0.00  0.00    +0.000 S 
ENDBRANCH   7  11
BRANCH   2  17
ATOM     17  C   UNL     1       4.657   5.646  18.140  0.00  0.00    +0.000 C 
BRANCH  17  18
ATOM     18  N   UNL     1       5.944   5.096  17.771  0.00  0.00    +0.000 N 
ATOM     19  C   UNL     1       6.465   4.833  16.546  0.00  0.00    +0.000 A 
ATOM     20  N   UNL     1       7.729   4.503  16.689  0.00  0.00    +0.000 NA
ATOM     21  N   UNL     1       7.988   4.585  18.038  0.00  0.00    +0.000 NA
ATOM     22  N   UNL     1       6.906   4.961  18.706  0.00  0.00    +0.000 NA
ENDBRANCH  17  18
ENDBRANCH   2  17
TORSDOF 3
ENDMDL
MODEL 3
REMARK VINA RESULT:      -7.0      1.127      1.191
REMARK  Name = 
REMARK  3 active torsions:
REMARK  status: ('A' for Active; 'I' for Inactive)
REMARK    1  A    between atoms: C_2  and  C_3
REMARK    2  A    between atoms: C_3  and  N_4
REMARK    3  A    between atoms: C_13  and  C_14
REMARK                            x       y       z     vdW  Elec       q    Type
REMARK                         _______ _______ _______ _____ _____    ______ ____
ROOT
ATOM      1  O   UNL     1       4.145   2.534  18.292  0.00  0.00    +0.000 OA
ATOM      2  C   UNL     1       4.009   3.752  18.424  0.00  0.00    +0.000 C 
ATOM      3  N   UNL     1       3.085   4.190  19.339  0.00  0.00    +0.000 N 
ATOM      4  C   UNL     1       2.622   5.493  19.532  0.00  0.00    +0.000 A 
ATOM      5  C   UNL     1       1.822   5.749  20.636  0.00  0.00    +0.000 A 
ATOM      6  C   UNL     1       1.329   7.045  20.830  0.00  0.00    +0.000 A 
ATOM      7  C   UNL     1       1.613   8.051  19.903  0.00  0.00    +0.000 A 
ATOM      8  C   UNL     1       2.424   7.687  18.832  0.00  0.00    +0.000 A 
ATOM      9  N   UNL     1       2.931   6.443  18.639  0.00  0.00    +0.000 NA
ATOM     10  H   UNL     1       2.670   3.449  19.888  0.00  0.00    +0.000 HD
ENDROOT
BRANCH   7  11
ATOM     11  C   UNL     1       1.083   9.411  20.067  0.00  0.00    +0.000 A 
ATOM     12  C   UNL     1       0.735  10.077  21.231  0.00  0.00    +0.000 A 
ATOM     13  C   UNL     1       0.229  11.391  20.988  0.00  0.00    +0.000 A 
ATOM     14  C   UNL     1       0.208  11.669  19.648  0.00  0.00    +0.000 A 
ATOM     15 CL   UNL     1      -0.322  13.125  18.910  0.00  0.00    +0.000 Cl
ATOM     16  S   UNL     1       0.771  10.400  18.689  0.00  0.00    +0.000 S 
ENDBRANCH   7  11
BRANCH   2  17
ATOM     17  C   UNL     1       4.829   4.766  17.650  0.00  0.00    +0.000 C 
BRANCH  17  18
ATOM     18  N   UNL     1       6.068   5.148  18.295  0.00  0.00    +0.000 N 
ATOM     19  C   UNL     1       7.089   5.920  17.841  0.00  0.00    +0.000 A 
ATOM     20  N   UNL     1       7.924   6.136  18.834  0.00  0.00    +0.000 NA
ATOM     21  N   UNL     1       7.386   5.491  19.923  0.00  0.00    +0.000 NA
ATOM     22  N   UNL     1       6.244   4.897  19.608  0.00  0.00    +0.000 NA
ENDBRANCH  17  18
ENDBRANCH   2  17
TORSDOF 3
ENDMDL
MODEL 4
REMARK VINA RESULT:      -7.0      4.438      5.964
REMARK  Name = 
REMARK  3 active torsions:
REMARK  status: ('A' for Active; 'I' for Inactive)
REMARK    1  A    between atoms: C_2  and  C_3
REMARK    2  A    between atoms: C_3  and  N_4
REMARK    3  A    between atoms: C_13  and  C_14
REMARK                            x       y       z     vdW  Elec       q    Type
REMARK                         _______ _______ _______ _____ _____    ______ ____
ROOT
ATOM      1  O   UNL     1       7.991   5.524  13.201  0.00  0.00    +0.000 OA
ATOM      2  C   UNL     1       7.102   5.044  13.910  0.00  0.00    +0.000 C 
ATOM      3  N   UNL     1       6.464   5.891  14.781  0.00  0.00    +0.000 N 
ATOM      4  C   UNL     1       5.572   5.556  15.802  0.00  0.00    +0.000 A 
ATOM      5  C   UNL     1       4.897   6.582  16.447  0.00  0.00    +0.000 A 
ATOM      6  C   UNL     1       4.019   6.264  17.490  0.00  0.00    +0.000 A 
ATOM      7  C   UNL     1       3.856   4.936  17.893  0.00  0.00    +0.000 A 
ATOM      8  C   UNL     1       4.580   3.986  17.178  0.00  0.00    +0.000 A 
ATOM      9  N   UNL     1       5.418   4.271  16.149  0.00  0.00    +0.000 NA
ATOM     10  H   UNL     1       6.732   6.861  14.680  0.00  0.00    +0.000 HD
ENDROOT
BRANCH   7  11
ATOM     11  C   UNL     1       2.965   4.579  19.003  0.00  0.00    +0.000 A 
ATOM     12  C   UNL     1       1.937   5.318  19.570  0.00  0.00    +0.000 A 
ATOM     13  C   UNL     1       1.304   4.643  20.658  0.00  0.00    +0.000 A 
ATOM     14  C   UNL     1       1.878   3.421  20.879  0.00  0.00    +0.000 A 
ATOM     15 CL   UNL     1       1.433   2.280  22.082  0.00  0.00    +0.000 Cl
ATOM     16  S   UNL     1       3.148   3.074  19.824  0.00  0.00    +0.000 S 
ENDBRANCH   7  11
BRANCH   2  17
ATOM     17  C   UNL     1       6.677   3.591  13.837  0.00  0.00    +0.000 C 
BRANCH  17  18
ATOM     18  N   UNL     1       5.875   3.262  12.677  0.00  0.00    +0.000 N 
ATOM     19  C   UNL     1       5.995   2.240  11.792  0.00  0.00    +0.000 A 
ATOM     20  N   UNL     1       4.941   2.241  11.005  0.00  0.00    +0.000 NA
ATOM     21  N   UNL     1       4.153   3.282  11.435  0.00  0.00    +0.000 NA
ATOM     22  N   UNL     1       4.708   3.903  12.467  0.00  0.00    +0.000 NA
ENDBRANCH  17  18
ENDBRANCH   2  17
TORSDOF 3
ENDMDL
MODEL 5
REMARK VINA RESULT:      -6.9      1.152      1.407
REMARK  Name = 
REMARK  3 active torsions:
REMARK  status: ('A' for Active; 'I' for Inactive)
REMARK    1  A    between atoms: C_2  and  C_3
REMARK    2  A    between atoms: C_3  and  N_4
REMARK    3  A    between atoms: C_13  and  C_14
REMARK                            x       y       z     vdW  Elec       q    Type
REMARK                         _______ _______ _______ _____ _____    ______ ____
ROOT
ATOM      1  O   UNL     1       3.685   2.603  18.629  0.00  0.00    +0.000 OA
ATOM      2  C   UNL     1       3.611   3.831  18.541  0.00  0.00    +0.000 C 
ATOM      3  N   UNL     1       2.861   4.487  19.485  0.00  0.00    +0.000 N 
ATOM      4  C   UNL     1       2.476   5.829  19.491  0.00  0.00    +0.000 A 
ATOM      5  C   UNL     1       1.874   6.334  20.635  0.00  0.00    +0.000 A 
ATOM      6  C   UNL     1       1.459   7.671  20.647  0.00  0.00    +0.000 A 
ATOM      7  C   UNL     1       1.621   8.469  19.511  0.00  0.00    +0.000 A 
ATOM      8  C   UNL     1       2.236   7.863  18.420  0.00  0.00    +0.000 A 
ATOM      9  N   UNL     1       2.667   6.576  18.395  0.00  0.00    +0.000 NA
ATOM     10  H   UNL     1       2.517   3.888  20.224  0.00  0.00    +0.000 HD
ENDROOT
BRANCH   7  11
ATOM     11  C   UNL     1       1.168   9.865  19.488  0.00  0.00    +0.000 A 
ATOM     12  C   UNL     1       1.413  10.847  18.541  0.00  0.00    +0.000 A 
ATOM     13  C   UNL     1       0.820  12.103  18.878  0.00  0.00    +0.000 A 
ATOM     14  C   UNL     1       0.152  12.026  20.069  0.00  0.00    +0.000 A 
ATOM     15 CL   UNL     1      -0.704  13.294  20.850  0.00  0.00    +0.000 Cl
ATOM     16  S   UNL     1       0.225  10.500  20.785  0.00  0.00    +0.000 S 
ENDBRANCH   7  11
BRANCH   2  17
ATOM     17  C   UNL     1       4.326   4.631  17.471  0.00  0.00    +0.000 C 
BRANCH  17  18
ATOM     18  N   UNL     1       5.765   4.472  17.469  0.00  0.00    +0.000 N 
ATOM     19  C   UNL     1       6.641   4.447  16.433  0.00  0.00    +0.000 A 
ATOM     20  N   UNL     1       7.864   4.457  16.918  0.00  0.00    +0.000 NA
ATOM     21  N   UNL     1       7.725   4.506  18.285  0.00  0.00    +0.000 NA
ATOM     22  N   UNL     1       6.446   4.531  18.631  0.00  0.00    +0.000 NA
ENDBRANCH  17  18
ENDBRANCH   2  17
TORSDOF 3
ENDMDL
MODEL 6
REMARK VINA RESULT:      -6.8      1.916      2.504
REMARK  Name = 
REMARK  3 active torsions:
REMARK  status: ('A' for Active; 'I' for Inactive)
REMARK    1  A    between atoms: C_2  and  C_3
REMARK    2  A    between atoms: C_3  and  N_4
REMARK    3  A    between atoms: C_13  and  C_14
REMARK                            x       y       z     vdW  Elec       q    Type
REMARK                         _______ _______ _______ _____ _____    ______ ____
ROOT
ATOM      1  O   UNL     1       4.913   4.105  18.102  0.00  0.00    +0.000 OA
ATOM      2  C   UNL     1       4.483   5.255  17.986  0.00  0.00    +0.000 C 
ATOM      3  N   UNL     1       3.601   5.698  18.939  0.00  0.00    +0.000 N 
ATOM      4  C   UNL     1       2.843   6.871  18.925  0.00  0.00    +0.000 A 
ATOM      5  C   UNL     1       2.152   7.220  20.077  0.00  0.00    +0.000 A 
ATOM      6  C   UNL     1       1.368   8.379  20.070  0.00  0.00    +0.000 A 
ATOM      7  C   UNL     1       1.259   9.149  18.908  0.00  0.00    +0.000 A 
ATOM      8  C   UNL     1       1.993   8.709  17.811  0.00  0.00    +0.000 A 
ATOM      9  N   UNL     1       2.778   7.602  17.804  0.00  0.00    +0.000 NA
ATOM     10  H   UNL     1       3.467   5.052  19.705  0.00  0.00    +0.000 HD
ENDROOT
BRANCH   7  11
ATOM     11  C   UNL     1       0.419  10.352  18.867  0.00  0.00    +0.000 A 
ATOM     12  C   UNL     1      -0.805  10.541  18.243  0.00  0.00    +0.000 A 
ATOM     13  C   UNL     1      -1.310  11.868  18.405  0.00  0.00    +0.000 A 
ATOM     14  C   UNL     1      -0.449  12.635  19.139  0.00  0.00    +0.000 A 
ATOM     15 CL   UNL     1      -0.657  14.283  19.574  0.00  0.00    +0.000 Cl
ATOM     16  S   UNL     1       0.939  11.809  19.629  0.00  0.00    +0.000 S 
ENDBRANCH   7  11
BRANCH   2  17
ATOM     17  C   UNL     1       4.905   6.189  16.869  0.00  0.00    +0.000 C 
BRANCH  17  18
ATOM     18  N   UNL     1       5.829   5.606  15.920  0.00  0.00    +0.000 N 
ATOM     19  C   UNL     1       5.589   4.918  14.774  0.00  0.00    +0.000 A 
ATOM     20  N   UNL     1       6.731   4.733  14.149  0.00  0.00    +0.000 NA
ATOM     21  N   UNL     1       7.688   5.339  14.928  0.00  0.00    +0.000 NA
ATOM     22  N   UNL     1       7.145   5.888  16.006  0.00  0.00    +0.000 NA
ENDBRANCH  17  18
ENDBRANCH   2  17
TORSDOF 3
ENDMDL
MODEL 7
REMARK VINA RESULT:      -6.8      2.447      3.844
REMARK  Name = 
REMARK  3 active torsions:
REMARK  status: ('A' for Active; 'I' for Inactive)
REMARK    1  A    between atoms: C_2  and  C_3
REMARK    2  A    between atoms: C_3  and  N_4
REMARK    3  A    between atoms: C_13  and  C_14
REMARK                            x       y       z     vdW  Elec       q    Type
REMARK                         _______ _______ _______ _____ _____    ______ ____
ROOT
ATOM      1  O   UNL     1       5.350   4.458  17.567  0.00  0.00    +0.000 OA
ATOM      2  C   UNL     1       4.431   5.003  18.184  0.00  0.00    +0.000 C 
ATOM      3  N   UNL     1       3.924   6.167  17.663  0.00  0.00    +0.000 N 
ATOM      4  C   UNL     1       3.028   7.055  18.262  0.00  0.00    +0.000 A 
ATOM      5  C   UNL     1       2.500   8.077  17.487  0.00  0.00    +0.000 A 
ATOM      6  C   UNL     1       1.620   8.990  18.080  0.00  0.00    +0.000 A 
ATOM      7  C   UNL     1       1.311   8.889  19.439  0.00  0.00    +0.000 A 
ATOM      8  C   UNL     1       1.895   7.826  20.122  0.00  0.00    +0.000 A 
ATOM      9  N   UNL     1       2.731   6.916  19.561  0.00  0.00    +0.000 NA
ATOM     10  H   UNL     1       4.304   6.410  16.757  0.00  0.00    +0.000 HD
ENDROOT
BRANCH   7  11
ATOM     11  C   UNL     1       0.414   9.851  20.092  0.00  0.00    +0.000 A 
ATOM     12  C   UNL     1      -0.287  10.908  19.533  0.00  0.00    +0.000 A 
ATOM     13  C   UNL     1      -1.043  11.643  20.497  0.00  0.00    +0.000 A 
ATOM     14  C   UNL     1      -0.881  11.120  21.751  0.00  0.00    +0.000 A 
ATOM     15 CL   UNL     1      -1.603  11.687  23.201  0.00  0.00    +0.000 Cl
ATOM     16  S   UNL     1       0.148   9.784  21.794  0.00  0.00    +0.000 S 
ENDBRANCH   7  11
BRANCH   2  17
ATOM     17  C   UNL     1       3.832   4.433  19.454  0.00  0.00    +0.000 C 
BRANCH  17  18
ATOM     18  N   UNL     1       2.630   3.654  19.249  0.00  0.00    +0.000 N 
ATOM     19  C   UNL     1       1.746   3.155  20.151  0.00  0.00    +0.000 A 
ATOM     20  N   UNL     1       0.715   2.663  19.499  0.00  0.00    +0.000 NA
ATOM     21  N   UNL     1       0.973   2.884  18.166  0.00  0.00    +0.000 NA
ATOM     22  N   UNL     1       2.135   3.502  18.004  0.00  0.00    +0.000 NA
ENDBRANCH  17  18
ENDBRANCH   2  17
TORSDOF 3
ENDMDL
MODEL 8
REMARK VINA RESULT:      -6.8      1.456      1.701
REMARK  Name = 
REMARK  3 active torsions:
REMARK  status: ('A' for Active; 'I' for Inactive)
REMARK    1  A    between atoms: C_2  and  C_3
REMARK    2  A    between atoms: C_3  and  N_4
REMARK    3  A    between atoms: C_13  and  C_14
REMARK                            x       y       z     vdW  Elec       q    Type
REMARK                         _______ _______ _______ _____ _____    ______ ____
ROOT
ATOM      1  O   UNL     1       4.453   3.174  17.098  0.00  0.00    +0.000 OA
ATOM      2  C   UNL     1       4.200   4.291  17.555  0.00  0.00    +0.000 C 
ATOM      3  N   UNL     1       3.367   4.354  18.644  0.00  0.00    +0.000 N 
ATOM      4  C   UNL     1       2.790   5.489  19.217  0.00  0.00    +0.000 A 
ATOM      5  C   UNL     1       2.127   5.349  20.428  0.00  0.00    +0.000 A 
ATOM      6  C   UNL     1       1.522   6.473  21.002  0.00  0.00    +0.000 A 
ATOM      7  C   UNL     1       1.559   7.705  20.344  0.00  0.00    +0.000 A 
ATOM      8  C   UNL     1       2.250   7.735  19.137  0.00  0.00    +0.000 A 
ATOM      9  N   UNL     1       2.864   6.663  18.574  0.00  0.00    +0.000 NA
ATOM     10  H   UNL     1       3.119   3.449  19.022  0.00  0.00    +0.000 HD
ENDROOT
BRANCH   7  11
ATOM     11  C   UNL     1       0.906   8.892  20.911  0.00  0.00    +0.000 A 
ATOM     12  C   UNL     1       0.394   9.082  22.185  0.00  0.00    +0.000 A 
ATOM     13  C   UNL     1      -0.192  10.373  22.360  0.00  0.00    +0.000 A 
ATOM     14  C   UNL     1      -0.107  11.111  21.211  0.00  0.00    +0.000 A 
ATOM     15 CL   UNL     1      -0.680  12.712  20.974  0.00  0.00    +0.000 Cl
ATOM     16  S   UNL     1       0.648  10.295  19.942  0.00  0.00    +0.000 S 
ENDBRANCH   7  11
BRANCH   2  17
ATOM     17  C   UNL     1       4.784   5.571  16.989  0.00  0.00    +0.000 C 
BRANCH  17  18
ATOM     18  N   UNL     1       5.795   5.367  15.973  0.00  0.00    +0.000 N 
ATOM     19  C   UNL     1       5.671   4.952  14.687  0.00  0.00    +0.000 A 
ATOM     20  N   UNL     1       6.835   5.082  14.090  0.00  0.00    +0.000 NA
ATOM     21  N   UNL     1       7.685   5.607  15.036  0.00  0.00    +0.000 NA
ATOM     22  N   UNL     1       7.054   5.798  16.186  0.00  0.00    +0.000 NA
ENDBRANCH  17  18
ENDBRANCH   2  17
TORSDOF 3
ENDMDL
MODEL 9
REMARK VINA RESULT:      -6.8      2.093      2.790
REMARK  Name = 
REMARK  3 active torsions:
REMARK  status: ('A' for Active; 'I' for Inactive)
REMARK    1  A    between atoms: C_2  and  C_3
REMARK    2  A    between atoms: C_3  and  N_4
REMARK    3  A    between atoms: C_13  and  C_14
REMARK                            x       y       z     vdW  Elec       q    Type
REMARK                         _______ _______ _______ _____ _____    ______ ____
ROOT
ATOM      1  O   UNL     1       4.016   4.578  18.338  0.00  0.00    +0.000 OA
ATOM      2  C   UNL     1       3.724   5.773  18.254  0.00  0.00    +0.000 C 
ATOM      3  N   UNL     1       2.888   6.287  19.213  0.00  0.00    +0.000 N 
ATOM      4  C   UNL     1       2.271   7.540  19.229  0.00  0.00    +0.000 A 
ATOM      5  C   UNL     1       1.611   7.932  20.384  0.00  0.00    +0.000 A 
ATOM      6  C   UNL     1       0.967   9.175  20.407  0.00  0.00    +0.000 A 
ATOM      7  C   UNL     1       0.962   9.986  19.269  0.00  0.00    +0.000 A 
ATOM      8  C   UNL     1       1.654   9.497  18.166  0.00  0.00    +0.000 A 
ATOM      9  N   UNL     1       2.306   8.307  18.130  0.00  0.00    +0.000 NA
ATOM     10  H   UNL     1       2.670   5.638  19.957  0.00  0.00    +0.000 HD
ENDROOT
BRANCH   7  11
ATOM     11  C   UNL     1       0.268  11.280  19.258  0.00  0.00    +0.000 A 
ATOM     12  C   UNL     1      -1.051  11.565  19.573  0.00  0.00    +0.000 A 
ATOM     13  C   UNL     1      -1.371  12.950  19.419  0.00  0.00    +0.000 A 
ATOM     14  C   UNL     1      -0.284  13.660  18.988  0.00  0.00    +0.000 A 
ATOM     15 CL   UNL     1      -0.218  15.346  18.674  0.00  0.00    +0.000 Cl
ATOM     16  S   UNL     1       1.094  12.711  18.763  0.00  0.00    +0.000 S 
ENDBRANCH   7  11
BRANCH   2  17
ATOM     17  C   UNL     1       4.266   6.685  17.171  0.00  0.00    +0.000 C 
BRANCH  17  18
ATOM     18  N   UNL     1       5.614   6.372  16.746  0.00  0.00    +0.000 N 
ATOM     19  C   UNL     1       6.058   5.460  15.845  0.00  0.00    +0.000 A 
ATOM     20  N   UNL     1       7.346   5.650  15.656  0.00  0.00    +0.000 NA
ATOM     21  N   UNL     1       7.688   6.717  16.453  0.00  0.00    +0.000 NA
ATOM     22  N   UNL     1       6.634   7.175  17.112  0.00  0.00    +0.000 NA
ENDBRANCH  17  18
ENDBRANCH   2  17
TORSDOF 3
ENDMDL
