MODEL 1
REMARK VINA RESULT:      -7.5      0.000      0.000
REMARK  Name = 
REMARK  8 active torsions:
REMARK  status: ('A' for Active; 'I' for Inactive)
REMARK    1  A    between atoms: C_1  and  N_2
REMARK    2  A    between atoms: N_5  and  C_6
REMARK    3  A    between atoms: C_6  and  C_7
REMARK    4  A    between atoms: C_7  and  O_8
REMARK    5  A    between atoms: O_8  and  C_9
REMARK    6  A    between atoms: C_9  and  C_11
REMARK    7  A    between atoms: C_11  and  N_12
REMARK    8  A    between atoms: C_13  and  C_15
REMARK                            x       y       z     vdW  Elec       q    Type
REMARK                         _______ _______ _______ _____ _____    ______ ____
ROOT
ATOM      1  C   UNL     1       2.472   7.297  18.240  0.00  0.00    +0.000 C 
ENDROOT
BRANCH   1   6
ATOM      2  C   UNL     1       0.653  11.809  18.599  0.00  0.00    +0.000 C 
ATOM      3  N   UNL     1       0.902  10.503  19.197  0.00  0.00    +0.000 N 
ATOM      4  C   UNL     1       1.604   9.564  18.449  0.00  0.00    +0.000 A 
ATOM      5  O   UNL     1       2.043   9.824  17.327  0.00  0.00    +0.000 OA
ATOM      6  N   UNL     1       1.790   8.314  19.029  0.00  0.00    +0.000 N 
ATOM      7  C   UNL     1       1.423   7.974  20.321  0.00  0.00    +0.000 A 
ATOM      8  O   UNL     1       1.649   6.877  20.827  0.00  0.00    +0.000 OA
ATOM      9  C   UNL     1       0.735   9.006  21.106  0.00  0.00    +0.000 A 
ATOM     10  C   UNL     1       0.369   8.734  22.433  0.00  0.00    +0.000 A 
ATOM     11  C   UNL     1      -0.269   9.709  23.194  0.00  0.00    +0.000 A 
ATOM     12  C   UNL     1      -0.559  10.942  22.622  0.00  0.00    +0.000 A 
ATOM     13  C   UNL     1      -0.202  11.207  21.294  0.00  0.00    +0.000 A 
ATOM     14  C   UNL     1       0.468  10.244  20.524  0.00  0.00    +0.000 A 
ENDBRANCH   1   6
BRANCH   1  15
ATOM     15  C   UNL     1       3.813   7.772  17.673  0.00  0.00    +0.000 C 
BRANCH  15  16
ATOM     16  O   UNL     1       4.774   6.700  17.709  0.00  0.00    +0.000 OA
BRANCH  16  17
ATOM     17  C   UNL     1       4.971   6.058  16.525  0.00  0.00    +0.000 C 
ATOM     18  O   UNL     1       5.227   6.606  15.461  0.00  0.00    +0.000 OA
BRANCH  17  19
ATOM     19  C   UNL     1       4.963   4.555  16.706  0.00  0.00    +0.000 C 
BRANCH  19  20
ATOM     20  N   UNL     1       3.929   4.219  17.660  0.00  0.00    +0.000 N 
ATOM     21  C   UNL     1       4.212   3.750  18.920  0.00  0.00    +0.000 C 
ATOM     22  O   UNL     1       5.369   3.637  19.314  0.00  0.00    +0.000 OA
ATOM     23  H   UNL     1       2.959   4.365  17.402  0.00  0.00    +0.000 HD
BRANCH  21  24
ATOM     24  C   UNL     1       3.057   3.400  19.738  0.00  0.00    +0.000 A 
ATOM     25  C   UNL     1       3.081   2.818  20.991  0.00  0.00    +0.000 A 
ATOM     26  C   UNL     1       1.774   2.593  21.515  0.00  0.00    +0.000 A 
ATOM     27  C   UNL     1       0.794   3.009  20.645  0.00  0.00    +0.000 A 
ATOM     28  S   UNL     1       1.447   3.664  19.209  0.00  0.00    +0.000 S 
ENDBRANCH  21  24
ENDBRANCH  19  20
ENDBRANCH  17  19
ENDBRANCH  16  17
ENDBRANCH  15  16
ENDBRANCH   1  15
TORSDOF 7
ENDMDL
MODEL 2
REMARK VINA RESULT:      -7.4      2.243      3.444
REMARK  Name = 
REMARK  8 active torsions:
REMARK  status: ('A' for Active; 'I' for Inactive)
REMARK    1  A    between atoms: C_1  and  N_2
REMARK    2  A    between atoms: N_5  and  C_6
REMARK    3  A    between atoms: C_6  and  C_7
REMARK    4  A    between atoms: C_7  and  O_8
REMARK    5  A    between atoms: O_8  and  C_9
REMARK    6  A    between atoms: C_9  and  C_11
REMARK    7  A    between atoms: C_11  and  N_12
REMARK    8  A    between atoms: C_13  and  C_15
REMARK                            x       y       z     vdW  Elec       q    Type
REMARK                         _______ _______ _______ _____ _____    ______ ____
ROOT
ATOM      1  C   UNL     1       2.549   7.802  18.764  0.00  0.00    +0.000 C 
ENDROOT
BRANCH   1   6
ATOM      2  C   UNL     1       0.239  12.094  18.581  0.00  0.00    +0.000 C 
ATOM      3  N   UNL     1       0.563  10.870  19.305  0.00  0.00    +0.000 N 
ATOM      4  C   UNL     1       1.432   9.965  18.704  0.00  0.00    +0.000 A 
ATOM      5  O   UNL     1       1.951  10.192  17.610  0.00  0.00    +0.000 OA
ATOM      6  N   UNL     1       1.689   8.790  19.400  0.00  0.00    +0.000 N 
ATOM      7  C   UNL     1       1.232   8.504  20.677  0.00  0.00    +0.000 A 
ATOM      8  O   UNL     1       1.520   7.479  21.290  0.00  0.00    +0.000 OA
ATOM      9  C   UNL     1       0.363   9.506  21.308  0.00  0.00    +0.000 A 
ATOM     10  C   UNL     1      -0.103   9.290  22.613  0.00  0.00    +0.000 A 
ATOM     11  C   UNL     1      -0.913  10.239  23.229  0.00  0.00    +0.000 A 
ATOM     12  C   UNL     1      -1.272  11.388  22.533  0.00  0.00    +0.000 A 
ATOM     13  C   UNL     1      -0.814  11.595  21.227  0.00  0.00    +0.000 A 
ATOM     14  C   UNL     1       0.028  10.661  20.603  0.00  0.00    +0.000 A 
ENDBRANCH   1   6
BRANCH   1  15
ATOM     15  C   UNL     1       1.770   6.710  18.025  0.00  0.00    +0.000 C 
BRANCH  15  16
ATOM     16  O   UNL     1       1.966   5.438  18.670  0.00  0.00    +0.000 OA
BRANCH  16  17
ATOM     17  C   UNL     1       1.874   4.352  17.852  0.00  0.00    +0.000 C 
ATOM     18  O   UNL     1       0.898   4.065  17.171  0.00  0.00    +0.000 OA
BRANCH  17  19
ATOM     19  C   UNL     1       3.186   3.601  17.786  0.00  0.00    +0.000 C 
BRANCH  19  20
ATOM     20  N   UNL     1       4.258   4.567  17.689  0.00  0.00    +0.000 N 
ATOM     21  C   UNL     1       5.354   4.539  18.516  0.00  0.00    +0.000 C 
ATOM     22  O   UNL     1       5.498   3.655  19.355  0.00  0.00    +0.000 OA
ATOM     23  H   UNL     1       4.215   5.273  16.962  0.00  0.00    +0.000 HD
BRANCH  21  24
ATOM     24  C   UNL     1       6.315   5.620  18.329  0.00  0.00    +0.000 A 
ATOM     25  C   UNL     1       6.253   6.622  17.380  0.00  0.00    +0.000 A 
ATOM     26  C   UNL     1       7.359   7.518  17.457  0.00  0.00    +0.000 A 
ATOM     27  C   UNL     1       8.231   7.171  18.462  0.00  0.00    +0.000 A 
ATOM     28  S   UNL     1       7.718   5.775  19.303  0.00  0.00    +0.000 S 
ENDBRANCH  21  24
ENDBRANCH  19  20
ENDBRANCH  17  19
ENDBRANCH  16  17
ENDBRANCH  15  16
ENDBRANCH   1  15
TORSDOF 7
ENDMDL
MODEL 3
REMARK VINA RESULT:      -7.4      1.064      1.190
REMARK  Name = 
REMARK  8 active torsions:
REMARK  status: ('A' for Active; 'I' for Inactive)
REMARK    1  A    between atoms: C_1  and  N_2
REMARK    2  A    between atoms: N_5  and  C_6
REMARK    3  A    between atoms: C_6  and  C_7
REMARK    4  A    between atoms: C_7  and  O_8
REMARK    5  A    between atoms: O_8  and  C_9
REMARK    6  A    between atoms: C_9  and  C_11
REMARK    7  A    between atoms: C_11  and  N_12
REMARK    8  A    between atoms: C_13  and  C_15
REMARK                            x       y       z     vdW  Elec       q    Type
REMARK                         _______ _______ _______ _____ _____    ______ ____
ROOT
ATOM      1  C   UNL     1       2.333   7.349  18.234  0.00  0.00    +0.000 C 
ENDROOT
BRANCH   1   6
ATOM      2  C   UNL     1       0.636  11.907  18.613  0.00  0.00    +0.000 C 
ATOM      3  N   UNL     1       0.855  10.593  19.207  0.00  0.00    +0.000 N 
ATOM      4  C   UNL     1       1.526   9.637  18.452  0.00  0.00    +0.000 A 
ATOM      5  O   UNL     1       1.964   9.888  17.328  0.00  0.00    +0.000 OA
ATOM      6  N   UNL     1       1.684   8.383  19.030  0.00  0.00    +0.000 N 
ATOM      7  C   UNL     1       1.318   8.050  20.324  0.00  0.00    +0.000 A 
ATOM      8  O   UNL     1       1.518   6.947  20.826  0.00  0.00    +0.000 OA
ATOM      9  C   UNL     1       0.662   9.099  21.115  0.00  0.00    +0.000 A 
ATOM     10  C   UNL     1       0.299   8.834  22.444  0.00  0.00    +0.000 A 
ATOM     11  C   UNL     1      -0.308   9.825  23.211  0.00  0.00    +0.000 A 
ATOM     12  C   UNL     1      -0.570  11.066  22.643  0.00  0.00    +0.000 A 
ATOM     13  C   UNL     1      -0.215  11.323  21.313  0.00  0.00    +0.000 A 
ATOM     14  C   UNL     1       0.424  10.344  20.537  0.00  0.00    +0.000 A 
ENDBRANCH   1   6
BRANCH   1  15
ATOM     15  C   UNL     1       3.829   7.601  18.023  0.00  0.00    +0.000 C 
BRANCH  15  16
ATOM     16  O   UNL     1       4.285   6.917  16.841  0.00  0.00    +0.000 OA
BRANCH  16  17
ATOM     17  C   UNL     1       5.552   6.423  16.909  0.00  0.00    +0.000 C 
ATOM     18  O   UNL     1       6.565   7.099  17.033  0.00  0.00    +0.000 OA
BRANCH  17  19
ATOM     19  C   UNL     1       5.551   4.910  16.941  0.00  0.00    +0.000 C 
BRANCH  19  20
ATOM     20  N   UNL     1       4.743   4.480  18.060  0.00  0.00    +0.000 N 
ATOM     21  C   UNL     1       3.559   3.801  17.898  0.00  0.00    +0.000 C 
ATOM     22  O   UNL     1       3.152   3.484  16.784  0.00  0.00    +0.000 OA
ATOM     23  H   UNL     1       5.076   4.657  19.001  0.00  0.00    +0.000 HD
BRANCH  21  24
ATOM     24  C   UNL     1       2.834   3.494  19.125  0.00  0.00    +0.000 A 
ATOM     25  C   UNL     1       1.518   3.808  19.404  0.00  0.00    +0.000 A 
ATOM     26  C   UNL     1       1.116   3.376  20.702  0.00  0.00    +0.000 A 
ATOM     27  C   UNL     1       2.139   2.748  21.373  0.00  0.00    +0.000 A 
ATOM     28  S   UNL     1       3.570   2.680  20.443  0.00  0.00    +0.000 S 
ENDBRANCH  21  24
ENDBRANCH  19  20
ENDBRANCH  17  19
ENDBRANCH  16  17
ENDBRANCH  15  16
ENDBRANCH   1  15
TORSDOF 7
ENDMDL
MODEL 4
REMARK VINA RESULT:      -7.3      2.225      3.474
REMARK  Name = 
REMARK  8 active torsions:
REMARK  status: ('A' for Active; 'I' for Inactive)
REMARK    1  A    between atoms: C_1  and  N_2
REMARK    2  A    between atoms: N_5  and  C_6
REMARK    3  A    between atoms: C_6  and  C_7
REMARK    4  A    between atoms: C_7  and  O_8
REMARK    5  A    between atoms: O_8  and  C_9
REMARK    6  A    between atoms: C_9  and  C_11
REMARK    7  A    between atoms: C_11  and  N_12
REMARK    8  A    between atoms: C_13  and  C_15
REMARK                            x       y       z     vdW  Elec       q    Type
REMARK                         _______ _______ _______ _____ _____    ______ ____
ROOT
ATOM      1  C   UNL     1       2.768   6.618  18.701  0.00  0.00    +0.000 C 
ENDROOT
BRANCH   1   6
ATOM      2  C   UNL     1       0.935  11.111  18.203  0.00  0.00    +0.000 C 
ATOM      3  N   UNL     1       1.124   9.913  19.012  0.00  0.00    +0.000 N 
ATOM      4  C   UNL     1       1.890   8.880  18.483  0.00  0.00    +0.000 A 
ATOM      5  O   UNL     1       2.431   8.972  17.379  0.00  0.00    +0.000 OA
ATOM      6  N   UNL     1       2.019   7.735  19.261  0.00  0.00    +0.000 N 
ATOM      7  C   UNL     1       1.534   7.590  20.551  0.00  0.00    +0.000 A 
ATOM      8  O   UNL     1       1.710   6.586  21.236  0.00  0.00    +0.000 OA
ATOM      9  C   UNL     1       0.779   8.722  21.104  0.00  0.00    +0.000 A 
ATOM     10  C   UNL     1       0.293   8.650  22.417  0.00  0.00    +0.000 A 
ATOM     11  C   UNL     1      -0.410   9.722  22.960  0.00  0.00    +0.000 A 
ATOM     12  C   UNL     1      -0.644  10.851  22.183  0.00  0.00    +0.000 A 
ATOM     13  C   UNL     1      -0.166  10.915  20.869  0.00  0.00    +0.000 A 
ATOM     14  C   UNL     1       0.570   9.854  20.318  0.00  0.00    +0.000 A 
ENDBRANCH   1   6
BRANCH   1  15
ATOM     15  C   UNL     1       1.873   5.467  18.231  0.00  0.00    +0.000 C 
BRANCH  15  16
ATOM     16  O   UNL     1       2.230   4.251  18.913  0.00  0.00    +0.000 OA
BRANCH  16  17
ATOM     17  C   UNL     1       2.615   3.224  18.105  0.00  0.00    +0.000 C 
ATOM     18  O   UNL     1       2.008   2.844  17.113  0.00  0.00    +0.000 OA
BRANCH  17  19
ATOM     19  C   UNL     1       3.968   2.682  18.512  0.00  0.00    +0.000 C 
BRANCH  19  20
ATOM     20  N   UNL     1       4.889   3.792  18.616  0.00  0.00    +0.000 N 
ATOM     21  C   UNL     1       5.471   4.374  17.515  0.00  0.00    +0.000 C 
ATOM     22  O   UNL     1       5.197   4.003  16.378  0.00  0.00    +0.000 OA
ATOM     23  H   UNL     1       5.090   4.177  19.532  0.00  0.00    +0.000 HD
BRANCH  21  24
ATOM     24  C   UNL     1       6.424   5.442  17.794  0.00  0.00    +0.000 A 
ATOM     25  C   UNL     1       7.403   5.438  18.768  0.00  0.00    +0.000 A 
ATOM     26  C   UNL     1       8.161   6.645  18.787  0.00  0.00    +0.000 A 
ATOM     27  C   UNL     1       7.735   7.533  17.827  0.00  0.00    +0.000 A 
ATOM     28  S   UNL     1       6.432   6.913  16.913  0.00  0.00    +0.000 S 
ENDBRANCH  21  24
ENDBRANCH  19  20
ENDBRANCH  17  19
ENDBRANCH  16  17
ENDBRANCH  15  16
ENDBRANCH   1  15
TORSDOF 7
ENDMDL
MODEL 5
REMARK VINA RESULT:      -7.2      2.010      3.726
REMARK  Name = 
REMARK  8 active torsions:
REMARK  status: ('A' for Active; 'I' for Inactive)
REMARK    1  A    between atoms: C_1  and  N_2
REMARK    2  A    between atoms: N_5  and  C_6
REMARK    3  A    between atoms: C_6  and  C_7
REMARK    4  A    between atoms: C_7  and  O_8
REMARK    5  A    between atoms: O_8  and  C_9
REMARK    6  A    between atoms: C_9  and  C_11
REMARK    7  A    between atoms: C_11  and  N_12
REMARK    8  A    between atoms: C_13  and  C_15
REMARK                            x       y       z     vdW  Elec       q    Type
REMARK                         _______ _______ _______ _____ _____    ______ ____
ROOT
ATOM      1  C   UNL     1       2.683   6.412  18.861  0.00  0.00    +0.000 C 
ENDROOT
BRANCH   1   6
ATOM      2  C   UNL     1       1.220  11.006  18.120  0.00  0.00    +0.000 C 
ATOM      3  N   UNL     1       1.295   9.834  18.984  0.00  0.00    +0.000 N 
ATOM      4  C   UNL     1       1.991   8.723  18.521  0.00  0.00    +0.000 A 
ATOM      5  O   UNL     1       2.566   8.724  17.432  0.00  0.00    +0.000 OA
ATOM      6  N   UNL     1       2.010   7.607  19.351  0.00  0.00    +0.000 N 
ATOM      7  C   UNL     1       1.482   7.557  20.631  0.00  0.00    +0.000 A 
ATOM      8  O   UNL     1       1.560   6.573  21.362  0.00  0.00    +0.000 OA
ATOM      9  C   UNL     1       0.802   8.767  21.113  0.00  0.00    +0.000 A 
ATOM     10  C   UNL     1       0.277   8.790  22.413  0.00  0.00    +0.000 A 
ATOM     11  C   UNL     1      -0.354   9.935  22.889  0.00  0.00    +0.000 A 
ATOM     12  C   UNL     1      -0.478  11.044  22.059  0.00  0.00    +0.000 A 
ATOM     13  C   UNL     1       0.038  11.013  20.758  0.00  0.00    +0.000 A 
ATOM     14  C   UNL     1       0.703   9.876  20.274  0.00  0.00    +0.000 A 
ENDBRANCH   1   6
BRANCH   1  15
ATOM     15  C   UNL     1       1.716   5.348  18.333  0.00  0.00    +0.000 C 
BRANCH  15  16
ATOM     16  O   UNL     1       2.350   4.055  18.339  0.00  0.00    +0.000 OA
BRANCH  16  17
ATOM     17  C   UNL     1       2.693   3.583  19.570  0.00  0.00    +0.000 C 
ATOM     18  O   UNL     1       1.937   3.503  20.529  0.00  0.00    +0.000 OA
BRANCH  17  19
ATOM     19  C   UNL     1       4.107   3.042  19.577  0.00  0.00    +0.000 C 
BRANCH  19  20
ATOM     20  N   UNL     1       4.689   3.278  18.274  0.00  0.00    +0.000 N 
ATOM     21  C   UNL     1       5.678   4.208  18.066  0.00  0.00    +0.000 C 
ATOM     22  O   UNL     1       6.151   4.857  18.994  0.00  0.00    +0.000 OA
ATOM     23  H   UNL     1       4.379   2.715  17.491  0.00  0.00    +0.000 HD
BRANCH  21  24
ATOM     24  C   UNL     1       6.115   4.368  16.683  0.00  0.00    +0.000 A 
ATOM     25  C   UNL     1       5.752   3.578  15.609  0.00  0.00    +0.000 A 
ATOM     26  C   UNL     1       6.365   3.996  14.392  0.00  0.00    +0.000 A 
ATOM     27  C   UNL     1       7.178   5.089  14.575  0.00  0.00    +0.000 A 
ATOM     28  S   UNL     1       7.199   5.606  16.203  0.00  0.00    +0.000 S 
ENDBRANCH  21  24
ENDBRANCH  19  20
ENDBRANCH  17  19
ENDBRANCH  16  17
ENDBRANCH  15  16
ENDBRANCH   1  15
TORSDOF 7
ENDMDL
MODEL 6
REMARK VINA RESULT:      -7.1      2.473      6.762
REMARK  Name = 
REMARK  8 active torsions:
REMARK  status: ('A' for Active; 'I' for Inactive)
REMARK    1  A    between atoms: C_1  and  N_2
REMARK    2  A    between atoms: N_5  and  C_6
REMARK    3  A    between atoms: C_6  and  C_7
REMARK    4  A    between atoms: C_7  and  O_8
REMARK    5  A    between atoms: O_8  and  C_9
REMARK    6  A    between atoms: C_9  and  C_11
REMARK    7  A    between atoms: C_11  and  N_12
REMARK    8  A    between atoms: C_13  and  C_15
REMARK                            x       y       z     vdW  Elec       q    Type
REMARK                         _______ _______ _______ _____ _____    ______ ____
ROOT
ATOM      1  C   UNL     1       3.431   2.320  17.940  0.00  0.00    +0.000 C 
ENDROOT
BRANCH   1   6
ATOM      2  C   UNL     1       5.297   5.753  15.019  0.00  0.00    +0.000 C 
ATOM      3  N   UNL     1       5.267   5.085  16.315  0.00  0.00    +0.000 N 
ATOM      4  C   UNL     1       4.405   4.005  16.475  0.00  0.00    +0.000 A 
ATOM      5  O   UNL     1       3.708   3.588  15.549  0.00  0.00    +0.000 OA
ATOM      6  N   UNL     1       4.369   3.415  17.734  0.00  0.00    +0.000 N 
ATOM      7  C   UNL     1       5.193   3.752  18.795  0.00  0.00    +0.000 A 
ATOM      8  O   UNL     1       5.177   3.177  19.880  0.00  0.00    +0.000 OA
ATOM      9  C   UNL     1       6.133   4.860  18.576  0.00  0.00    +0.000 A 
ATOM     10  C   UNL     1       7.018   5.225  19.602  0.00  0.00    +0.000 A 
ATOM     11  C   UNL     1       7.925   6.261  19.401  0.00  0.00    +0.000 A 
ATOM     12  C   UNL     1       7.931   6.942  18.189  0.00  0.00    +0.000 A 
ATOM     13  C   UNL     1       7.040   6.581  17.172  0.00  0.00    +0.000 A 
ATOM     14  C   UNL     1       6.139   5.519  17.348  0.00  0.00    +0.000 A 
ENDBRANCH   1   6
BRANCH   1  15
ATOM     15  C   UNL     1       1.968   2.771  17.939  0.00  0.00    +0.000 C 
BRANCH  15  16
ATOM     16  O   UNL     1       1.825   3.995  18.684  0.00  0.00    +0.000 OA
BRANCH  16  17
ATOM     17  C   UNL     1       1.533   3.840  20.005  0.00  0.00    +0.000 C 
ATOM     18  O   UNL     1       0.818   2.962  20.469  0.00  0.00    +0.000 OA
BRANCH  17  19
ATOM     19  C   UNL     1       2.311   4.819  20.859  0.00  0.00    +0.000 C 
BRANCH  19  20
ATOM     20  N   UNL     1       1.741   6.135  20.672  0.00  0.00    +0.000 N 
ATOM     21  C   UNL     1       2.275   7.055  19.803  0.00  0.00    +0.000 C 
ATOM     22  O   UNL     1       3.245   6.782  19.102  0.00  0.00    +0.000 OA
ATOM     23  H   UNL     1       0.897   6.378  21.178  0.00  0.00    +0.000 HD
BRANCH  21  24
ATOM     24  C   UNL     1       1.619   8.357  19.778  0.00  0.00    +0.000 A 
ATOM     25  C   UNL     1       0.979   8.977  20.833  0.00  0.00    +0.000 A 
ATOM     26  C   UNL     1       0.429  10.242  20.473  0.00  0.00    +0.000 A 
ATOM     27  C   UNL     1       0.665  10.546  19.153  0.00  0.00    +0.000 A 
ATOM     28  S   UNL     1       1.543   9.315  18.357  0.00  0.00    +0.000 S 
ENDBRANCH  21  24
ENDBRANCH  19  20
ENDBRANCH  17  19
ENDBRANCH  16  17
ENDBRANCH  15  16
ENDBRANCH   1  15
TORSDOF 7
ENDMDL
MODEL 7
REMARK VINA RESULT:      -7.1      4.752      7.659
REMARK  Name = 
REMARK  8 active torsions:
REMARK  status: ('A' for Active; 'I' for Inactive)
REMARK    1  A    between atoms: C_1  and  N_2
REMARK    2  A    between atoms: N_5  and  C_6
REMARK    3  A    between atoms: C_6  and  C_7
REMARK    4  A    between atoms: C_7  and  O_8
REMARK    5  A    between atoms: O_8  and  C_9
REMARK    6  A    between atoms: C_9  and  C_11
REMARK    7  A    between atoms: C_11  and  N_12
REMARK    8  A    between atoms: C_13  and  C_15
REMARK                            x       y       z     vdW  Elec       q    Type
REMARK                         _______ _______ _______ _____ _____    ______ ____
ROOT
ATOM      1  C   UNL     1       4.536   6.550  16.567  0.00  0.00    +0.000 C 
ENDROOT
BRANCH   1   6
ATOM      2  C   UNL     1       3.833   1.789  17.370  0.00  0.00    +0.000 C 
ATOM      3  N   UNL     1       3.590   3.177  17.746  0.00  0.00    +0.000 N 
ATOM      4  C   UNL     1       4.138   4.177  16.948  0.00  0.00    +0.000 A 
ATOM      5  O   UNL     1       4.780   3.916  15.929  0.00  0.00    +0.000 OA
ATOM      6  N   UNL     1       3.923   5.489  17.355  0.00  0.00    +0.000 N 
ATOM      7  C   UNL     1       3.128   5.871  18.423  0.00  0.00    +0.000 A 
ATOM      8  O   UNL     1       2.913   7.042  18.728  0.00  0.00    +0.000 OA
ATOM      9  C   UNL     1       2.517   4.793  19.212  0.00  0.00    +0.000 A 
ATOM     10  C   UNL     1       1.674   5.117  20.285  0.00  0.00    +0.000 A 
ATOM     11  C   UNL     1       1.075   4.105  21.029  0.00  0.00    +0.000 A 
ATOM     12  C   UNL     1       1.337   2.777  20.715  0.00  0.00    +0.000 A 
ATOM     13  C   UNL     1       2.188   2.458  19.650  0.00  0.00    +0.000 A 
ATOM     14  C   UNL     1       2.776   3.466  18.872  0.00  0.00    +0.000 A 
ENDBRANCH   1   6
BRANCH   1  15
ATOM     15  C   UNL     1       6.067   6.524  16.609  0.00  0.00    +0.000 C 
BRANCH  15  16
ATOM     16  O   UNL     1       6.521   6.155  17.924  0.00  0.00    +0.000 OA
BRANCH  16  17
ATOM     17  C   UNL     1       7.620   6.827  18.368  0.00  0.00    +0.000 C 
ATOM     18  O   UNL     1       8.425   6.399  19.183  0.00  0.00    +0.000 OA
BRANCH  17  19
ATOM     19  C   UNL     1       7.799   8.136  17.629  0.00  0.00    +0.000 C 
BRANCH  19  20
ATOM     20  N   UNL     1       8.682   8.979  18.406  0.00  0.00    +0.000 N 
ATOM     21  C   UNL     1       8.703  10.346  18.272  0.00  0.00    +0.000 C 
ATOM     22  O   UNL     1       7.934  10.925  17.512  0.00  0.00    +0.000 OA
ATOM     23  H   UNL     1       9.285   8.548  19.097  0.00  0.00    +0.000 HD
BRANCH  21  24
ATOM     24  C   UNL     1       9.694  11.044  19.083  0.00  0.00    +0.000 A 
ATOM     25  C   UNL     1       9.576  11.380  20.418  0.00  0.00    +0.000 A 
ATOM     26  C   UNL     1      10.721  12.072  20.911  0.00  0.00    +0.000 A 
ATOM     27  C   UNL     1      11.675  12.244  19.936  0.00  0.00    +0.000 A 
ATOM     28  S   UNL     1      11.192  11.576  18.440  0.00  0.00    +0.000 S 
ENDBRANCH  21  24
ENDBRANCH  19  20
ENDBRANCH  17  19
ENDBRANCH  16  17
ENDBRANCH  15  16
ENDBRANCH   1  15
TORSDOF 7
ENDMDL
MODEL 8
REMARK VINA RESULT:      -7.1      1.090      2.504
REMARK  Name = 
REMARK  8 active torsions:
REMARK  status: ('A' for Active; 'I' for Inactive)
REMARK    1  A    between atoms: C_1  and  N_2
REMARK    2  A    between atoms: N_5  and  C_6
REMARK    3  A    between atoms: C_6  and  C_7
REMARK    4  A    between atoms: C_7  and  O_8
REMARK    5  A    between atoms: O_8  and  C_9
REMARK    6  A    between atoms: C_9  and  C_11
REMARK    7  A    between atoms: C_11  and  N_12
REMARK    8  A    between atoms: C_13  and  C_15
REMARK                            x       y       z     vdW  Elec       q    Type
REMARK                         _______ _______ _______ _____ _____    ______ ____
ROOT
ATOM      1  C   UNL     1       2.453   7.076  18.274  0.00  0.00    +0.000 C 
ENDROOT
BRANCH   1   6
ATOM      2  C   UNL     1       0.586   8.740  22.463  0.00  0.00    +0.000 C 
ATOM      3  N   UNL     1       0.972   8.976  21.077  0.00  0.00    +0.000 N 
ATOM      4  C   UNL     1       1.474   7.905  20.345  0.00  0.00    +0.000 A 
ATOM      5  O   UNL     1       1.560   6.774  20.827  0.00  0.00    +0.000 OA
ATOM      6  N   UNL     1       1.871   8.170  19.040  0.00  0.00    +0.000 N 
ATOM      7  C   UNL     1       1.710   9.383  18.389  0.00  0.00    +0.000 A 
ATOM      8  O   UNL     1       2.021   9.574  17.217  0.00  0.00    +0.000 OA
ATOM      9  C   UNL     1       1.124  10.480  19.172  0.00  0.00    +0.000 A 
ATOM     10  C   UNL     1       0.904  11.722  18.559  0.00  0.00    +0.000 A 
ATOM     11  C   UNL     1       0.334  12.765  19.284  0.00  0.00    +0.000 A 
ATOM     12  C   UNL     1       0.008  12.571  20.621  0.00  0.00    +0.000 A 
ATOM     13  C   UNL     1       0.239  11.332  21.232  0.00  0.00    +0.000 A 
ATOM     14  C   UNL     1       0.785  10.263  20.506  0.00  0.00    +0.000 A 
ENDBRANCH   1   6
BRANCH   1  15
ATOM     15  C   UNL     1       3.803   7.432  17.645  0.00  0.00    +0.000 C 
BRANCH  15  16
ATOM     16  O   UNL     1       4.709   6.318  17.751  0.00  0.00    +0.000 OA
BRANCH  16  17
ATOM     17  C   UNL     1       5.126   5.794  16.564  0.00  0.00    +0.000 C 
ATOM     18  O   UNL     1       5.689   6.422  15.677  0.00  0.00    +0.000 OA
BRANCH  17  19
ATOM     19  C   UNL     1       4.921   4.295  16.523  0.00  0.00    +0.000 C 
BRANCH  19  20
ATOM     20  N   UNL     1       4.377   3.876  17.796  0.00  0.00    +0.000 N 
ATOM     21  C   UNL     1       3.062   3.510  17.952  0.00  0.00    +0.000 C 
ATOM     22  O   UNL     1       2.291   3.477  16.998  0.00  0.00    +0.000 OA
ATOM     23  H   UNL     1       4.996   3.820  18.597  0.00  0.00    +0.000 HD
BRANCH  21  24
ATOM     24  C   UNL     1       2.658   3.173  19.312  0.00  0.00    +0.000 A 
ATOM     25  C   UNL     1       3.478   2.721  20.327  0.00  0.00    +0.000 A 
ATOM     26  C   UNL     1       2.765   2.470  21.536  0.00  0.00    +0.000 A 
ATOM     27  C   UNL     1       1.423   2.737  21.405  0.00  0.00    +0.000 A 
ATOM     28  S   UNL     1       1.028   3.286  19.835  0.00  0.00    +0.000 S 
ENDBRANCH  21  24
ENDBRANCH  19  20
ENDBRANCH  17  19
ENDBRANCH  16  17
ENDBRANCH  15  16
ENDBRANCH   1  15
TORSDOF 7
ENDMDL
MODEL 9
REMARK VINA RESULT:      -7.1      2.880      7.873
REMARK  Name = 
REMARK  8 active torsions:
REMARK  status: ('A' for Active; 'I' for Inactive)
REMARK    1  A    between atoms: C_1  and  N_2
REMARK    2  A    between atoms: N_5  and  C_6
REMARK    3  A    between atoms: C_6  and  C_7
REMARK    4  A    between atoms: C_7  and  O_8
REMARK    5  A    between atoms: O_8  and  C_9
REMARK    6  A    between atoms: C_9  and  C_11
REMARK    7  A    between atoms: C_11  and  N_12
REMARK    8  A    between atoms: C_13  and  C_15
REMARK                            x       y       z     vdW  Elec       q    Type
REMARK                         _______ _______ _______ _____ _____    ______ ____
ROOT
ATOM      1  C   UNL     1       1.164   7.110  20.494  0.00  0.00    +0.000 C 
ENDROOT
BRANCH   1   6
ATOM      2  C   UNL     1       3.827   3.063  19.929  0.00  0.00    +0.000 C 
ATOM      3  N   UNL     1       3.465   4.402  19.480  0.00  0.00    +0.000 N 
ATOM      4  C   UNL     1       2.535   5.114  20.231  0.00  0.00    +0.000 A 
ATOM      5  O   UNL     1       2.051   4.658  21.268  0.00  0.00    +0.000 OA
ATOM      6  N   UNL     1       2.179   6.371  19.755  0.00  0.00    +0.000 N 
ATOM      7  C   UNL     1       2.751   7.000  18.661  0.00  0.00    +0.000 A 
ATOM      8  O   UNL     1       2.455   8.135  18.296  0.00  0.00    +0.000 OA
ATOM      9  C   UNL     1       3.772   6.244  17.923  0.00  0.00    +0.000 A 
ATOM     10  C   UNL     1       4.412   6.841  16.827  0.00  0.00    +0.000 A 
ATOM     11  C   UNL     1       5.393   6.142  16.130  0.00  0.00    +0.000 A 
ATOM     12  C   UNL     1       5.714   4.845  16.514  0.00  0.00    +0.000 A 
ATOM     13  C   UNL     1       5.065   4.249  17.602  0.00  0.00    +0.000 A 
ATOM     14  C   UNL     1       4.095   4.952  18.333  0.00  0.00    +0.000 A 
ENDBRANCH   1   6
BRANCH   1  15
ATOM     15  C   UNL     1       1.754   8.100  21.503  0.00  0.00    +0.000 C 
BRANCH  15  16
ATOM     16  O   UNL     1       1.215   9.416  21.280  0.00  0.00    +0.000 OA
BRANCH  16  17
ATOM     17  C   UNL     1       0.550   9.958  22.338  0.00  0.00    +0.000 C 
ATOM     18  O   UNL     1       0.693   9.621  23.506  0.00  0.00    +0.000 OA
BRANCH  17  19
ATOM     19  C   UNL     1      -0.306  11.130  21.908  0.00  0.00    +0.000 C 
BRANCH  19  20
ATOM     20  N   UNL     1      -1.024  10.752  20.710  0.00  0.00    +0.000 N 
ATOM     21  C   UNL     1      -0.959  11.483  19.549  0.00  0.00    +0.000 C 
ATOM     22  O   UNL     1      -0.245  12.477  19.460  0.00  0.00    +0.000 OA
ATOM     23  H   UNL     1      -1.570   9.898  20.717  0.00  0.00    +0.000 HD
BRANCH  21  24
ATOM     24  C   UNL     1      -1.790  11.002  18.452  0.00  0.00    +0.000 A 
ATOM     25  C   UNL     1      -1.413  10.117  17.461  0.00  0.00    +0.000 A 
ATOM     26  C   UNL     1      -2.461   9.861  16.528  0.00  0.00    +0.000 A 
ATOM     27  C   UNL     1      -3.603  10.560  16.836  0.00  0.00    +0.000 A 
ATOM     28  S   UNL     1      -3.412  11.517  18.239  0.00  0.00    +0.000 S 
ENDBRANCH  21  24
ENDBRANCH  19  20
ENDBRANCH  17  19
ENDBRANCH  16  17
ENDBRANCH  15  16
ENDBRANCH   1  15
TORSDOF 7
ENDMDL
