MODEL 1
REMARK VINA RESULT:      -8.6      0.000      0.000
REMARK  Name = 
REMARK  5 active torsions:
REMARK  status: ('A' for Active; 'I' for Inactive)
REMARK    1  A    between atoms: C_1  and  C_2
REMARK    2  A    between atoms: C_8  and  C_9
REMARK    3  A    between atoms: C_13  and  C_14
REMARK    4  A    between atoms: C_17  and  N_18
REMARK    5  A    between atoms: C_19  and  C_21
REMARK                            x       y       z     vdW  Elec       q    Type
REMARK                         _______ _______ _______ _____ _____    ______ ____
ROOT
ATOM      1  C   UNL     1       4.707   4.978  17.272  0.00  0.00    +0.000 A 
ATOM      2  C   UNL     1       4.747   3.853  18.106  0.00  0.00    +0.000 A 
ATOM      3  C   UNL     1       4.052   3.843  19.310  0.00  0.00    +0.000 A 
ATOM      4  C   UNL     1       3.310   4.961  19.695  0.00  0.00    +0.000 A 
ATOM      5  C   UNL     1       3.233   6.109  18.886  0.00  0.00    +0.000 A 
ATOM      6  C   UNL     1       3.961   6.097  17.679  0.00  0.00    +0.000 A 
ENDROOT
BRANCH   1  14
ATOM      7  C   UNL     1       4.985   2.790  12.095  0.00  0.00    +0.000 C 
ATOM      8  C   UNL     1       5.999   3.757  12.623  0.00  0.00    +0.000 A 
ATOM      9  C   UNL     1       7.110   4.149  11.854  0.00  0.00    +0.000 A 
ATOM     10  C   UNL     1       8.072   5.039  12.346  0.00  0.00    +0.000 A 
ATOM     11  C   UNL     1       7.966   5.573  13.635  0.00  0.00    +0.000 A 
ATOM     12  C   UNL     1       6.871   5.197  14.423  0.00  0.00    +0.000 A 
ATOM     13  N   UNL     1       6.548   5.563  15.707  0.00  0.00    +0.000 NA
ATOM     14  C   UNL     1       5.419   4.940  15.994  0.00  0.00    +0.000 A 
ATOM     15  N   UNL     1       5.020   4.177  14.923  0.00  0.00    +0.000 N 
ATOM     16  C   UNL     1       5.928   4.320  13.906  0.00  0.00    +0.000 A 
ATOM     17  H   UNL     1       4.210   3.577  14.900  0.00  0.00    +0.000 HD
ENDBRANCH   1  14
BRANCH   5  18
ATOM     18  C   UNL     1       2.391   7.263  19.284  0.00  0.00    +0.000 A 
ATOM     19  C   UNL     1       2.104   8.315  18.402  0.00  0.00    +0.000 A 
ATOM     20  C   UNL     1       1.291   9.390  18.789  0.00  0.00    +0.000 A 
ATOM     21  C   UNL     1       0.748   9.454  20.073  0.00  0.00    +0.000 A 
ATOM     22  C   UNL     1       1.045   8.428  20.972  0.00  0.00    +0.000 A 
ATOM     23  C   UNL     1       1.833   7.343  20.571  0.00  0.00    +0.000 A 
BRANCH  21  24
ATOM     24  N   UNL     1      -0.077  10.504  20.525  0.00  0.00    +0.000 N 
ATOM     25  C   UNL     1       0.359  11.685  21.092  0.00  0.00    +0.000 C 
ATOM     26  O   UNL     1       1.531  12.022  21.219  0.00  0.00    +0.000 OA
ATOM     27  H   UNL     1      -1.061  10.413  20.339  0.00  0.00    +0.000 HD
BRANCH  25  28
ATOM     28  C   UNL     1      -0.705  12.581  21.535  0.00  0.00    +0.000 A 
ATOM     29  C   UNL     1      -1.140  13.003  22.826  0.00  0.00    +0.000 A 
ATOM     30  C   UNL     1      -2.189  13.870  22.623  0.00  0.00    +0.000 A 
ATOM     31  O   UNL     1      -2.437  14.014  21.297  0.00  0.00    +0.000 OA
ATOM     32  C   UNL     1      -1.540  13.235  20.648  0.00  0.00    +0.000 A 
ENDBRANCH  25  28
ENDBRANCH  21  24
ENDBRANCH   5  18
TORSDOF 4
ENDMDL
MODEL 2
REMARK VINA RESULT:      -8.5      4.599     11.827
REMARK  Name = 
REMARK  5 active torsions:
REMARK  status: ('A' for Active; 'I' for Inactive)
REMARK    1  A    between atoms: C_1  and  C_2
REMARK    2  A    between atoms: C_8  and  C_9
REMARK    3  A    between atoms: C_13  and  C_14
REMARK    4  A    between atoms: C_17  and  N_18
REMARK    5  A    between atoms: C_19  and  C_21
REMARK                            x       y       z     vdW  Elec       q    Type
REMARK                         _______ _______ _______ _____ _____    ______ ____
ROOT
ATOM      1  C   UNL     1      -1.344  12.431  20.040  0.00  0.00    +0.000 A 
ATOM      2  C   UNL     1      -0.693  13.512  19.431  0.00  0.00    +0.000 A 
ATOM      3  C   UNL     1       0.536  13.333  18.805  0.00  0.00    +0.000 A 
ATOM      4  C   UNL     1       1.129  12.070  18.784  0.00  0.00    +0.000 A 
ATOM      5  C   UNL     1       0.509  10.954  19.374  0.00  0.00    +0.000 A 
ATOM      6  C   UNL     1      -0.727  11.169  20.016  0.00  0.00    +0.000 A 
ENDROOT
BRANCH   1  14
ATOM      7  C   UNL     1      -4.353  12.549  24.793  0.00  0.00    +0.000 C 
ATOM      8  C   UNL     1      -4.959  12.777  23.443  0.00  0.00    +0.000 A 
ATOM      9  C   UNL     1      -6.338  13.003  23.286  0.00  0.00    +0.000 A 
ATOM     10  C   UNL     1      -6.917  13.200  22.026  0.00  0.00    +0.000 A 
ATOM     11  C   UNL     1      -6.136  13.176  20.866  0.00  0.00    +0.000 A 
ATOM     12  C   UNL     1      -4.760  12.950  20.993  0.00  0.00    +0.000 A 
ATOM     13  N   UNL     1      -3.791  12.866  20.022  0.00  0.00    +0.000 NA
ATOM     14  C   UNL     1      -2.654  12.646  20.656  0.00  0.00    +0.000 A 
ATOM     15  N   UNL     1      -2.878  12.577  22.010  0.00  0.00    +0.000 N 
ATOM     16  C   UNL     1      -4.214  12.767  22.255  0.00  0.00    +0.000 A 
ATOM     17  H   UNL     1      -2.180  12.380  22.711  0.00  0.00    +0.000 HD
ENDBRANCH   1  14
BRANCH   5  18
ATOM     18  C   UNL     1       1.127   9.609  19.288  0.00  0.00    +0.000 A 
ATOM     19  C   UNL     1       1.740   9.144  18.115  0.00  0.00    +0.000 A 
ATOM     20  C   UNL     1       2.336   7.876  18.057  0.00  0.00    +0.000 A 
ATOM     21  C   UNL     1       2.328   7.028  19.164  0.00  0.00    +0.000 A 
ATOM     22  C   UNL     1       1.699   7.464  20.332  0.00  0.00    +0.000 A 
ATOM     23  C   UNL     1       1.132   8.742  20.394  0.00  0.00    +0.000 A 
BRANCH  21  24
ATOM     24  N   UNL     1       2.909   5.743  19.173  0.00  0.00    +0.000 N 
ATOM     25  C   UNL     1       2.422   4.633  18.512  0.00  0.00    +0.000 C 
ATOM     26  O   UNL     1       1.452   4.623  17.761  0.00  0.00    +0.000 OA
ATOM     27  H   UNL     1       3.798   5.656  19.635  0.00  0.00    +0.000 HD
BRANCH  25  28
ATOM     28  C   UNL     1       3.177   3.405  18.737  0.00  0.00    +0.000 A 
ATOM     29  C   UNL     1       3.076   2.092  18.187  0.00  0.00    +0.000 A 
ATOM     30  C   UNL     1       4.070   1.343  18.775  0.00  0.00    +0.000 A 
ATOM     31  O   UNL     1       4.780   2.098  19.650  0.00  0.00    +0.000 OA
ATOM     32  C   UNL     1       4.236   3.338  19.624  0.00  0.00    +0.000 A 
ENDBRANCH  25  28
ENDBRANCH  21  24
ENDBRANCH   5  18
TORSDOF 4
ENDMDL
MODEL 3
REMARK VINA RESULT:      -8.4      0.645      1.086
REMARK  Name = 
REMARK  5 active torsions:
REMARK  status: ('A' for Active; 'I' for Inactive)
REMARK    1  A    between atoms: C_1  and  C_2
REMARK    2  A    between atoms: C_8  and  C_9
REMARK    3  A    between atoms: C_13  and  C_14
REMARK    4  A    between atoms: C_17  and  N_18
REMARK    5  A    between atoms: C_19  and  C_21
REMARK                            x       y       z     vdW  Elec       q    Type
REMARK                         _______ _______ _______ _____ _____    ______ ____
ROOT
ATOM      1  C   UNL     1       4.544   4.756  17.174  0.00  0.00    +0.000 A 
ATOM      2  C   UNL     1       4.450   3.553  17.885  0.00  0.00    +0.000 A 
ATOM      3  C   UNL     1       3.701   3.482  19.055  0.00  0.00    +0.000 A 
ATOM      4  C   UNL     1       3.040   4.617  19.528  0.00  0.00    +0.000 A 
ATOM      5  C   UNL     1       3.098   5.843  18.843  0.00  0.00    +0.000 A 
ATOM      6  C   UNL     1       3.877   5.889  17.669  0.00  0.00    +0.000 A 
ENDROOT
BRANCH   1  14
ATOM      7  C   UNL     1       5.200   2.652  11.996  0.00  0.00    +0.000 C 
ATOM      8  C   UNL     1       6.115   3.687  12.574  0.00  0.00    +0.000 A 
ATOM      9  C   UNL     1       7.223   4.171  11.855  0.00  0.00    +0.000 A 
ATOM     10  C   UNL     1       8.094   5.126  12.393  0.00  0.00    +0.000 A 
ATOM     11  C   UNL     1       7.894   5.636  13.680  0.00  0.00    +0.000 A 
ATOM     12  C   UNL     1       6.800   5.170  14.419  0.00  0.00    +0.000 A 
ATOM     13  N   UNL     1       6.397   5.496  15.692  0.00  0.00    +0.000 NA
ATOM     14  C   UNL     1       5.308   4.787  15.926  0.00  0.00    +0.000 A 
ATOM     15  N   UNL     1       5.013   4.007  14.834  0.00  0.00    +0.000 N 
ATOM     16  C   UNL     1       5.949   4.229  13.857  0.00  0.00    +0.000 A 
ATOM     17  H   UNL     1       4.253   3.347  14.773  0.00  0.00    +0.000 HD
ENDBRANCH   1  14
BRANCH   5  18
ATOM     18  C   UNL     1       2.338   7.020  19.329  0.00  0.00    +0.000 A 
ATOM     19  C   UNL     1       1.787   7.071  20.618  0.00  0.00    +0.000 A 
ATOM     20  C   UNL     1       1.087   8.200  21.068  0.00  0.00    +0.000 A 
ATOM     21  C   UNL     1       0.906   9.309  20.242  0.00  0.00    +0.000 A 
ATOM     22  C   UNL     1       1.426   9.265  18.947  0.00  0.00    +0.000 A 
ATOM     23  C   UNL     1       2.148   8.147  18.512  0.00  0.00    +0.000 A 
BRANCH  21  24
ATOM     24  N   UNL     1       0.215  10.473  20.632  0.00  0.00    +0.000 N 
ATOM     25  C   UNL     1      -0.048  10.860  21.931  0.00  0.00    +0.000 C 
ATOM     26  O   UNL     1       0.348  10.279  22.937  0.00  0.00    +0.000 OA
ATOM     27  H   UNL     1      -0.033  11.115  19.898  0.00  0.00    +0.000 HD
BRANCH  25  28
ATOM     28  C   UNL     1      -0.838  12.079  22.062  0.00  0.00    +0.000 A 
ATOM     29  C   UNL     1      -1.540  12.664  23.157  0.00  0.00    +0.000 A 
ATOM     30  C   UNL     1      -2.099  13.831  22.686  0.00  0.00    +0.000 A 
ATOM     31  O   UNL     1      -1.795  14.009  21.376  0.00  0.00    +0.000 OA
ATOM     32  C   UNL     1      -1.037  12.950  21.006  0.00  0.00    +0.000 A 
ENDBRANCH  25  28
ENDBRANCH  21  24
ENDBRANCH   5  18
TORSDOF 4
ENDMDL
MODEL 4
REMARK VINA RESULT:      -8.4      1.093      1.256
REMARK  Name = 
REMARK  5 active torsions:
REMARK  status: ('A' for Active; 'I' for Inactive)
REMARK    1  A    between atoms: C_1  and  C_2
REMARK    2  A    between atoms: C_8  and  C_9
REMARK    3  A    between atoms: C_13  and  C_14
REMARK    4  A    between atoms: C_17  and  N_18
REMARK    5  A    between atoms: C_19  and  C_21
REMARK                            x       y       z     vdW  Elec       q    Type
REMARK                         _______ _______ _______ _____ _____    ______ ____
ROOT
ATOM      1  C   UNL     1       4.774   5.089  17.159  0.00  0.00    +0.000 A 
ATOM      2  C   UNL     1       4.845   4.015  18.056  0.00  0.00    +0.000 A 
ATOM      3  C   UNL     1       4.165   4.064  19.268  0.00  0.00    +0.000 A 
ATOM      4  C   UNL     1       3.408   5.189  19.597  0.00  0.00    +0.000 A 
ATOM      5  C   UNL     1       3.300   6.286  18.725  0.00  0.00    +0.000 A 
ATOM      6  C   UNL     1       4.014   6.216  17.511  0.00  0.00    +0.000 A 
ENDROOT
BRANCH   1  14
ATOM      7  C   UNL     1       4.894   2.782  12.028  0.00  0.00    +0.000 C 
ATOM      8  C   UNL     1       5.959   3.709  12.527  0.00  0.00    +0.000 A 
ATOM      9  C   UNL     1       7.080   4.029  11.740  0.00  0.00    +0.000 A 
ATOM     10  C   UNL     1       8.090   4.881  12.203  0.00  0.00    +0.000 A 
ATOM     11  C   UNL     1       8.022   5.446  13.481  0.00  0.00    +0.000 A 
ATOM     12  C   UNL     1       6.918   5.141  14.287  0.00  0.00    +0.000 A 
ATOM     13  N   UNL     1       6.626   5.549  15.566  0.00  0.00    +0.000 NA
ATOM     14  C   UNL     1       5.471   4.990  15.876  0.00  0.00    +0.000 A 
ATOM     15  N   UNL     1       5.025   4.225  14.825  0.00  0.00    +0.000 N 
ATOM     16  C   UNL     1       5.928   4.301  13.797  0.00  0.00    +0.000 A 
ATOM     17  H   UNL     1       4.186   3.665  14.823  0.00  0.00    +0.000 HD
ENDBRANCH   1  14
BRANCH   5  18
ATOM     18  C   UNL     1       2.443   7.447  19.067  0.00  0.00    +0.000 A 
ATOM     19  C   UNL     1       2.149   8.455  18.138  0.00  0.00    +0.000 A 
ATOM     20  C   UNL     1       1.321   9.537  18.472  0.00  0.00    +0.000 A 
ATOM     21  C   UNL     1       0.770   9.651  19.748  0.00  0.00    +0.000 A 
ATOM     22  C   UNL     1       1.073   8.669  20.693  0.00  0.00    +0.000 A 
ATOM     23  C   UNL     1       1.876   7.577  20.346  0.00  0.00    +0.000 A 
BRANCH  21  24
ATOM     24  N   UNL     1      -0.070  10.710  20.149  0.00  0.00    +0.000 N 
ATOM     25  C   UNL     1      -1.281  11.042  19.574  0.00  0.00    +0.000 C 
ATOM     26  O   UNL     1      -1.836  10.415  18.677  0.00  0.00    +0.000 OA
ATOM     27  H   UNL     1       0.204  11.211  20.977  0.00  0.00    +0.000 HD
BRANCH  25  28
ATOM     28  C   UNL     1      -1.924  12.225  20.137  0.00  0.00    +0.000 A 
ATOM     29  C   UNL     1      -3.277  12.676  20.150  0.00  0.00    +0.000 A 
ATOM     30  C   UNL     1      -3.286  13.865  20.844  0.00  0.00    +0.000 A 
ATOM     31  O   UNL     1      -2.035  14.184  21.259  0.00  0.00    +0.000 OA
ATOM     32  C   UNL     1      -1.219  13.192  20.829  0.00  0.00    +0.000 A 
ENDBRANCH  25  28
ENDBRANCH  21  24
ENDBRANCH   5  18
TORSDOF 4
ENDMDL
MODEL 5
REMARK VINA RESULT:      -8.4      4.797     11.458
REMARK  Name = 
REMARK  5 active torsions:
REMARK  status: ('A' for Active; 'I' for Inactive)
REMARK    1  A    between atoms: C_1  and  C_2
REMARK    2  A    between atoms: C_8  and  C_9
REMARK    3  A    between atoms: C_13  and  C_14
REMARK    4  A    between atoms: C_17  and  N_18
REMARK    5  A    between atoms: C_19  and  C_21
REMARK                            x       y       z     vdW  Elec       q    Type
REMARK                         _______ _______ _______ _____ _____    ______ ____
ROOT
ATOM      1  C   UNL     1      -1.414  11.957  18.945  0.00  0.00    +0.000 A 
ATOM      2  C   UNL     1      -0.605  13.080  18.732  0.00  0.00    +0.000 A 
ATOM      3  C   UNL     1       0.778  12.951  18.669  0.00  0.00    +0.000 A 
ATOM      4  C   UNL     1       1.368  11.696  18.822  0.00  0.00    +0.000 A 
ATOM      5  C   UNL     1       0.596  10.539  19.029  0.00  0.00    +0.000 A 
ATOM      6  C   UNL     1      -0.802  10.702  19.105  0.00  0.00    +0.000 A 
ENDROOT
BRANCH   1  14
ATOM      7  C   UNL     1      -5.856  14.274  21.508  0.00  0.00    +0.000 C 
ATOM      8  C   UNL     1      -5.984  13.363  20.327  0.00  0.00    +0.000 A 
ATOM      9  C   UNL     1      -7.242  13.006  19.809  0.00  0.00    +0.000 A 
ATOM     10  C   UNL     1      -7.373  12.141  18.716  0.00  0.00    +0.000 A 
ATOM     11  C   UNL     1      -6.246  11.592  18.095  0.00  0.00    +0.000 A 
ATOM     12  C   UNL     1      -4.981  11.929  18.592  0.00  0.00    +0.000 A 
ATOM     13  N   UNL     1      -3.737  11.519  18.177  0.00  0.00    +0.000 NA
ATOM     14  C   UNL     1      -2.868  12.122  18.968  0.00  0.00    +0.000 A 
ATOM     15  N   UNL     1      -3.532  12.900  19.886  0.00  0.00    +0.000 N 
ATOM     16  C   UNL     1      -4.882  12.795  19.672  0.00  0.00    +0.000 A 
ATOM     17  H   UNL     1      -3.099  13.432  20.625  0.00  0.00    +0.000 HD
ENDBRANCH   1  14
BRANCH   5  18
ATOM     18  C   UNL     1       1.238   9.206  19.128  0.00  0.00    +0.000 A 
ATOM     19  C   UNL     1       1.282   8.488  20.332  0.00  0.00    +0.000 A 
ATOM     20  C   UNL     1       1.878   7.221  20.405  0.00  0.00    +0.000 A 
ATOM     21  C   UNL     1       2.457   6.634  19.280  0.00  0.00    +0.000 A 
ATOM     22  C   UNL     1       2.445   7.346  18.078  0.00  0.00    +0.000 A 
ATOM     23  C   UNL     1       1.824   8.598  18.005  0.00  0.00    +0.000 A 
BRANCH  21  24
ATOM     24  N   UNL     1       3.070   5.365  19.284  0.00  0.00    +0.000 N 
ATOM     25  C   UNL     1       2.485   4.185  18.868  0.00  0.00    +0.000 C 
ATOM     26  O   UNL     1       1.371   4.084  18.366  0.00  0.00    +0.000 OA
ATOM     27  H   UNL     1       4.043   5.338  19.534  0.00  0.00    +0.000 HD
BRANCH  25  28
ATOM     28  C   UNL     1       3.315   2.997  19.035  0.00  0.00    +0.000 A 
ATOM     29  C   UNL     1       3.367   1.748  18.346  0.00  0.00    +0.000 A 
ATOM     30  C   UNL     1       4.364   1.012  18.944  0.00  0.00    +0.000 A 
ATOM     31  O   UNL     1       4.934   1.715  19.955  0.00  0.00    +0.000 OA
ATOM     32  C   UNL     1       4.296   2.908  20.005  0.00  0.00    +0.000 A 
ENDBRANCH  25  28
ENDBRANCH  21  24
ENDBRANCH   5  18
TORSDOF 4
ENDMDL
MODEL 6
REMARK VINA RESULT:      -8.2      3.303     11.111
REMARK  Name = 
REMARK  5 active torsions:
REMARK  status: ('A' for Active; 'I' for Inactive)
REMARK    1  A    between atoms: C_1  and  C_2
REMARK    2  A    between atoms: C_8  and  C_9
REMARK    3  A    between atoms: C_13  and  C_14
REMARK    4  A    between atoms: C_17  and  N_18
REMARK    5  A    between atoms: C_19  and  C_21
REMARK                            x       y       z     vdW  Elec       q    Type
REMARK                         _______ _______ _______ _____ _____    ______ ____
ROOT
ATOM      1  C   UNL     1      -0.587  11.643  21.403  0.00  0.00    +0.000 A 
ATOM      2  C   UNL     1      -0.909  11.236  22.703  0.00  0.00    +0.000 A 
ATOM      3  C   UNL     1      -0.536   9.976  23.160  0.00  0.00    +0.000 A 
ATOM      4  C   UNL     1       0.161   9.109  22.318  0.00  0.00    +0.000 A 
ATOM      5  C   UNL     1       0.515   9.478  21.009  0.00  0.00    +0.000 A 
ATOM      6  C   UNL     1       0.109  10.754  20.567  0.00  0.00    +0.000 A 
ENDROOT
BRANCH   1  14
ATOM      7  C   UNL     1       0.938  16.284  18.609  0.00  0.00    +0.000 C 
ATOM      8  C   UNL     1      -0.370  16.162  19.328  0.00  0.00    +0.000 A 
ATOM      9  C   UNL     1      -1.286  17.229  19.372  0.00  0.00    +0.000 A 
ATOM     10  C   UNL     1      -2.503  17.131  20.056  0.00  0.00    +0.000 A 
ATOM     11  C   UNL     1      -2.855  15.957  20.731  0.00  0.00    +0.000 A 
ATOM     12  C   UNL     1      -1.961  14.879  20.706  0.00  0.00    +0.000 A 
ATOM     13  N   UNL     1      -2.061  13.641  21.292  0.00  0.00    +0.000 NA
ATOM     14  C   UNL     1      -0.960  12.990  20.967  0.00  0.00    +0.000 A 
ATOM     15  N   UNL     1      -0.153  13.790  20.195  0.00  0.00    +0.000 N 
ATOM     16  C   UNL     1      -0.765  15.003  20.012  0.00  0.00    +0.000 A 
ATOM     17  H   UNL     1       0.761  13.541  19.849  0.00  0.00    +0.000 HD
ENDBRANCH   1  14
BRANCH   5  18
ATOM     18  C   UNL     1       1.309   8.565  20.151  0.00  0.00    +0.000 A 
ATOM     19  C   UNL     1       1.809   7.344  20.626  0.00  0.00    +0.000 A 
ATOM     20  C   UNL     1       2.543   6.484  19.795  0.00  0.00    +0.000 A 
ATOM     21  C   UNL     1       2.810   6.822  18.469  0.00  0.00    +0.000 A 
ATOM     22  C   UNL     1       2.342   8.046  17.987  0.00  0.00    +0.000 A 
ATOM     23  C   UNL     1       1.585   8.887  18.811  0.00  0.00    +0.000 A 
BRANCH  21  24
ATOM     24  N   UNL     1       3.539   6.004  17.582  0.00  0.00    +0.000 N 
ATOM     25  C   UNL     1       4.804   6.269  17.095  0.00  0.00    +0.000 C 
ATOM     26  O   UNL     1       5.505   7.220  17.422  0.00  0.00    +0.000 OA
ATOM     27  H   UNL     1       3.131   5.114  17.354  0.00  0.00    +0.000 HD
BRANCH  25  28
ATOM     28  C   UNL     1       5.310   5.290  16.139  0.00  0.00    +0.000 A 
ATOM     29  C   UNL     1       5.772   5.401  14.793  0.00  0.00    +0.000 A 
ATOM     30  C   UNL     1       6.138   4.134  14.399  0.00  0.00    +0.000 A 
ATOM     31  O   UNL     1       5.933   3.245  15.403  0.00  0.00    +0.000 OA
ATOM     32  C   UNL     1       5.434   3.947  16.447  0.00  0.00    +0.000 A 
ENDBRANCH  25  28
ENDBRANCH  21  24
ENDBRANCH   5  18
TORSDOF 4
ENDMDL
MODEL 7
REMARK VINA RESULT:      -8.2      0.957      1.425
REMARK  Name = 
REMARK  5 active torsions:
REMARK  status: ('A' for Active; 'I' for Inactive)
REMARK    1  A    between atoms: C_1  and  C_2
REMARK    2  A    between atoms: C_8  and  C_9
REMARK    3  A    between atoms: C_13  and  C_14
REMARK    4  A    between atoms: C_17  and  N_18
REMARK    5  A    between atoms: C_19  and  C_21
REMARK                            x       y       z     vdW  Elec       q    Type
REMARK                         _______ _______ _______ _____ _____    ______ ____
ROOT
ATOM      1  C   UNL     1       4.436   4.656  16.966  0.00  0.00    +0.000 A 
ATOM      2  C   UNL     1       4.224   3.428  17.606  0.00  0.00    +0.000 A 
ATOM      3  C   UNL     1       3.436   3.356  18.749  0.00  0.00    +0.000 A 
ATOM      4  C   UNL     1       2.853   4.514  19.267  0.00  0.00    +0.000 A 
ATOM      5  C   UNL     1       3.029   5.766  18.653  0.00  0.00    +0.000 A 
ATOM      6  C   UNL     1       3.847   5.812  17.506  0.00  0.00    +0.000 A 
ENDROOT
BRANCH   1  14
ATOM      7  C   UNL     1       5.282   2.539  11.821  0.00  0.00    +0.000 C 
ATOM      8  C   UNL     1       6.164   3.588  12.423  0.00  0.00    +0.000 A 
ATOM      9  C   UNL     1       7.289   4.082  11.737  0.00  0.00    +0.000 A 
ATOM     10  C   UNL     1       8.131   5.050  12.298  0.00  0.00    +0.000 A 
ATOM     11  C   UNL     1       7.884   5.563  13.576  0.00  0.00    +0.000 A 
ATOM     12  C   UNL     1       6.772   5.086  14.282  0.00  0.00    +0.000 A 
ATOM     13  N   UNL     1       6.326   5.412  15.540  0.00  0.00    +0.000 NA
ATOM     14  C   UNL     1       5.239   4.691  15.742  0.00  0.00    +0.000 A 
ATOM     15  N   UNL     1       4.988   3.903  14.645  0.00  0.00    +0.000 N 
ATOM     16  C   UNL     1       5.951   4.133  13.697  0.00  0.00    +0.000 A 
ATOM     17  H   UNL     1       4.239   3.233  14.563  0.00  0.00    +0.000 HD
ENDBRANCH   1  14
BRANCH   5  18
ATOM     18  C   UNL     1       2.351   6.974  19.184  0.00  0.00    +0.000 A 
ATOM     19  C   UNL     1       1.836   7.026  20.487  0.00  0.00    +0.000 A 
ATOM     20  C   UNL     1       1.214   8.183  20.979  0.00  0.00    +0.000 A 
ATOM     21  C   UNL     1       1.077   9.319  20.182  0.00  0.00    +0.000 A 
ATOM     22  C   UNL     1       1.561   9.274  18.873  0.00  0.00    +0.000 A 
ATOM     23  C   UNL     1       2.206   8.128  18.396  0.00  0.00    +0.000 A 
BRANCH  21  24
ATOM     24  N   UNL     1       0.464  10.512  20.614  0.00  0.00    +0.000 N 
ATOM     25  C   UNL     1      -0.710  11.043  20.117  0.00  0.00    +0.000 C 
ATOM     26  O   UNL     1      -1.429  10.512  19.277  0.00  0.00    +0.000 OA
ATOM     27  H   UNL     1       0.879  10.967  21.409  0.00  0.00    +0.000 HD
BRANCH  25  28
ATOM     28  C   UNL     1      -1.097  12.326  20.695  0.00  0.00    +0.000 A 
ATOM     29  C   UNL     1      -1.745  13.475  20.152  0.00  0.00    +0.000 A 
ATOM     30  C   UNL     1      -1.854  14.385  21.180  0.00  0.00    +0.000 A 
ATOM     31  O   UNL     1      -1.319  13.882  22.320  0.00  0.00    +0.000 OA
ATOM     32  C   UNL     1      -0.863  12.642  22.021  0.00  0.00    +0.000 A 
ENDBRANCH  25  28
ENDBRANCH  21  24
ENDBRANCH   5  18
TORSDOF 4
ENDMDL
MODEL 8
REMARK VINA RESULT:      -8.1      4.570     11.856
REMARK  Name = 
REMARK  5 active torsions:
REMARK  status: ('A' for Active; 'I' for Inactive)
REMARK    1  A    between atoms: C_1  and  C_2
REMARK    2  A    between atoms: C_8  and  C_9
REMARK    3  A    between atoms: C_13  and  C_14
REMARK    4  A    between atoms: C_17  and  N_18
REMARK    5  A    between atoms: C_19  and  C_21
REMARK                            x       y       z     vdW  Elec       q    Type
REMARK                         _______ _______ _______ _____ _____    ______ ____
ROOT
ATOM      1  C   UNL     1      -1.413  12.341  20.367  0.00  0.00    +0.000 A 
ATOM      2  C   UNL     1      -0.836  13.428  19.699  0.00  0.00    +0.000 A 
ATOM      3  C   UNL     1       0.345  13.268  18.980  0.00  0.00    +0.000 A 
ATOM      4  C   UNL     1       0.962  12.017  18.926  0.00  0.00    +0.000 A 
ATOM      5  C   UNL     1       0.414  10.896  19.573  0.00  0.00    +0.000 A 
ATOM      6  C   UNL     1      -0.773  11.091  20.307  0.00  0.00    +0.000 A 
ENDROOT
BRANCH   1  14
ATOM      7  C   UNL     1      -6.976  13.099  19.988  0.00  0.00    +0.000 C 
ATOM      8  C   UNL     1      -6.245  13.087  21.295  0.00  0.00    +0.000 A 
ATOM      9  C   UNL     1      -6.916  13.303  22.512  0.00  0.00    +0.000 A 
ATOM     10  C   UNL     1      -6.239  13.312  23.738  0.00  0.00    +0.000 A 
ATOM     11  C   UNL     1      -4.856  13.109  23.796  0.00  0.00    +0.000 A 
ATOM     12  C   UNL     1      -4.163  12.894  22.598  0.00  0.00    +0.000 A 
ATOM     13  N   UNL     1      -2.822  12.687  22.386  0.00  0.00    +0.000 NA
ATOM     14  C   UNL     1      -2.675  12.535  21.082  0.00  0.00    +0.000 A 
ATOM     15  N   UNL     1      -3.893  12.652  20.458  0.00  0.00    +0.000 N 
ATOM     16  C   UNL     1      -4.862  12.882  21.400  0.00  0.00    +0.000 A 
ATOM     17  H   UNL     1      -4.047  12.613  19.462  0.00  0.00    +0.000 HD
ENDBRANCH   1  14
BRANCH   5  18
ATOM     18  C   UNL     1       1.053   9.562  19.452  0.00  0.00    +0.000 A 
ATOM     19  C   UNL     1       1.671   9.137  18.267  0.00  0.00    +0.000 A 
ATOM     20  C   UNL     1       2.286   7.880  18.176  0.00  0.00    +0.000 A 
ATOM     21  C   UNL     1       2.293   7.004  19.261  0.00  0.00    +0.000 A 
ATOM     22  C   UNL     1       1.659   7.401  20.440  0.00  0.00    +0.000 A 
ATOM     23  C   UNL     1       1.072   8.668  20.535  0.00  0.00    +0.000 A 
BRANCH  21  24
ATOM     24  N   UNL     1       2.893   5.729  19.236  0.00  0.00    +0.000 N 
ATOM     25  C   UNL     1       2.427   4.630  18.541  0.00  0.00    +0.000 C 
ATOM     26  O   UNL     1       1.461   4.627  17.785  0.00  0.00    +0.000 OA
ATOM     27  H   UNL     1       3.781   5.642  19.700  0.00  0.00    +0.000 HD
BRANCH  25  28
ATOM     28  C   UNL     1       3.200   3.408  18.735  0.00  0.00    +0.000 A 
ATOM     29  C   UNL     1       3.136   2.117  18.132  0.00  0.00    +0.000 A 
ATOM     30  C   UNL     1       4.131   1.363  18.712  0.00  0.00    +0.000 A 
ATOM     31  O   UNL     1       4.805   2.095  19.635  0.00  0.00    +0.000 OA
ATOM     32  C   UNL     1       4.239   3.324  19.644  0.00  0.00    +0.000 A 
ENDBRANCH  25  28
ENDBRANCH  21  24
ENDBRANCH   5  18
TORSDOF 4
ENDMDL
MODEL 9
REMARK VINA RESULT:      -8.1      4.628     11.521
REMARK  Name = 
REMARK  5 active torsions:
REMARK  status: ('A' for Active; 'I' for Inactive)
REMARK    1  A    between atoms: C_1  and  C_2
REMARK    2  A    between atoms: C_8  and  C_9
REMARK    3  A    between atoms: C_13  and  C_14
REMARK    4  A    between atoms: C_17  and  N_18
REMARK    5  A    between atoms: C_19  and  C_21
REMARK                            x       y       z     vdW  Elec       q    Type
REMARK                         _______ _______ _______ _____ _____    ______ ____
ROOT
ATOM      1  C   UNL     1      -1.530  12.519  19.713  0.00  0.00    +0.000 A 
ATOM      2  C   UNL     1      -0.725  13.641  19.483  0.00  0.00    +0.000 A 
ATOM      3  C   UNL     1       0.636  13.494  19.236  0.00  0.00    +0.000 A 
ATOM      4  C   UNL     1       1.206  12.220  19.220  0.00  0.00    +0.000 A 
ATOM      5  C   UNL     1       0.436  11.064  19.436  0.00  0.00    +0.000 A 
ATOM      6  C   UNL     1      -0.937  11.245  19.700  0.00  0.00    +0.000 A 
ENDROOT
BRANCH   1  14
ATOM      7  C   UNL     1      -6.751  10.884  18.395  0.00  0.00    +0.000 C 
ATOM      8  C   UNL     1      -6.467  12.010  19.340  0.00  0.00    +0.000 A 
ATOM      9  C   UNL     1      -7.506  12.751  19.931  0.00  0.00    +0.000 A 
ATOM     10  C   UNL     1      -7.251  13.817  20.803  0.00  0.00    +0.000 A 
ATOM     11  C   UNL     1      -5.940  14.189  21.117  0.00  0.00    +0.000 A 
ATOM     12  C   UNL     1      -4.886  13.469  20.541  0.00  0.00    +0.000 A 
ATOM     13  N   UNL     1      -3.529  13.641  20.674  0.00  0.00    +0.000 NA
ATOM     14  C   UNL     1      -2.966  12.706  19.931  0.00  0.00    +0.000 A 
ATOM     15  N   UNL     1      -3.934  11.948  19.318  0.00  0.00    +0.000 N 
ATOM     16  C   UNL     1      -5.170  12.412  19.687  0.00  0.00    +0.000 A 
ATOM     17  H   UNL     1      -3.765  11.195  18.669  0.00  0.00    +0.000 HD
ENDBRANCH   1  14
BRANCH   5  18
ATOM     18  C   UNL     1       1.050   9.717  19.355  0.00  0.00    +0.000 A 
ATOM     19  C   UNL     1       1.653   9.243  18.181  0.00  0.00    +0.000 A 
ATOM     20  C   UNL     1       2.245   7.973  18.126  0.00  0.00    +0.000 A 
ATOM     21  C   UNL     1       2.243   7.131  19.239  0.00  0.00    +0.000 A 
ATOM     22  C   UNL     1       1.623   7.577  20.408  0.00  0.00    +0.000 A 
ATOM     23  C   UNL     1       1.059   8.857  20.466  0.00  0.00    +0.000 A 
BRANCH  21  24
ATOM     24  N   UNL     1       2.820   5.846  19.252  0.00  0.00    +0.000 N 
ATOM     25  C   UNL     1       2.384   4.758  18.521  0.00  0.00    +0.000 C 
ATOM     26  O   UNL     1       1.475   4.774  17.698  0.00  0.00    +0.000 OA
ATOM     27  H   UNL     1       3.671   5.741  19.777  0.00  0.00    +0.000 HD
BRANCH  25  28
ATOM     28  C   UNL     1       3.119   3.521  18.764  0.00  0.00    +0.000 A 
ATOM     29  C   UNL     1       4.160   3.177  19.678  0.00  0.00    +0.000 A 
ATOM     30  C   UNL     1       4.455   1.852  19.455  0.00  0.00    +0.000 A 
ATOM     31  O   UNL     1       3.672   1.349  18.467  0.00  0.00    +0.000 OA
ATOM     32  C   UNL     1       2.872   2.360  18.055  0.00  0.00    +0.000 A 
ENDBRANCH  25  28
ENDBRANCH  21  24
ENDBRANCH   5  18
TORSDOF 4
ENDMDL
