MODEL 1
REMARK VINA RESULT:      -7.7      0.000      0.000
REMARK  Name = 
REMARK  6 active torsions:
REMARK  status: ('A' for Active; 'I' for Inactive)
REMARK    1  A    between atoms: C_2  and  C_9
REMARK    2  A    between atoms: N_3  and  C_4
REMARK    3  A    between atoms: C_12  and  C_13
REMARK    4  A    between atoms: C_13  and  N_14
REMARK    5  A    between atoms: N_14  and  S_15
REMARK    6  A    between atoms: S_15  and  C_18
REMARK                            x       y       z     vdW  Elec       q    Type
REMARK                         _______ _______ _______ _____ _____    ______ ____
ROOT
ATOM      1  C   UNL     1       5.871   7.016  17.468  0.00  0.00    +0.000 C 
ATOM      2  C   UNL     1       5.267   6.567  16.131  0.00  0.00    +0.000 C 
ATOM      3  C   UNL     1       6.084   5.427  15.518  0.00  0.00    +0.000 C 
ATOM      4  C   UNL     1       6.140   4.198  16.447  0.00  0.00    +0.000 C 
ATOM      5  C   UNL     1       6.661   4.607  17.838  0.00  0.00    +0.000 C 
ATOM      6  C   UNL     1       5.947   5.823  18.436  0.00  0.00    +0.000 C 
ENDROOT
BRANCH   1   8
ATOM      7  O   UNL     1       8.123   7.242  16.563  0.00  0.00    +0.000 OA
ATOM      8  C   UNL     1       7.230   7.701  17.265  0.00  0.00    +0.000 C 
ATOM      9  N   UNL     1       7.363   8.870  17.980  0.00  0.00    +0.000 N 
ATOM     10  H   UNL     1       6.570   9.227  18.493  0.00  0.00    +0.000 HD
BRANCH   9  11
ATOM     11  C   UNL     1       8.538   9.706  17.910  0.00  0.00    +0.000 C 
ATOM     12  C   UNL     1       8.229  11.169  17.603  0.00  0.00    +0.000 C 
ATOM     13  C   UNL     1       9.497  11.893  18.043  0.00  0.00    +0.000 C 
ATOM     14  C   UNL     1      10.090  11.050  19.174  0.00  0.00    +0.000 C 
ATOM     15  C   UNL     1       9.225   9.801  19.267  0.00  0.00    +0.000 C 
ENDBRANCH   9  11
ENDBRANCH   1   8
BRANCH   4  16
ATOM     16  C   UNL     1       4.750   3.546  16.448  0.00  0.00    +0.000 C 
BRANCH  16  17
ATOM     17  N   UNL     1       4.400   2.923  17.726  0.00  0.00    +0.000 NA
ATOM     18  H   UNL     1       4.925   3.194  18.558  0.00  0.00    +0.000 HD
BRANCH  17  19
ATOM     19  S   UNL     1       2.738   2.863  18.063  0.00  0.00    +0.000 S 
ATOM     20  O   UNL     1       2.063   2.870  16.781  0.00  0.00    +0.000 OA
ATOM     21  O   UNL     1       2.514   1.820  19.038  0.00  0.00    +0.000 OA
BRANCH  19  22
ATOM     22  C   UNL     1       2.471   4.438  18.824  0.00  0.00    +0.000 A 
ATOM     23  C   UNL     1       2.287   4.493  20.210  0.00  0.00    +0.000 A 
ATOM     24  C   UNL     1       2.084   5.727  20.824  0.00  0.00    +0.000 A 
ATOM     25  C   UNL     1       2.073   6.885  20.052  0.00  0.00    +0.000 A 
ATOM     26  F   UNL     1       1.878   8.069  20.646  0.00  0.00    +0.000 F 
ATOM     27  C   UNL     1       2.263   6.836  18.674  0.00  0.00    +0.000 A 
ATOM     28  C   UNL     1       2.462   5.602  18.049  0.00  0.00    +0.000 A 
ENDBRANCH  19  22
ENDBRANCH  17  19
ENDBRANCH  16  17
ENDBRANCH   4  16
TORSDOF 6
ENDMDL
MODEL 2
REMARK VINA RESULT:      -7.4      4.235      6.606
REMARK  Name = 
REMARK  6 active torsions:
REMARK  status: ('A' for Active; 'I' for Inactive)
REMARK    1  A    between atoms: C_2  and  C_9
REMARK    2  A    between atoms: N_3  and  C_4
REMARK    3  A    between atoms: C_12  and  C_13
REMARK    4  A    between atoms: C_13  and  N_14
REMARK    5  A    between atoms: N_14  and  S_15
REMARK    6  A    between atoms: S_15  and  C_18
REMARK                            x       y       z     vdW  Elec       q    Type
REMARK                         _______ _______ _______ _____ _____    ______ ____
ROOT
ATOM      1  C   UNL     1       1.704   4.132  18.264  0.00  0.00    +0.000 C 
ATOM      2  C   UNL     1       1.702   4.055  19.796  0.00  0.00    +0.000 C 
ATOM      3  C   UNL     1       2.800   4.943  20.388  0.00  0.00    +0.000 C 
ATOM      4  C   UNL     1       2.619   6.420  19.990  0.00  0.00    +0.000 C 
ATOM      5  C   UNL     1       2.527   6.549  18.457  0.00  0.00    +0.000 C 
ATOM      6  C   UNL     1       1.523   5.590  17.812  0.00  0.00    +0.000 C 
ENDROOT
BRANCH   1   8
ATOM      7  O   UNL     1       3.191   2.277  17.723  0.00  0.00    +0.000 OA
ATOM      8  C   UNL     1       2.962   3.480  17.673  0.00  0.00    +0.000 C 
ATOM      9  N   UNL     1       3.834   4.388  17.112  0.00  0.00    +0.000 N 
ATOM     10  H   UNL     1       3.560   5.358  17.049  0.00  0.00    +0.000 HD
BRANCH   9  11
ATOM     11  C   UNL     1       5.060   4.000  16.459  0.00  0.00    +0.000 C 
ATOM     12  C   UNL     1       5.274   4.678  15.108  0.00  0.00    +0.000 C 
ATOM     13  C   UNL     1       6.769   4.502  14.861  0.00  0.00    +0.000 C 
ATOM     14  C   UNL     1       7.419   4.454  16.246  0.00  0.00    +0.000 C 
ATOM     15  C   UNL     1       6.275   4.471  17.250  0.00  0.00    +0.000 C 
ENDBRANCH   9  11
ENDBRANCH   1   8
BRANCH   4  16
ATOM     16  C   UNL     1       1.406   6.969  20.754  0.00  0.00    +0.000 C 
BRANCH  16  17
ATOM     17  N   UNL     1       1.665   8.246  21.419  0.00  0.00    +0.000 NA
ATOM     18  H   UNL     1       2.294   8.911  20.967  0.00  0.00    +0.000 HD
BRANCH  17  19
ATOM     19  S   UNL     1       0.288   9.038  22.013  0.00  0.00    +0.000 S 
ATOM     20  O   UNL     1      -0.793   8.074  21.953  0.00  0.00    +0.000 OA
ATOM     21  O   UNL     1       0.647   9.705  23.245  0.00  0.00    +0.000 OA
BRANCH  19  22
ATOM     22  C   UNL     1       0.003  10.251  20.757  0.00  0.00    +0.000 A 
ATOM     23  C   UNL     1      -0.667  11.430  21.099  0.00  0.00    +0.000 A 
ATOM     24  C   UNL     1      -0.891  12.397  20.122  0.00  0.00    +0.000 A 
ATOM     25  C   UNL     1      -0.440  12.180  18.824  0.00  0.00    +0.000 A 
ATOM     26  F   UNL     1      -0.657  13.112  17.887  0.00  0.00    +0.000 F 
ATOM     27  C   UNL     1       0.234  11.011  18.480  0.00  0.00    +0.000 A 
ATOM     28  C   UNL     1       0.458  10.033  19.452  0.00  0.00    +0.000 A 
ENDBRANCH  19  22
ENDBRANCH  17  19
ENDBRANCH  16  17
ENDBRANCH   4  16
TORSDOF 6
ENDMDL
MODEL 3
REMARK VINA RESULT:      -7.3      4.228      6.612
REMARK  Name = 
REMARK  6 active torsions:
REMARK  status: ('A' for Active; 'I' for Inactive)
REMARK    1  A    between atoms: C_2  and  C_9
REMARK    2  A    between atoms: N_3  and  C_4
REMARK    3  A    between atoms: C_12  and  C_13
REMARK    4  A    between atoms: C_13  and  N_14
REMARK    5  A    between atoms: N_14  and  S_15
REMARK    6  A    between atoms: S_15  and  C_18
REMARK                            x       y       z     vdW  Elec       q    Type
REMARK                         _______ _______ _______ _____ _____    ______ ____
ROOT
ATOM      1  C   UNL     1       1.742   4.555  18.064  0.00  0.00    +0.000 C 
ATOM      2  C   UNL     1       1.494   4.268  19.550  0.00  0.00    +0.000 C 
ATOM      3  C   UNL     1       2.586   4.898  20.418  0.00  0.00    +0.000 C 
ATOM      4  C   UNL     1       2.650   6.427  20.238  0.00  0.00    +0.000 C 
ATOM      5  C   UNL     1       2.813   6.779  18.747  0.00  0.00    +0.000 C 
ATOM      6  C   UNL     1       1.811   6.073  17.828  0.00  0.00    +0.000 C 
ENDROOT
BRANCH   1   8
ATOM      7  O   UNL     1       3.173   2.616  17.697  0.00  0.00    +0.000 OA
ATOM      8  C   UNL     1       2.989   3.818  17.553  0.00  0.00    +0.000 C 
ATOM      9  N   UNL     1       3.903   4.651  16.947  0.00  0.00    +0.000 N 
ATOM     10  H   UNL     1       3.667   5.622  16.805  0.00  0.00    +0.000 HD
BRANCH   9  11
ATOM     11  C   UNL     1       5.129   4.173  16.353  0.00  0.00    +0.000 C 
ATOM     12  C   UNL     1       5.291   4.566  14.887  0.00  0.00    +0.000 C 
ATOM     13  C   UNL     1       6.786   4.386  14.641  0.00  0.00    +0.000 C 
ATOM     14  C   UNL     1       7.465   4.642  15.988  0.00  0.00    +0.000 C 
ATOM     15  C   UNL     1       6.342   4.831  16.998  0.00  0.00    +0.000 C 
ENDBRANCH   9  11
ENDBRANCH   1   8
BRANCH   4  16
ATOM     16  C   UNL     1       1.408   7.033  20.908  0.00  0.00    +0.000 C 
BRANCH  16  17
ATOM     17  N   UNL     1       1.699   8.228  21.701  0.00  0.00    +0.000 NA
ATOM     18  H   UNL     1       2.436   8.857  21.381  0.00  0.00    +0.000 HD
BRANCH  17  19
ATOM     19  S   UNL     1       0.336   9.110  22.194  0.00  0.00    +0.000 S 
ATOM     20  O   UNL     1      -0.805   8.240  21.993  0.00  0.00    +0.000 OA
ATOM     21  O   UNL     1       0.626   9.705  23.480  0.00  0.00    +0.000 OA
BRANCH  19  22
ATOM     22  C   UNL     1       0.271  10.382  20.967  0.00  0.00    +0.000 A 
ATOM     23  C   UNL     1       0.389  10.025  19.620  0.00  0.00    +0.000 A 
ATOM     24  C   UNL     1       0.331  11.015  18.642  0.00  0.00    +0.000 A 
ATOM     25  C   UNL     1       0.150  12.343  19.018  0.00  0.00    +0.000 A 
ATOM     26  F   UNL     1       0.094  13.292  18.075  0.00  0.00    +0.000 F 
ATOM     27  C   UNL     1       0.023  12.702  20.357  0.00  0.00    +0.000 A 
ATOM     28  C   UNL     1       0.086  11.716  21.345  0.00  0.00    +0.000 A 
ENDBRANCH  19  22
ENDBRANCH  17  19
ENDBRANCH  16  17
ENDBRANCH   4  16
TORSDOF 6
ENDMDL
MODEL 4
REMARK VINA RESULT:      -7.3      0.648      1.157
REMARK  Name = 
REMARK  6 active torsions:
REMARK  status: ('A' for Active; 'I' for Inactive)
REMARK    1  A    between atoms: C_2  and  C_9
REMARK    2  A    between atoms: N_3  and  C_4
REMARK    3  A    between atoms: C_12  and  C_13
REMARK    4  A    between atoms: C_13  and  N_14
REMARK    5  A    between atoms: N_14  and  S_15
REMARK    6  A    between atoms: S_15  and  C_18
REMARK                            x       y       z     vdW  Elec       q    Type
REMARK                         _______ _______ _______ _____ _____    ______ ____
ROOT
ATOM      1  C   UNL     1       6.365   6.781  17.896  0.00  0.00    +0.000 C 
ATOM      2  C   UNL     1       5.258   6.774  16.834  0.00  0.00    +0.000 C 
ATOM      3  C   UNL     1       5.725   6.063  15.562  0.00  0.00    +0.000 C 
ATOM      4  C   UNL     1       6.123   4.600  15.837  0.00  0.00    +0.000 C 
ATOM      5  C   UNL     1       7.176   4.539  16.960  0.00  0.00    +0.000 C 
ATOM      6  C   UNL     1       6.798   5.339  18.210  0.00  0.00    +0.000 C 
ENDROOT
BRANCH   1   8
ATOM      7  O   UNL     1       8.304   7.400  16.553  0.00  0.00    +0.000 OA
ATOM      8  C   UNL     1       7.540   7.674  17.471  0.00  0.00    +0.000 C 
ATOM      9  N   UNL     1       7.676   8.802  18.250  0.00  0.00    +0.000 N 
ATOM     10  H   UNL     1       6.979   9.002  18.953  0.00  0.00    +0.000 HD
BRANCH   9  11
ATOM     11  C   UNL     1       8.683   9.807  18.008  0.00  0.00    +0.000 C 
ATOM     12  C   UNL     1       8.108  11.166  17.617  0.00  0.00    +0.000 C 
ATOM     13  C   UNL     1       9.265  12.124  17.883  0.00  0.00    +0.000 C 
ATOM     14  C   UNL     1      10.076  11.496  19.019  0.00  0.00    +0.000 C 
ATOM     15  C   UNL     1       9.445  10.137  19.287  0.00  0.00    +0.000 C 
ENDBRANCH   9  11
ENDBRANCH   1   8
BRANCH   4  16
ATOM     16  C   UNL     1       4.838   3.807  16.117  0.00  0.00    +0.000 C 
BRANCH  16  17
ATOM     17  N   UNL     1       4.818   3.179  17.439  0.00  0.00    +0.000 NA
ATOM     18  H   UNL     1       5.315   3.639  18.203  0.00  0.00    +0.000 HD
BRANCH  17  19
ATOM     19  S   UNL     1       3.293   2.646  17.956  0.00  0.00    +0.000 S 
ATOM     20  O   UNL     1       2.454   2.609  16.776  0.00  0.00    +0.000 OA
ATOM     21  O   UNL     1       3.483   1.483  18.794  0.00  0.00    +0.000 OA
BRANCH  19  22
ATOM     22  C   UNL     1       2.760   4.003  18.958  0.00  0.00    +0.000 A 
ATOM     23  C   UNL     1       2.732   5.284  18.396  0.00  0.00    +0.000 A 
ATOM     24  C   UNL     1       2.306   6.361  19.171  0.00  0.00    +0.000 A 
ATOM     25  C   UNL     1       1.910   6.147  20.487  0.00  0.00    +0.000 A 
ATOM     26  F   UNL     1       1.501   7.184  21.229  0.00  0.00    +0.000 F 
ATOM     27  C   UNL     1       1.929   4.873  21.048  0.00  0.00    +0.000 A 
ATOM     28  C   UNL     1       2.359   3.788  20.281  0.00  0.00    +0.000 A 
ENDBRANCH  19  22
ENDBRANCH  17  19
ENDBRANCH  16  17
ENDBRANCH   4  16
TORSDOF 6
ENDMDL
MODEL 5
REMARK VINA RESULT:      -7.1      3.711      5.676
REMARK  Name = 
REMARK  6 active torsions:
REMARK  status: ('A' for Active; 'I' for Inactive)
REMARK    1  A    between atoms: C_2  and  C_9
REMARK    2  A    between atoms: N_3  and  C_4
REMARK    3  A    between atoms: C_12  and  C_13
REMARK    4  A    between atoms: C_13  and  N_14
REMARK    5  A    between atoms: N_14  and  S_15
REMARK    6  A    between atoms: S_15  and  C_18
REMARK                            x       y       z     vdW  Elec       q    Type
REMARK                         _______ _______ _______ _____ _____    ______ ____
ROOT
ATOM      1  C   UNL     1       6.879   6.157  17.767  0.00  0.00    +0.000 C 
ATOM      2  C   UNL     1       5.928   7.191  17.149  0.00  0.00    +0.000 C 
ATOM      3  C   UNL     1       4.591   6.547  16.773  0.00  0.00    +0.000 C 
ATOM      4  C   UNL     1       3.887   5.932  17.998  0.00  0.00    +0.000 C 
ATOM      5  C   UNL     1       4.830   4.945  18.712  0.00  0.00    +0.000 C 
ATOM      6  C   UNL     1       6.222   5.513  19.000  0.00  0.00    +0.000 C 
ENDROOT
BRANCH   1   8
ATOM      7  O   UNL     1       8.026   4.150  16.994  0.00  0.00    +0.000 OA
ATOM      8  C   UNL     1       7.330   5.122  16.727  0.00  0.00    +0.000 C 
ATOM      9  N   UNL     1       6.904   5.412  15.449  0.00  0.00    +0.000 N 
ATOM     10  H   UNL     1       6.283   6.195  15.303  0.00  0.00    +0.000 HD
BRANCH   9  11
ATOM     11  C   UNL     1       7.172   4.558  14.318  0.00  0.00    +0.000 C 
ATOM     12  C   UNL     1       5.924   3.886  13.751  0.00  0.00    +0.000 C 
ATOM     13  C   UNL     1       6.362   3.459  12.353  0.00  0.00    +0.000 C 
ATOM     14  C   UNL     1       7.428   4.468  11.922  0.00  0.00    +0.000 C 
ATOM     15  C   UNL     1       7.670   5.367  13.126  0.00  0.00    +0.000 C 
ENDBRANCH   9  11
ENDBRANCH   1   8
BRANCH   4  16
ATOM     16  C   UNL     1       3.379   7.084  18.877  0.00  0.00    +0.000 C 
BRANCH  16  17
ATOM     17  N   UNL     1       1.952   7.363  18.705  0.00  0.00    +0.000 NA
ATOM     18  H   UNL     1       1.295   6.962  19.375  0.00  0.00    +0.000 HD
BRANCH  17  19
ATOM     19  S   UNL     1       1.571   8.986  18.393  0.00  0.00    +0.000 S 
ATOM     20  O   UNL     1       2.835   9.676  18.233  0.00  0.00    +0.000 OA
ATOM     21  O   UNL     1       0.548   9.021  17.373  0.00  0.00    +0.000 OA
BRANCH  19  22
ATOM     22  C   UNL     1       0.870   9.491  19.937  0.00  0.00    +0.000 A 
ATOM     23  C   UNL     1       0.282  10.757  20.027  0.00  0.00    +0.000 A 
ATOM     24  C   UNL     1      -0.281  11.166  21.234  0.00  0.00    +0.000 A 
ATOM     25  C   UNL     1      -0.257  10.307  22.329  0.00  0.00    +0.000 A 
ATOM     26  F   UNL     1      -0.800  10.702  23.487  0.00  0.00    +0.000 F 
ATOM     27  C   UNL     1       0.320   9.043  22.242  0.00  0.00    +0.000 A 
ATOM     28  C   UNL     1       0.892   8.627  21.037  0.00  0.00    +0.000 A 
ENDBRANCH  19  22
ENDBRANCH  17  19
ENDBRANCH  16  17
ENDBRANCH   4  16
TORSDOF 6
ENDMDL
MODEL 6
REMARK VINA RESULT:      -7.1      4.237      6.438
REMARK  Name = 
REMARK  6 active torsions:
REMARK  status: ('A' for Active; 'I' for Inactive)
REMARK    1  A    between atoms: C_2  and  C_9
REMARK    2  A    between atoms: N_3  and  C_4
REMARK    3  A    between atoms: C_12  and  C_13
REMARK    4  A    between atoms: C_13  and  N_14
REMARK    5  A    between atoms: N_14  and  S_15
REMARK    6  A    between atoms: S_15  and  C_18
REMARK                            x       y       z     vdW  Elec       q    Type
REMARK                         _______ _______ _______ _____ _____    ______ ____
ROOT
ATOM      1  C   UNL     1       4.034   3.803  19.535  0.00  0.00    +0.000 C 
ATOM      2  C   UNL     1       4.288   5.306  19.703  0.00  0.00    +0.000 C 
ATOM      3  C   UNL     1       3.283   6.124  18.889  0.00  0.00    +0.000 C 
ATOM      4  C   UNL     1       1.831   5.841  19.318  0.00  0.00    +0.000 C 
ATOM      5  C   UNL     1       1.543   4.329  19.251  0.00  0.00    +0.000 C 
ATOM      6  C   UNL     1       2.594   3.465  19.955  0.00  0.00    +0.000 C 
ENDROOT
BRANCH   1   8
ATOM      7  O   UNL     1       3.760   2.437  17.534  0.00  0.00    +0.000 OA
ATOM      8  C   UNL     1       4.360   3.338  18.108  0.00  0.00    +0.000 C 
ATOM      9  N   UNL     1       5.423   4.010  17.546  0.00  0.00    +0.000 N 
ATOM     10  H   UNL     1       5.837   4.783  18.047  0.00  0.00    +0.000 HD
BRANCH   9  11
ATOM     11  C   UNL     1       5.880   3.772  16.198  0.00  0.00    +0.000 C 
ATOM     12  C   UNL     1       4.897   4.240  15.128  0.00  0.00    +0.000 C 
ATOM     13  C   UNL     1       5.762   4.329  13.875  0.00  0.00    +0.000 C 
ATOM     14  C   UNL     1       7.176   4.648  14.364  0.00  0.00    +0.000 C 
ATOM     15  C   UNL     1       7.117   4.605  15.884  0.00  0.00    +0.000 C 
ENDBRANCH   9  11
ENDBRANCH   1   8
BRANCH   4  16
ATOM     16  C   UNL     1       1.617   6.474  20.701  0.00  0.00    +0.000 C 
BRANCH  16  17
ATOM     17  N   UNL     1       1.797   7.927  20.710  0.00  0.00    +0.000 NA
ATOM     18  H   UNL     1       1.962   8.402  19.822  0.00  0.00    +0.000 HD
BRANCH  17  19
ATOM     19  S   UNL     1       0.668   8.783  21.643  0.00  0.00    +0.000 S 
ATOM     20  O   UNL     1      -0.474   7.906  21.805  0.00  0.00    +0.000 OA
ATOM     21  O   UNL     1       1.361   9.352  22.778  0.00  0.00    +0.000 OA
BRANCH  19  22
ATOM     22  C   UNL     1       0.201  10.082  20.536  0.00  0.00    +0.000 A 
ATOM     23  C   UNL     1       0.312   9.864  19.159  0.00  0.00    +0.000 A 
ATOM     24  C   UNL     1      -0.060  10.875  18.275  0.00  0.00    +0.000 A 
ATOM     25  C   UNL     1      -0.542  12.082  18.774  0.00  0.00    +0.000 A 
ATOM     26  F   UNL     1      -0.899  13.051  17.922  0.00  0.00    +0.000 F 
ATOM     27  C   UNL     1      -0.661  12.299  20.144  0.00  0.00    +0.000 A 
ATOM     28  C   UNL     1      -0.285  11.294  21.038  0.00  0.00    +0.000 A 
ENDBRANCH  19  22
ENDBRANCH  17  19
ENDBRANCH  16  17
ENDBRANCH   4  16
TORSDOF 6
ENDMDL
MODEL 7
REMARK VINA RESULT:      -7.0      3.722      5.786
REMARK  Name = 
REMARK  6 active torsions:
REMARK  status: ('A' for Active; 'I' for Inactive)
REMARK    1  A    between atoms: C_2  and  C_9
REMARK    2  A    between atoms: N_3  and  C_4
REMARK    3  A    between atoms: C_12  and  C_13
REMARK    4  A    between atoms: C_13  and  N_14
REMARK    5  A    between atoms: N_14  and  S_15
REMARK    6  A    between atoms: S_15  and  C_18
REMARK                            x       y       z     vdW  Elec       q    Type
REMARK                         _______ _______ _______ _____ _____    ______ ____
ROOT
ATOM      1  C   UNL     1       6.726   6.050  17.819  0.00  0.00    +0.000 C 
ATOM      2  C   UNL     1       6.116   7.294  17.161  0.00  0.00    +0.000 C 
ATOM      3  C   UNL     1       4.778   6.960  16.496  0.00  0.00    +0.000 C 
ATOM      4  C   UNL     1       3.755   6.414  17.511  0.00  0.00    +0.000 C 
ATOM      5  C   UNL     1       4.348   5.210  18.267  0.00  0.00    +0.000 C 
ATOM      6  C   UNL     1       5.742   5.465  18.846  0.00  0.00    +0.000 C 
ENDROOT
BRANCH   1   8
ATOM      7  O   UNL     1       8.040   4.184  16.960  0.00  0.00    +0.000 OA
ATOM      8  C   UNL     1       7.165   5.021  16.768  0.00  0.00    +0.000 C 
ATOM      9  N   UNL     1       6.504   5.152  15.566  0.00  0.00    +0.000 N 
ATOM     10  H   UNL     1       5.752   5.822  15.490  0.00  0.00    +0.000 HD
BRANCH   9  11
ATOM     11  C   UNL     1       6.722   4.268  14.447  0.00  0.00    +0.000 C 
ATOM     12  C   UNL     1       5.436   3.846  13.743  0.00  0.00    +0.000 C 
ATOM     13  C   UNL     1       5.927   3.350  12.386  0.00  0.00    +0.000 C 
ATOM     14  C   UNL     1       7.202   4.142  12.088  0.00  0.00    +0.000 C 
ATOM     15  C   UNL     1       7.483   4.974  13.331  0.00  0.00    +0.000 C 
ENDBRANCH   9  11
ENDBRANCH   1   8
BRANCH   4  16
ATOM     16  C   UNL     1       3.312   7.580  18.407  0.00  0.00    +0.000 C 
BRANCH  16  17
ATOM     17  N   UNL     1       1.859   7.724  18.499  0.00  0.00    +0.000 NA
ATOM     18  H   UNL     1       1.372   7.265  19.270  0.00  0.00    +0.000 HD
BRANCH  17  19
ATOM     19  S   UNL     1       1.280   9.305  18.287  0.00  0.00    +0.000 S 
ATOM     20  O   UNL     1       2.447  10.141  18.087  0.00  0.00    +0.000 OA
ATOM     21  O   UNL     1       0.198   9.264  17.330  0.00  0.00    +0.000 OA
BRANCH  19  22
ATOM     22  C   UNL     1       0.625   9.664  19.891  0.00  0.00    +0.000 A 
ATOM     23  C   UNL     1       0.772   8.713  20.906  0.00  0.00    +0.000 A 
ATOM     24  C   UNL     1       0.268   8.986  22.176  0.00  0.00    +0.000 A 
ATOM     25  C   UNL     1      -0.367  10.200  22.417  0.00  0.00    +0.000 A 
ATOM     26  F   UNL     1      -0.850  10.459  23.639  0.00  0.00    +0.000 F 
ATOM     27  C   UNL     1      -0.509  11.153  21.412  0.00  0.00    +0.000 A 
ATOM     28  C   UNL     1      -0.012  10.885  20.134  0.00  0.00    +0.000 A 
ENDBRANCH  19  22
ENDBRANCH  17  19
ENDBRANCH  16  17
ENDBRANCH   4  16
TORSDOF 6
ENDMDL
MODEL 8
REMARK VINA RESULT:      -6.9      3.333      6.316
REMARK  Name = 
REMARK  6 active torsions:
REMARK  status: ('A' for Active; 'I' for Inactive)
REMARK    1  A    between atoms: C_2  and  C_9
REMARK    2  A    between atoms: N_3  and  C_4
REMARK    3  A    between atoms: C_12  and  C_13
REMARK    4  A    between atoms: C_13  and  N_14
REMARK    5  A    between atoms: N_14  and  S_15
REMARK    6  A    between atoms: S_15  and  C_18
REMARK                            x       y       z     vdW  Elec       q    Type
REMARK                         _______ _______ _______ _____ _____    ______ ____
ROOT
ATOM      1  C   UNL     1       3.186   5.045  20.147  0.00  0.00    +0.000 C 
ATOM      2  C   UNL     1       2.889   3.770  19.346  0.00  0.00    +0.000 C 
ATOM      3  C   UNL     1       2.332   4.112  17.962  0.00  0.00    +0.000 C 
ATOM      4  C   UNL     1       3.318   4.965  17.142  0.00  0.00    +0.000 C 
ATOM      5  C   UNL     1       3.720   6.222  17.936  0.00  0.00    +0.000 C 
ATOM      6  C   UNL     1       4.172   5.933  19.370  0.00  0.00    +0.000 C 
ENDROOT
BRANCH   1   8
ATOM      7  O   UNL     1       0.815   5.223  20.682  0.00  0.00    +0.000 OA
ATOM      8  C   UNL     1       1.893   5.782  20.522  0.00  0.00    +0.000 C 
ATOM      9  N   UNL     1       2.054   7.147  20.625  0.00  0.00    +0.000 N 
ATOM     10  H   UNL     1       2.979   7.541  20.541  0.00  0.00    +0.000 HD
BRANCH   9  11
ATOM     11  C   UNL     1       0.986   8.037  21.010  0.00  0.00    +0.000 C 
ATOM     12  C   UNL     1       1.302   8.872  22.248  0.00  0.00    +0.000 C 
ATOM     13  C   UNL     1       0.293  10.013  22.168  0.00  0.00    +0.000 C 
ATOM     14  C   UNL     1       0.010  10.217  20.678  0.00  0.00    +0.000 C 
ATOM     15  C   UNL     1       0.758   9.109  19.950  0.00  0.00    +0.000 C 
ENDBRANCH   9  11
ENDBRANCH   1   8
BRANCH   4  16
ATOM     16  C   UNL     1       4.491   4.063  16.730  0.00  0.00    +0.000 C 
BRANCH  16  17
ATOM     17  N   UNL     1       4.872   4.208  15.325  0.00  0.00    +0.000 NA
ATOM     18  H   UNL     1       4.135   4.211  14.619  0.00  0.00    +0.000 HD
BRANCH  17  19
ATOM     19  S   UNL     1       6.001   5.435  15.011  0.00  0.00    +0.000 S 
ATOM     20  O   UNL     1       6.937   4.890  14.049  0.00  0.00    +0.000 OA
ATOM     21  O   UNL     1       5.276   6.661  14.760  0.00  0.00    +0.000 OA
BRANCH  19  22
ATOM     22  C   UNL     1       6.834   5.561  16.567  0.00  0.00    +0.000 A 
ATOM     23  C   UNL     1       7.312   4.393  17.171  0.00  0.00    +0.000 A 
ATOM     24  C   UNL     1       7.977   4.478  18.392  0.00  0.00    +0.000 A 
ATOM     25  C   UNL     1       8.163   5.721  18.989  0.00  0.00    +0.000 A 
ATOM     26  F   UNL     1       8.803   5.799  20.162  0.00  0.00    +0.000 F 
ATOM     27  C   UNL     1       7.696   6.887  18.387  0.00  0.00    +0.000 A 
ATOM     28  C   UNL     1       7.023   6.811  17.166  0.00  0.00    +0.000 A 
ENDBRANCH  19  22
ENDBRANCH  17  19
ENDBRANCH  16  17
ENDBRANCH   4  16
TORSDOF 6
ENDMDL
MODEL 9
REMARK VINA RESULT:      -6.8      4.475      6.114
REMARK  Name = 
REMARK  6 active torsions:
REMARK  status: ('A' for Active; 'I' for Inactive)
REMARK    1  A    between atoms: C_2  and  C_9
REMARK    2  A    between atoms: N_3  and  C_4
REMARK    3  A    between atoms: C_12  and  C_13
REMARK    4  A    between atoms: C_13  and  N_14
REMARK    5  A    between atoms: N_14  and  S_15
REMARK    6  A    between atoms: S_15  and  C_18
REMARK                            x       y       z     vdW  Elec       q    Type
REMARK                         _______ _______ _______ _____ _____    ______ ____
ROOT
ATOM      1  C   UNL     1       0.203   9.885  19.551  0.00  0.00    +0.000 C 
ATOM      2  C   UNL     1       0.724   9.432  18.181  0.00  0.00    +0.000 C 
ATOM      3  C   UNL     1       2.179   8.965  18.278  0.00  0.00    +0.000 C 
ATOM      4  C   UNL     1       2.337   7.785  19.256  0.00  0.00    +0.000 C 
ATOM      5  C   UNL     1       1.750   8.154  20.632  0.00  0.00    +0.000 C 
ATOM      6  C   UNL     1       0.336   8.739  20.567  0.00  0.00    +0.000 C 
ENDROOT
BRANCH   1   8
ATOM      7  O   UNL     1       1.177  11.411  21.184  0.00  0.00    +0.000 OA
ATOM      8  C   UNL     1       0.898  11.173  20.014  0.00  0.00    +0.000 C 
ATOM      9  N   UNL     1       1.147  12.058  18.988  0.00  0.00    +0.000 N 
ATOM     10  H   UNL     1       0.948  11.779  18.038  0.00  0.00    +0.000 HD
BRANCH   9  11
ATOM     11  C   UNL     1       1.831  13.314  19.181  0.00  0.00    +0.000 C 
ATOM     12  C   UNL     1       2.952  13.560  18.175  0.00  0.00    +0.000 C 
ATOM     13  C   UNL     1       3.178  15.066  18.266  0.00  0.00    +0.000 C 
ATOM     14  C   UNL     1       1.829  15.669  18.663  0.00  0.00    +0.000 C 
ATOM     15  C   UNL     1       0.899  14.491  18.918  0.00  0.00    +0.000 C 
ENDBRANCH   9  11
ENDBRANCH   1   8
BRANCH   4  16
ATOM     16  C   UNL     1       1.712   6.544  18.603  0.00  0.00    +0.000 C 
BRANCH  16  17
ATOM     17  N   UNL     1       1.901   5.319  19.380  0.00  0.00    +0.000 NA
ATOM     18  H   UNL     1       1.238   5.110  20.128  0.00  0.00    +0.000 HD
BRANCH  17  19
ATOM     19  S   UNL     1       2.220   3.929  18.462  0.00  0.00    +0.000 S 
ATOM     20  O   UNL     1       2.167   2.812  19.383  0.00  0.00    +0.000 OA
ATOM     21  O   UNL     1       1.399   3.977  17.273  0.00  0.00    +0.000 OA
BRANCH  19  22
ATOM     22  C   UNL     1       3.912   4.179  18.010  0.00  0.00    +0.000 A 
ATOM     23  C   UNL     1       4.809   4.632  18.983  0.00  0.00    +0.000 A 
ATOM     24  C   UNL     1       6.146   4.826  18.643  0.00  0.00    +0.000 A 
ATOM     25  C   UNL     1       6.571   4.559  17.345  0.00  0.00    +0.000 A 
ATOM     26  F   UNL     1       7.857   4.746  17.022  0.00  0.00    +0.000 F 
ATOM     27  C   UNL     1       5.684   4.100  16.376  0.00  0.00    +0.000 A 
ATOM     28  C   UNL     1       4.340   3.909  16.706  0.00  0.00    +0.000 A 
ENDBRANCH  19  22
ENDBRANCH  17  19
ENDBRANCH  16  17
ENDBRANCH   4  16
TORSDOF 6
ENDMDL
