MODEL 1
REMARK VINA RESULT:      -7.4      0.000      0.000
REMARK  Name = 
REMARK  5 active torsions:
REMARK  status: ('A' for Active; 'I' for Inactive)
REMARK    1  A    between atoms: C_1  and  C_2
REMARK    2  A    between atoms: C_2  and  O_4
REMARK    3  A    between atoms: O_4  and  C_5
REMARK    4  A    between atoms: C_11  and  C_12
REMARK    5  A    between atoms: N_15  and  C_16
REMARK                            x       y       z     vdW  Elec       q    Type
REMARK                         _______ _______ _______ _____ _____    ______ ____
ROOT
ATOM      1  C   UNL     1       6.486   6.030  16.519  0.00  0.00    +0.000 A 
ATOM      2  C   UNL     1       6.689   4.728  16.048  0.00  0.00    +0.000 A 
ATOM      3  C   UNL     1       5.625   3.865  16.092  0.00  0.00    +0.000 A 
ATOM      4  C   UNL     1       4.424   4.281  16.695  0.00  0.00    +0.000 A 
ATOM      5  C   UNL     1       4.145   5.656  17.148  0.00  0.00    +0.000 A 
ATOM      6  C   UNL     1       5.248   6.514  17.036  0.00  0.00    +0.000 A 
ATOM      7  C   UNL     1       2.877   5.937  18.113  0.00  0.00    +0.000 C 
ATOM      8  C   UNL     1       1.644   6.873  18.427  0.00  0.00    +0.000 C 
ATOM      9  C   UNL     1       3.548   5.947  19.514  0.00  0.00    +0.000 C 
ATOM     10  C   UNL     1       3.407   4.652  20.260  0.00  0.00    +0.000 C 
ATOM     11  N   UNL     1       3.428   3.531  19.317  0.00  0.00    +0.000 NA
ATOM     12  C   UNL     1       3.905   2.311  19.923  0.00  0.00    +0.000 C 
ATOM     13  C   UNL     1       2.599   3.470  18.147  0.00  0.00    +0.000 C 
ATOM     14  C   UNL     1       3.463   3.118  16.953  0.00  0.00    +0.000 C 
ATOM     15  C   UNL     1       1.999   4.768  17.662  0.00  0.00    +0.000 C 
ENDROOT
BRANCH   1  16
ATOM     16  O   UNL     1       7.674   6.780  16.673  0.00  0.00    +0.000 OA
BRANCH  16  18
ATOM     17  C   UNL     1       8.026   8.798  17.796  0.00  0.00    +0.000 C 
ATOM     18  C   UNL     1       7.980   7.308  17.922  0.00  0.00    +0.000 C 
ATOM     19  O   UNL     1       8.157   6.681  18.955  0.00  0.00    +0.000 OA
ENDBRANCH  16  18
ENDBRANCH   1  16
TORSDOF 2
ENDMDL
MODEL 2
REMARK VINA RESULT:      -7.4      2.709      5.397
REMARK  Name = 
REMARK  5 active torsions:
REMARK  status: ('A' for Active; 'I' for Inactive)
REMARK    1  A    between atoms: C_1  and  C_2
REMARK    2  A    between atoms: C_2  and  O_4
REMARK    3  A    between atoms: O_4  and  C_5
REMARK    4  A    between atoms: C_11  and  C_12
REMARK    5  A    between atoms: N_15  and  C_16
REMARK                            x       y       z     vdW  Elec       q    Type
REMARK                         _______ _______ _______ _____ _____    ______ ____
ROOT
ATOM      1  C   UNL     1       2.669   3.842  18.653  0.00  0.00    +0.000 A 
ATOM      2  C   UNL     1       2.590   5.054  19.347  0.00  0.00    +0.000 A 
ATOM      3  C   UNL     1       3.206   6.145  18.791  0.00  0.00    +0.000 A 
ATOM      4  C   UNL     1       3.970   5.983  17.620  0.00  0.00    +0.000 A 
ATOM      5  C   UNL     1       4.033   4.743  16.825  0.00  0.00    +0.000 A 
ATOM      6  C   UNL     1       3.344   3.670  17.408  0.00  0.00    +0.000 A 
ATOM      7  C   UNL     1       5.186   4.572  15.703  0.00  0.00    +0.000 C 
ATOM      8  C   UNL     1       5.536   4.101  14.236  0.00  0.00    +0.000 C 
ATOM      9  C   UNL     1       6.257   3.755  16.477  0.00  0.00    +0.000 C 
ATOM     10  C   UNL     1       7.376   4.593  17.023  0.00  0.00    +0.000 C 
ATOM     11  N   UNL     1       6.866   5.910  17.414  0.00  0.00    +0.000 NA
ATOM     12  C   UNL     1       7.656   6.519  18.457  0.00  0.00    +0.000 C 
ATOM     13  C   UNL     1       6.066   6.733  16.551  0.00  0.00    +0.000 C 
ATOM     14  C   UNL     1       4.845   7.201  17.316  0.00  0.00    +0.000 C 
ATOM     15  C   UNL     1       5.397   6.053  15.381  0.00  0.00    +0.000 C 
ENDROOT
BRANCH   1  16
ATOM     16  O   UNL     1       2.230   2.722  19.395  0.00  0.00    +0.000 OA
BRANCH  16  18
ATOM     17  C   UNL     1       1.544   2.611  21.625  0.00  0.00    +0.000 C 
ATOM     18  C   UNL     1       2.708   2.542  20.688  0.00  0.00    +0.000 C 
ATOM     19  O   UNL     1       3.866   2.337  21.015  0.00  0.00    +0.000 OA
ENDBRANCH  16  18
ENDBRANCH   1  16
TORSDOF 2
ENDMDL
MODEL 3
REMARK VINA RESULT:      -7.0      2.001      3.730
REMARK  Name = 
REMARK  5 active torsions:
REMARK  status: ('A' for Active; 'I' for Inactive)
REMARK    1  A    between atoms: C_1  and  C_2
REMARK    2  A    between atoms: C_2  and  O_4
REMARK    3  A    between atoms: O_4  and  C_5
REMARK    4  A    between atoms: C_11  and  C_12
REMARK    5  A    between atoms: N_15  and  C_16
REMARK                            x       y       z     vdW  Elec       q    Type
REMARK                         _______ _______ _______ _____ _____    ______ ____
ROOT
ATOM      1  C   UNL     1       6.197   5.110  15.381  0.00  0.00    +0.000 A 
ATOM      2  C   UNL     1       6.760   6.113  16.178  0.00  0.00    +0.000 A 
ATOM      3  C   UNL     1       6.543   6.044  17.530  0.00  0.00    +0.000 A 
ATOM      4  C   UNL     1       5.691   5.049  18.042  0.00  0.00    +0.000 A 
ATOM      5  C   UNL     1       5.126   3.940  17.251  0.00  0.00    +0.000 A 
ATOM      6  C   UNL     1       5.418   4.026  15.882  0.00  0.00    +0.000 A 
ATOM      7  C   UNL     1       3.911   3.062  17.861  0.00  0.00    +0.000 C 
ATOM      8  C   UNL     1       3.311   1.616  18.074  0.00  0.00    +0.000 C 
ATOM      9  C   UNL     1       2.676   3.740  17.208  0.00  0.00    +0.000 C 
ATOM     10  C   UNL     1       1.980   4.719  18.108  0.00  0.00    +0.000 C 
ATOM     11  N   UNL     1       2.959   5.387  18.968  0.00  0.00    +0.000 NA
ATOM     12  C   UNL     1       2.521   6.697  19.387  0.00  0.00    +0.000 C 
ATOM     13  C   UNL     1       3.939   4.681  19.743  0.00  0.00    +0.000 C 
ATOM     14  C   UNL     1       5.298   5.304  19.499  0.00  0.00    +0.000 C 
ATOM     15  C   UNL     1       4.230   3.254  19.345  0.00  0.00    +0.000 C 
ENDROOT
BRANCH   1  16
ATOM     16  O   UNL     1       6.251   5.378  13.994  0.00  0.00    +0.000 OA
BRANCH  16  18
ATOM     17  C   UNL     1       7.099   3.979  12.327  0.00  0.00    +0.000 C 
ATOM     18  C   UNL     1       7.414   5.075  13.294  0.00  0.00    +0.000 C 
ATOM     19  O   UNL     1       8.501   5.618  13.418  0.00  0.00    +0.000 OA
ENDBRANCH  16  18
ENDBRANCH   1  16
TORSDOF 2
ENDMDL
MODEL 4
REMARK VINA RESULT:      -6.9      1.358      1.905
REMARK  Name = 
REMARK  5 active torsions:
REMARK  status: ('A' for Active; 'I' for Inactive)
REMARK    1  A    between atoms: C_1  and  C_2
REMARK    2  A    between atoms: C_2  and  O_4
REMARK    3  A    between atoms: O_4  and  C_5
REMARK    4  A    between atoms: C_11  and  C_12
REMARK    5  A    between atoms: N_15  and  C_16
REMARK                            x       y       z     vdW  Elec       q    Type
REMARK                         _______ _______ _______ _____ _____    ______ ____
ROOT
ATOM      1  C   UNL     1       4.821   6.278  17.308  0.00  0.00    +0.000 A 
ATOM      2  C   UNL     1       5.105   5.377  16.276  0.00  0.00    +0.000 A 
ATOM      3  C   UNL     1       4.301   4.272  16.161  0.00  0.00    +0.000 A 
ATOM      4  C   UNL     1       3.309   4.037  17.131  0.00  0.00    +0.000 A 
ATOM      5  C   UNL     1       2.936   4.986  18.196  0.00  0.00    +0.000 A 
ATOM      6  C   UNL     1       3.754   6.124  18.240  0.00  0.00    +0.000 A 
ATOM      7  C   UNL     1       2.027   4.479  19.435  0.00  0.00    +0.000 C 
ATOM      8  C   UNL     1       0.809   4.796  20.390  0.00  0.00    +0.000 C 
ATOM      9  C   UNL     1       3.105   4.181  20.512  0.00  0.00    +0.000 C 
ATOM     10  C   UNL     1       3.469   2.728  20.616  0.00  0.00    +0.000 C 
ATOM     11  N   UNL     1       3.394   2.101  19.293  0.00  0.00    +0.000 NA
ATOM     12  C   UNL     1       4.269   0.960  19.175  0.00  0.00    +0.000 C 
ATOM     13  C   UNL     1       2.255   2.220  18.429  0.00  0.00    +0.000 C 
ATOM     14  C   UNL     1       2.729   2.623  17.047  0.00  0.00    +0.000 C 
ATOM     15  C   UNL     1       1.291   3.347  18.713  0.00  0.00    +0.000 C 
ENDROOT
BRANCH   1  16
ATOM     16  O   UNL     1       5.827   7.250  17.518  0.00  0.00    +0.000 OA
BRANCH  16  18
ATOM     17  C   UNL     1       7.499   6.112  18.684  0.00  0.00    +0.000 C 
ATOM     18  C   UNL     1       7.161   6.867  17.439  0.00  0.00    +0.000 C 
ATOM     19  O   UNL     1       7.926   7.079  16.511  0.00  0.00    +0.000 OA
ENDBRANCH  16  18
ENDBRANCH   1  16
TORSDOF 2
ENDMDL
MODEL 5
REMARK VINA RESULT:      -6.9      2.850      5.482
REMARK  Name = 
REMARK  5 active torsions:
REMARK  status: ('A' for Active; 'I' for Inactive)
REMARK    1  A    between atoms: C_1  and  C_2
REMARK    2  A    between atoms: C_2  and  O_4
REMARK    3  A    between atoms: O_4  and  C_5
REMARK    4  A    between atoms: C_11  and  C_12
REMARK    5  A    between atoms: N_15  and  C_16
REMARK                            x       y       z     vdW  Elec       q    Type
REMARK                         _______ _______ _______ _____ _____    ______ ____
ROOT
ATOM      1  C   UNL     1       2.813   5.212  19.869  0.00  0.00    +0.000 A 
ATOM      2  C   UNL     1       2.487   6.562  19.694  0.00  0.00    +0.000 A 
ATOM      3  C   UNL     1       2.909   7.172  18.541  0.00  0.00    +0.000 A 
ATOM      4  C   UNL     1       3.730   6.461  17.646  0.00  0.00    +0.000 A 
ATOM      5  C   UNL     1       4.048   5.026  17.758  0.00  0.00    +0.000 A 
ATOM      6  C   UNL     1       3.551   4.435  18.928  0.00  0.00    +0.000 A 
ATOM      7  C   UNL     1       5.250   4.403  16.872  0.00  0.00    +0.000 C 
ATOM      8  C   UNL     1       5.731   3.203  15.964  0.00  0.00    +0.000 C 
ATOM      9  C   UNL     1       6.427   4.421  17.886  0.00  0.00    +0.000 C 
ATOM     10  C   UNL     1       7.352   5.590  17.716  0.00  0.00    +0.000 C 
ATOM     11  N   UNL     1       6.594   6.764  17.275  0.00  0.00    +0.000 NA
ATOM     12  C   UNL     1       7.221   8.003  17.665  0.00  0.00    +0.000 C 
ATOM     13  C   UNL     1       5.685   6.743  16.164  0.00  0.00    +0.000 C 
ATOM     14  C   UNL     1       4.373   7.368  16.593  0.00  0.00    +0.000 C 
ATOM     15  C   UNL     1       5.194   5.391  15.705  0.00  0.00    +0.000 C 
ENDROOT
BRANCH   1  16
ATOM     16  O   UNL     1       2.565   4.723  21.172  0.00  0.00    +0.000 OA
BRANCH  16  18
ATOM     17  C   UNL     1       0.893   3.212  20.558  0.00  0.00    +0.000 C 
ATOM     18  C   UNL     1       2.160   3.402  21.329  0.00  0.00    +0.000 C 
ATOM     19  O   UNL     1       2.740   2.532  21.960  0.00  0.00    +0.000 OA
ENDBRANCH  16  18
ENDBRANCH   1  16
TORSDOF 2
ENDMDL
MODEL 6
REMARK VINA RESULT:      -6.8      2.484      4.324
REMARK  Name = 
REMARK  5 active torsions:
REMARK  status: ('A' for Active; 'I' for Inactive)
REMARK    1  A    between atoms: C_1  and  C_2
REMARK    2  A    between atoms: C_2  and  O_4
REMARK    3  A    between atoms: O_4  and  C_5
REMARK    4  A    between atoms: C_11  and  C_12
REMARK    5  A    between atoms: N_15  and  C_16
REMARK                            x       y       z     vdW  Elec       q    Type
REMARK                         _______ _______ _______ _____ _____    ______ ____
ROOT
ATOM      1  C   UNL     1       5.509   4.285  14.603  0.00  0.00    +0.000 A 
ATOM      2  C   UNL     1       6.178   5.457  14.973  0.00  0.00    +0.000 A 
ATOM      3  C   UNL     1       6.246   5.752  16.310  0.00  0.00    +0.000 A 
ATOM      4  C   UNL     1       5.564   4.937  17.232  0.00  0.00    +0.000 A 
ATOM      5  C   UNL     1       4.900   3.664  16.895  0.00  0.00    +0.000 A 
ATOM      6  C   UNL     1       4.901   3.381  15.522  0.00  0.00    +0.000 A 
ATOM      7  C   UNL     1       3.879   2.991  17.955  0.00  0.00    +0.000 C 
ATOM      8  C   UNL     1       3.402   1.661  18.661  0.00  0.00    +0.000 C 
ATOM      9  C   UNL     1       2.506   3.485  17.423  0.00  0.00    +0.000 C 
ATOM     10  C   UNL     1       1.965   4.675  18.161  0.00  0.00    +0.000 C 
ATOM     11  N   UNL     1       3.069   5.537  18.591  0.00  0.00    +0.000 NA
ATOM     12  C   UNL     1       2.666   6.916  18.734  0.00  0.00    +0.000 C 
ATOM     13  C   UNL     1       4.218   5.052  19.299  0.00  0.00    +0.000 C 
ATOM     14  C   UNL     1       5.468   5.574  18.621  0.00  0.00    +0.000 C 
ATOM     15  C   UNL     1       4.487   3.567  19.236  0.00  0.00    +0.000 C 
ENDROOT
BRANCH   1  16
ATOM     16  O   UNL     1       5.265   4.175  13.215  0.00  0.00    +0.000 OA
BRANCH  16  18
ATOM     17  C   UNL     1       5.781   2.372  11.822  0.00  0.00    +0.000 C 
ATOM     18  C   UNL     1       6.265   3.667  12.393  0.00  0.00    +0.000 C 
ATOM     19  O   UNL     1       7.342   4.188  12.149  0.00  0.00    +0.000 OA
ENDBRANCH  16  18
ENDBRANCH   1  16
TORSDOF 2
ENDMDL
MODEL 7
REMARK VINA RESULT:      -6.8      1.792      3.583
REMARK  Name = 
REMARK  5 active torsions:
REMARK  status: ('A' for Active; 'I' for Inactive)
REMARK    1  A    between atoms: C_1  and  C_2
REMARK    2  A    between atoms: C_2  and  O_4
REMARK    3  A    between atoms: O_4  and  C_5
REMARK    4  A    between atoms: C_11  and  C_12
REMARK    5  A    between atoms: N_15  and  C_16
REMARK                            x       y       z     vdW  Elec       q    Type
REMARK                         _______ _______ _______ _____ _____    ______ ____
ROOT
ATOM      1  C   UNL     1       6.612   5.130  16.782  0.00  0.00    +0.000 A 
ATOM      2  C   UNL     1       5.948   6.342  16.562  0.00  0.00    +0.000 A 
ATOM      3  C   UNL     1       4.879   6.634  17.369  0.00  0.00    +0.000 A 
ATOM      4  C   UNL     1       4.434   5.675  18.298  0.00  0.00    +0.000 A 
ATOM      5  C   UNL     1       5.136   4.416  18.605  0.00  0.00    +0.000 A 
ATOM      6  C   UNL     1       6.252   4.186  17.789  0.00  0.00    +0.000 A 
ATOM      7  C   UNL     1       4.368   3.256  19.433  0.00  0.00    +0.000 C 
ATOM      8  C   UNL     1       4.462   2.182  20.588  0.00  0.00    +0.000 C 
ATOM      9  C   UNL     1       3.870   2.332  18.288  0.00  0.00    +0.000 C 
ATOM     10  C   UNL     1       2.433   2.555  17.915  0.00  0.00    +0.000 C 
ATOM     11  N   UNL     1       2.093   3.972  18.072  0.00  0.00    +0.000 NA
ATOM     12  C   UNL     1       1.015   4.378  17.204  0.00  0.00    +0.000 C 
ATOM     13  C   UNL     1       2.371   4.721  19.264  0.00  0.00    +0.000 C 
ATOM     14  C   UNL     1       3.059   6.015  18.879  0.00  0.00    +0.000 C 
ATOM     15  C   UNL     1       3.399   4.150  20.210  0.00  0.00    +0.000 C 
ENDROOT
BRANCH   1  16
ATOM     16  O   UNL     1       7.535   4.785  15.768  0.00  0.00    +0.000 OA
BRANCH  16  18
ATOM     17  C   UNL     1       6.049   3.868  14.217  0.00  0.00    +0.000 C 
ATOM     18  C   UNL     1       7.137   4.870  14.439  0.00  0.00    +0.000 C 
ATOM     19  O   UNL     1       7.571   5.639  13.596  0.00  0.00    +0.000 OA
ENDBRANCH  16  18
ENDBRANCH   1  16
TORSDOF 2
ENDMDL
MODEL 8
REMARK VINA RESULT:      -6.8      1.705      3.590
REMARK  Name = 
REMARK  5 active torsions:
REMARK  status: ('A' for Active; 'I' for Inactive)
REMARK    1  A    between atoms: C_1  and  C_2
REMARK    2  A    between atoms: C_2  and  O_4
REMARK    3  A    between atoms: O_4  and  C_5
REMARK    4  A    between atoms: C_11  and  C_12
REMARK    5  A    between atoms: N_15  and  C_16
REMARK                            x       y       z     vdW  Elec       q    Type
REMARK                         _______ _______ _______ _____ _____    ______ ____
ROOT
ATOM      1  C   UNL     1       4.813   5.955  17.918  0.00  0.00    +0.000 A 
ATOM      2  C   UNL     1       3.697   6.756  18.182  0.00  0.00    +0.000 A 
ATOM      3  C   UNL     1       2.826   6.332  19.152  0.00  0.00    +0.000 A 
ATOM      4  C   UNL     1       3.028   5.078  19.758  0.00  0.00    +0.000 A 
ATOM      5  C   UNL     1       4.217   4.230  19.557  0.00  0.00    +0.000 A 
ATOM      6  C   UNL     1       5.103   4.732  18.593  0.00  0.00    +0.000 A 
ATOM      7  C   UNL     1       4.187   2.685  20.037  0.00  0.00    +0.000 C 
ATOM      8  C   UNL     1       4.966   1.516  20.759  0.00  0.00    +0.000 C 
ATOM      9  C   UNL     1       3.830   1.953  18.715  0.00  0.00    +0.000 C 
ATOM     10  C   UNL     1       2.376   1.598  18.595  0.00  0.00    +0.000 C 
ATOM     11  N   UNL     1       1.558   2.627  19.244  0.00  0.00    +0.000 NA
ATOM     12  C   UNL     1       0.233   2.712  18.681  0.00  0.00    +0.000 C 
ATOM     13  C   UNL     1       1.799   3.099  20.578  0.00  0.00    +0.000 C 
ATOM     14  C   UNL     1       1.813   4.614  20.565  0.00  0.00    +0.000 C 
ATOM     15  C   UNL     1       3.163   2.830  21.166  0.00  0.00    +0.000 C 
ENDROOT
BRANCH   1  16
ATOM     16  O   UNL     1       5.524   6.321  16.753  0.00  0.00    +0.000 OA
BRANCH  16  18
ATOM     17  C   UNL     1       7.492   7.306  17.534  0.00  0.00    +0.000 C 
ATOM     18  C   UNL     1       6.907   6.184  16.736  0.00  0.00    +0.000 C 
ATOM     19  O   UNL     1       7.546   5.296  16.194  0.00  0.00    +0.000 OA
ENDBRANCH  16  18
ENDBRANCH   1  16
TORSDOF 2
ENDMDL
MODEL 9
REMARK VINA RESULT:      -6.8      2.045      3.771
REMARK  Name = 
REMARK  5 active torsions:
REMARK  status: ('A' for Active; 'I' for Inactive)
REMARK    1  A    between atoms: C_1  and  C_2
REMARK    2  A    between atoms: C_2  and  O_4
REMARK    3  A    between atoms: O_4  and  C_5
REMARK    4  A    between atoms: C_11  and  C_12
REMARK    5  A    between atoms: N_15  and  C_16
REMARK                            x       y       z     vdW  Elec       q    Type
REMARK                         _______ _______ _______ _____ _____    ______ ____
ROOT
ATOM      1  C   UNL     1       5.149   5.555  17.360  0.00  0.00    +0.000 A 
ATOM      2  C   UNL     1       4.141   6.501  17.580  0.00  0.00    +0.000 A 
ATOM      3  C   UNL     1       3.287   6.285  18.630  0.00  0.00    +0.000 A 
ATOM      4  C   UNL     1       3.388   5.090  19.367  0.00  0.00    +0.000 A 
ATOM      5  C   UNL     1       4.468   4.097  19.211  0.00  0.00    +0.000 A 
ATOM      6  C   UNL     1       5.345   4.389  18.157  0.00  0.00    +0.000 A 
ATOM      7  C   UNL     1       4.301   2.627  19.867  0.00  0.00    +0.000 C 
ATOM      8  C   UNL     1       4.992   1.465  20.682  0.00  0.00    +0.000 C 
ATOM      9  C   UNL     1       3.793   1.800  18.654  0.00  0.00    +0.000 C 
ATOM     10  C   UNL     1       2.306   1.599  18.642  0.00  0.00    +0.000 C 
ATOM     11  N   UNL     1       1.640   2.777  19.204  0.00  0.00    +0.000 NA
ATOM     12  C   UNL     1       0.301   2.949  18.695  0.00  0.00    +0.000 C 
ATOM     13  C   UNL     1       2.005   3.363  20.463  0.00  0.00    +0.000 C 
ATOM     14  C   UNL     1       2.179   4.856  20.276  0.00  0.00    +0.000 C 
ATOM     15  C   UNL     1       3.365   3.008  21.016  0.00  0.00    +0.000 C 
ENDROOT
BRANCH   1  16
ATOM     16  O   UNL     1       5.827   5.710  16.129  0.00  0.00    +0.000 OA
BRANCH  16  18
ATOM     17  C   UNL     1       6.120   3.930  14.646  0.00  0.00    +0.000 C 
ATOM     18  C   UNL     1       6.742   4.740  15.738  0.00  0.00    +0.000 C 
ATOM     19  O   UNL     1       7.869   4.581  16.180  0.00  0.00    +0.000 OA
ENDBRANCH  16  18
ENDBRANCH   1  16
TORSDOF 2
ENDMDL
