MODEL 1
REMARK VINA RESULT:      -7.4      0.000      0.000
REMARK  Name = 
REMARK  11 active torsions:
REMARK  status: ('A' for Active; 'I' for Inactive)
REMARK    1  A    between atoms: C_1  and  C_2
REMARK    2  A    between atoms: N_4  and  C_5
REMARK    3  A    between atoms: C_6  and  O_7
REMARK    4  A    between atoms: C_9  and  C_10
REMARK    5  A    between atoms: C_10  and  O_12
REMARK    6  A    between atoms: C_14  and  C_15
REMARK    7  A    between atoms: C_15  and  O_16
REMARK    8  A    between atoms: C_15  and  C_17
REMARK    9  A    between atoms: C_17  and  O_18
REMARK   10  A    between atoms: C_17  and  C_19
REMARK   11  A    between atoms: C_19  and  N_20
REMARK                            x       y       z     vdW  Elec       q    Type
REMARK                         _______ _______ _______ _____ _____    ______ ____
ROOT
ATOM      1  C   UNL     1       3.917   5.217  18.054  0.00  0.00    +0.000 C 
ATOM      2  C   UNL     1       2.749   4.407  18.678  0.00  0.00    +0.000 C 
ATOM      3  C   UNL     1       3.214   3.160  19.341  0.00  0.00    +0.000 C 
ATOM      4  C   UNL     1       4.508   2.909  19.571  0.00  0.00    +0.000 C 
ATOM      5  O   UNL     1       5.532   3.778  19.227  0.00  0.00    +0.000 OA
ATOM      6  C   UNL     1       5.130   5.162  19.026  0.00  0.00    +0.000 C 
ENDROOT
BRANCH   1  10
ATOM      7  C   UNL     1       2.371   8.689  17.870  0.00  0.00    +0.000 C 
ATOM      8  C   UNL     1       2.753   7.377  18.496  0.00  0.00    +0.000 C 
ATOM      9  O   UNL     1       2.497   7.094  19.662  0.00  0.00    +0.000 OA
ATOM     10  N   UNL     1       3.456   6.546  17.657  0.00  0.00    +0.000 N 
ATOM     11  H   UNL     1       3.727   6.897  16.746  0.00  0.00    +0.000 HD
ENDBRANCH   1  10
BRANCH   2  12
ATOM     12  O   UNL     1       1.797   4.054  17.675  0.00  0.00    +0.000 OA
ATOM     13  H   UNL     1       2.264   3.612  16.948  0.00  0.00    +0.000 HD
ENDBRANCH   2  12
BRANCH   4  14
ATOM     14  C   UNL     1       4.870   1.613  20.230  0.00  0.00    +0.000 C 
ATOM     15  O   UNL     1       5.177   1.483  21.403  0.00  0.00    +0.000 OA
BRANCH  14  16
ATOM     16  O   UNL     1       4.814   0.591  19.351  0.00  0.00    +0.000 OA
ATOM     17  H   UNL     1       4.283   0.826  18.568  0.00  0.00    +0.000 HD
ENDBRANCH  14  16
ENDBRANCH   4  14
BRANCH   6  18
ATOM     18  C   UNL     1       6.390   5.933  18.528  0.00  0.00    +0.000 C 
BRANCH  18  19
ATOM     19  O   UNL     1       7.590   5.431  19.134  0.00  0.00    +0.000 OA
ATOM     20  H   UNL     1       7.820   4.616  18.636  0.00  0.00    +0.000 HD
ENDBRANCH  18  19
BRANCH  18  21
ATOM     21  C   UNL     1       6.628   5.866  16.993  0.00  0.00    +0.000 C 
BRANCH  21  22
ATOM     22  O   UNL     1       7.574   6.890  16.637  0.00  0.00    +0.000 OA
ATOM     23  H   UNL     1       7.165   7.768  16.735  0.00  0.00    +0.000 HD
ENDBRANCH  21  22
BRANCH  21  24
ATOM     24  C   UNL     1       7.052   4.495  16.453  0.00  0.00    +0.000 C 
BRANCH  24  25
ATOM     25  N   UNL     1       6.804   4.410  15.004  0.00  0.00    +0.000 NA
ATOM     26  N   UNL     1       7.565   5.093  14.293  0.00  0.00    +0.000 NA
ATOM     27  N   UNL     1       8.289   5.720  13.676  0.00  0.00    +0.000 NA
ENDBRANCH  24  25
ENDBRANCH  21  24
ENDBRANCH  18  21
ENDBRANCH   6  18
TORSDOF 10
ENDMDL
MODEL 2
REMARK VINA RESULT:      -7.1      2.942      5.683
REMARK  Name = 
REMARK  11 active torsions:
REMARK  status: ('A' for Active; 'I' for Inactive)
REMARK    1  A    between atoms: C_1  and  C_2
REMARK    2  A    between atoms: N_4  and  C_5
REMARK    3  A    between atoms: C_6  and  O_7
REMARK    4  A    between atoms: C_9  and  C_10
REMARK    5  A    between atoms: C_10  and  O_12
REMARK    6  A    between atoms: C_14  and  C_15
REMARK    7  A    between atoms: C_15  and  O_16
REMARK    8  A    between atoms: C_15  and  C_17
REMARK    9  A    between atoms: C_17  and  O_18
REMARK   10  A    between atoms: C_17  and  C_19
REMARK   11  A    between atoms: C_19  and  N_20
REMARK                            x       y       z     vdW  Elec       q    Type
REMARK                         _______ _______ _______ _____ _____    ______ ____
ROOT
ATOM      1  C   UNL     1       4.737   5.298  18.016  0.00  0.00    +0.000 C 
ATOM      2  C   UNL     1       5.005   6.484  17.050  0.00  0.00    +0.000 C 
ATOM      3  C   UNL     1       5.606   6.044  15.763  0.00  0.00    +0.000 C 
ATOM      4  C   UNL     1       5.673   4.756  15.405  0.00  0.00    +0.000 C 
ATOM      5  O   UNL     1       5.190   3.717  16.185  0.00  0.00    +0.000 OA
ATOM      6  C   UNL     1       4.202   4.097  17.185  0.00  0.00    +0.000 C 
ENDROOT
BRANCH   1  10
ATOM      7  C   UNL     1       2.097   6.842  20.279  0.00  0.00    +0.000 C 
ATOM      8  C   UNL     1       2.779   6.499  18.984  0.00  0.00    +0.000 C 
ATOM      9  O   UNL     1       2.340   6.834  17.889  0.00  0.00    +0.000 OA
ATOM     10  N   UNL     1       3.912   5.736  19.139  0.00  0.00    +0.000 N 
ATOM     11  H   UNL     1       4.147   5.404  20.067  0.00  0.00    +0.000 HD
ENDBRANCH   1  10
BRANCH   2  12
ATOM     12  O   UNL     1       5.886   7.430  17.656  0.00  0.00    +0.000 OA
ATOM     13  H   UNL     1       5.359   8.035  18.203  0.00  0.00    +0.000 HD
ENDBRANCH   2  12
BRANCH   4  14
ATOM     14  C   UNL     1       6.315   4.419  14.094  0.00  0.00    +0.000 C 
ATOM     15  O   UNL     1       5.949   3.533  13.340  0.00  0.00    +0.000 OA
BRANCH  14  16
ATOM     16  O   UNL     1       7.364   5.229  13.846  0.00  0.00    +0.000 OA
ATOM     17  H   UNL     1       7.894   5.379  14.651  0.00  0.00    +0.000 HD
ENDBRANCH  14  16
ENDBRANCH   4  14
BRANCH   6  18
ATOM     18  C   UNL     1       3.891   2.821  18.023  0.00  0.00    +0.000 C 
BRANCH  18  19
ATOM     19  O   UNL     1       4.211   3.008  19.410  0.00  0.00    +0.000 OA
ATOM     20  H   UNL     1       4.905   2.345  19.615  0.00  0.00    +0.000 HD
ENDBRANCH  18  19
BRANCH  18  21
ATOM     21  C   UNL     1       2.405   2.365  17.987  0.00  0.00    +0.000 C 
BRANCH  21  22
ATOM     22  O   UNL     1       2.261   1.219  18.844  0.00  0.00    +0.000 OA
ATOM     23  H   UNL     1       2.121   0.420  18.307  0.00  0.00    +0.000 HD
ENDBRANCH  21  22
BRANCH  21  24
ATOM     24  C   UNL     1       1.377   3.452  18.323  0.00  0.00    +0.000 C 
BRANCH  24  25
ATOM     25  N   UNL     1       0.696   3.147  19.593  0.00  0.00    +0.000 NA
ATOM     26  N   UNL     1       1.411   3.224  20.611  0.00  0.00    +0.000 NA
ATOM     27  N   UNL     1       2.093   3.317  21.519  0.00  0.00    +0.000 NA
ENDBRANCH  24  25
ENDBRANCH  21  24
ENDBRANCH  18  21
ENDBRANCH   6  18
TORSDOF 10
ENDMDL
MODEL 3
REMARK VINA RESULT:      -7.1      2.015      4.499
REMARK  Name = 
REMARK  11 active torsions:
REMARK  status: ('A' for Active; 'I' for Inactive)
REMARK    1  A    between atoms: C_1  and  C_2
REMARK    2  A    between atoms: N_4  and  C_5
REMARK    3  A    between atoms: C_6  and  O_7
REMARK    4  A    between atoms: C_9  and  C_10
REMARK    5  A    between atoms: C_10  and  O_12
REMARK    6  A    between atoms: C_14  and  C_15
REMARK    7  A    between atoms: C_15  and  O_16
REMARK    8  A    between atoms: C_15  and  C_17
REMARK    9  A    between atoms: C_17  and  O_18
REMARK   10  A    between atoms: C_17  and  C_19
REMARK   11  A    between atoms: C_19  and  N_20
REMARK                            x       y       z     vdW  Elec       q    Type
REMARK                         _______ _______ _______ _____ _____    ______ ____
ROOT
ATOM      1  C   UNL     1       3.077   4.586  19.460  0.00  0.00    +0.000 C 
ATOM      2  C   UNL     1       1.637   4.615  20.041  0.00  0.00    +0.000 C 
ATOM      3  C   UNL     1       1.236   5.971  20.499  0.00  0.00    +0.000 C 
ATOM      4  C   UNL     1       1.951   7.065  20.214  0.00  0.00    +0.000 C 
ATOM      5  O   UNL     1       3.119   7.047  19.466  0.00  0.00    +0.000 OA
ATOM      6  C   UNL     1       3.295   5.876  18.619  0.00  0.00    +0.000 C 
ENDROOT
BRANCH   1  10
ATOM      7  C   UNL     1       4.085   1.041  18.513  0.00  0.00    +0.000 C 
ATOM      8  C   UNL     1       3.917   2.239  19.405  0.00  0.00    +0.000 C 
ATOM      9  O   UNL     1       4.239   2.241  20.588  0.00  0.00    +0.000 OA
ATOM     10  N   UNL     1       3.326   3.314  18.785  0.00  0.00    +0.000 N 
ATOM     11  H   UNL     1       2.984   3.198  17.838  0.00  0.00    +0.000 HD
ENDBRANCH   1  10
BRANCH   2  12
ATOM     12  O   UNL     1       1.528   3.717  21.145  0.00  0.00    +0.000 OA
ATOM     13  H   UNL     1       1.601   4.229  21.967  0.00  0.00    +0.000 HD
ENDBRANCH   2  12
BRANCH   4  14
ATOM     14  C   UNL     1       1.468   8.382  20.740  0.00  0.00    +0.000 C 
ATOM     15  O   UNL     1       0.840   9.208  20.098  0.00  0.00    +0.000 OA
BRANCH  14  16
ATOM     16  O   UNL     1       1.819   8.546  22.032  0.00  0.00    +0.000 OA
ATOM     17  H   UNL     1       1.051   8.437  22.623  0.00  0.00    +0.000 HD
ENDBRANCH  14  16
ENDBRANCH   4  14
BRANCH   6  18
ATOM     18  C   UNL     1       4.708   5.992  17.973  0.00  0.00    +0.000 C 
BRANCH  18  19
ATOM     19  O   UNL     1       5.679   5.205  18.678  0.00  0.00    +0.000 OA
ATOM     20  H   UNL     1       6.540   5.656  18.539  0.00  0.00    +0.000 HD
ENDBRANCH  18  19
BRANCH  18  21
ATOM     21  C   UNL     1       4.784   5.533  16.489  0.00  0.00    +0.000 C 
BRANCH  21  22
ATOM     22  O   UNL     1       5.208   6.652  15.690  0.00  0.00    +0.000 OA
ATOM     23  H   UNL     1       5.197   6.408  14.748  0.00  0.00    +0.000 HD
ENDBRANCH  21  22
BRANCH  21  24
ATOM     24  C   UNL     1       5.650   4.295  16.229  0.00  0.00    +0.000 C 
BRANCH  24  25
ATOM     25  N   UNL     1       7.077   4.659  16.193  0.00  0.00    +0.000 NA
ATOM     26  N   UNL     1       7.484   5.111  15.106  0.00  0.00    +0.000 NA
ATOM     27  N   UNL     1       7.815   5.531  14.100  0.00  0.00    +0.000 NA
ENDBRANCH  24  25
ENDBRANCH  21  24
ENDBRANCH  18  21
ENDBRANCH   6  18
TORSDOF 10
ENDMDL
MODEL 4
REMARK VINA RESULT:      -7.1      1.809      2.064
REMARK  Name = 
REMARK  11 active torsions:
REMARK  status: ('A' for Active; 'I' for Inactive)
REMARK    1  A    between atoms: C_1  and  C_2
REMARK    2  A    between atoms: N_4  and  C_5
REMARK    3  A    between atoms: C_6  and  O_7
REMARK    4  A    between atoms: C_9  and  C_10
REMARK    5  A    between atoms: C_10  and  O_12
REMARK    6  A    between atoms: C_14  and  C_15
REMARK    7  A    between atoms: C_15  and  O_16
REMARK    8  A    between atoms: C_15  and  C_17
REMARK    9  A    between atoms: C_17  and  O_18
REMARK   10  A    between atoms: C_17  and  C_19
REMARK   11  A    between atoms: C_19  and  N_20
REMARK                            x       y       z     vdW  Elec       q    Type
REMARK                         _______ _______ _______ _____ _____    ______ ____
ROOT
ATOM      1  C   UNL     1       2.618   4.628  18.330  0.00  0.00    +0.000 C 
ATOM      2  C   UNL     1       2.333   4.341  19.829  0.00  0.00    +0.000 C 
ATOM      3  C   UNL     1       3.118   3.189  20.346  0.00  0.00    +0.000 C 
ATOM      4  C   UNL     1       4.121   2.636  19.655  0.00  0.00    +0.000 C 
ATOM      5  O   UNL     1       4.530   3.080  18.406  0.00  0.00    +0.000 OA
ATOM      6  C   UNL     1       4.141   4.442  18.074  0.00  0.00    +0.000 C 
ENDROOT
BRANCH   1  10
ATOM      7  C   UNL     1       1.774   8.308  17.862  0.00  0.00    +0.000 C 
ATOM      8  C   UNL     1       2.534   7.119  18.379  0.00  0.00    +0.000 C 
ATOM      9  O   UNL     1       3.527   7.219  19.091  0.00  0.00    +0.000 OA
ATOM     10  N   UNL     1       2.041   5.913  17.941  0.00  0.00    +0.000 N 
ATOM     11  H   UNL     1       1.287   5.916  17.264  0.00  0.00    +0.000 HD
ENDBRANCH   1  10
BRANCH   2  12
ATOM     12  O   UNL     1       0.947   4.065  20.028  0.00  0.00    +0.000 OA
ATOM     13  H   UNL     1       0.428   4.689  19.493  0.00  0.00    +0.000 HD
ENDBRANCH   2  12
BRANCH   4  14
ATOM     14  C   UNL     1       4.836   1.467  20.260  0.00  0.00    +0.000 C 
ATOM     15  O   UNL     1       5.306   1.436  21.385  0.00  0.00    +0.000 OA
BRANCH  14  16
ATOM     16  O   UNL     1       4.899   0.435  19.393  0.00  0.00    +0.000 OA
ATOM     17  H   UNL     1       5.728  -0.068  19.501  0.00  0.00    +0.000 HD
ENDBRANCH  14  16
ENDBRANCH   4  14
BRANCH   6  18
ATOM     18  C   UNL     1       4.581   4.693  16.600  0.00  0.00    +0.000 C 
BRANCH  18  19
ATOM     19  O   UNL     1       4.814   6.086  16.346  0.00  0.00    +0.000 OA
ATOM     20  H   UNL     1       4.791   6.524  17.225  0.00  0.00    +0.000 HD
ENDBRANCH  18  19
BRANCH  18  21
ATOM     21  C   UNL     1       5.886   3.960  16.178  0.00  0.00    +0.000 C 
BRANCH  21  22
ATOM     22  O   UNL     1       5.904   3.856  14.743  0.00  0.00    +0.000 OA
ATOM     23  H   UNL     1       6.820   3.758  14.430  0.00  0.00    +0.000 HD
ENDBRANCH  21  22
BRANCH  21  24
ATOM     24  C   UNL     1       7.185   4.572  16.715  0.00  0.00    +0.000 C 
BRANCH  24  25
ATOM     25  N   UNL     1       7.562   5.760  15.929  0.00  0.00    +0.000 NA
ATOM     26  N   UNL     1       7.524   6.840  16.548  0.00  0.00    +0.000 NA
ATOM     27  N   UNL     1       7.490   7.806  17.151  0.00  0.00    +0.000 NA
ENDBRANCH  24  25
ENDBRANCH  21  24
ENDBRANCH  18  21
ENDBRANCH   6  18
TORSDOF 10
ENDMDL
MODEL 5
REMARK VINA RESULT:      -7.1      2.070      4.666
REMARK  Name = 
REMARK  11 active torsions:
REMARK  status: ('A' for Active; 'I' for Inactive)
REMARK    1  A    between atoms: C_1  and  C_2
REMARK    2  A    between atoms: N_4  and  C_5
REMARK    3  A    between atoms: C_6  and  O_7
REMARK    4  A    between atoms: C_9  and  C_10
REMARK    5  A    between atoms: C_10  and  O_12
REMARK    6  A    between atoms: C_14  and  C_15
REMARK    7  A    between atoms: C_15  and  O_16
REMARK    8  A    between atoms: C_15  and  C_17
REMARK    9  A    between atoms: C_17  and  O_18
REMARK   10  A    between atoms: C_17  and  C_19
REMARK   11  A    between atoms: C_19  and  N_20
REMARK                            x       y       z     vdW  Elec       q    Type
REMARK                         _______ _______ _______ _____ _____    ______ ____
ROOT
ATOM      1  C   UNL     1       3.166   4.340  19.431  0.00  0.00    +0.000 C 
ATOM      2  C   UNL     1       1.875   4.423  20.289  0.00  0.00    +0.000 C 
ATOM      3  C   UNL     1       1.511   5.822  20.635  0.00  0.00    +0.000 C 
ATOM      4  C   UNL     1       2.099   6.879  20.063  0.00  0.00    +0.000 C 
ATOM      5  O   UNL     1       3.089   6.777  19.097  0.00  0.00    +0.000 OA
ATOM      6  C   UNL     1       3.145   5.502  18.398  0.00  0.00    +0.000 C 
ENDROOT
BRANCH   1  10
ATOM      7  C   UNL     1       4.172   0.735  18.748  0.00  0.00    +0.000 C 
ATOM      8  C   UNL     1       4.143   2.047  19.480  0.00  0.00    +0.000 C 
ATOM      9  O   UNL     1       4.754   2.242  20.526  0.00  0.00    +0.000 OA
ATOM     10  N   UNL     1       3.333   2.991  18.895  0.00  0.00    +0.000 N 
ATOM     11  H   UNL     1       2.773   2.718  18.097  0.00  0.00    +0.000 HD
ENDBRANCH   1  10
BRANCH   2  12
ATOM     12  O   UNL     1       2.037   3.688  21.502  0.00  0.00    +0.000 OA
ATOM     13  H   UNL     1       1.971   2.740  21.300  0.00  0.00    +0.000 HD
ENDBRANCH   2  12
BRANCH   4  14
ATOM     14  C   UNL     1       1.670   8.247  20.496  0.00  0.00    +0.000 C 
ATOM     15  O   UNL     1       1.289   9.133  19.751  0.00  0.00    +0.000 OA
BRANCH  14  16
ATOM     16  O   UNL     1       1.760   8.381  21.836  0.00  0.00    +0.000 OA
ATOM     17  H   UNL     1       1.680   7.518  22.284  0.00  0.00    +0.000 HD
ENDBRANCH  14  16
ENDBRANCH   4  14
BRANCH   6  18
ATOM     18  C   UNL     1       4.390   5.554  17.461  0.00  0.00    +0.000 C 
BRANCH  18  19
ATOM     19  O   UNL     1       4.379   6.724  16.630  0.00  0.00    +0.000 OA
ATOM     20  H   UNL     1       4.007   6.435  15.768  0.00  0.00    +0.000 HD
ENDBRANCH  18  19
BRANCH  18  21
ATOM     21  C   UNL     1       5.759   5.568  18.199  0.00  0.00    +0.000 C 
BRANCH  21  22
ATOM     22  O   UNL     1       6.330   4.250  18.119  0.00  0.00    +0.000 OA
ATOM     23  H   UNL     1       6.590   3.948  19.007  0.00  0.00    +0.000 HD
ENDBRANCH  21  22
BRANCH  21  24
ATOM     24  C   UNL     1       6.748   6.640  17.726  0.00  0.00    +0.000 C 
BRANCH  24  25
ATOM     25  N   UNL     1       7.667   6.088  16.717  0.00  0.00    +0.000 NA
ATOM     26  N   UNL     1       7.140   5.773  15.633  0.00  0.00    +0.000 NA
ATOM     27  N   UNL     1       6.623   5.508  14.652  0.00  0.00    +0.000 NA
ENDBRANCH  24  25
ENDBRANCH  21  24
ENDBRANCH  18  21
ENDBRANCH   6  18
TORSDOF 10
ENDMDL
MODEL 6
REMARK VINA RESULT:      -7.1      2.036      4.371
REMARK  Name = 
REMARK  11 active torsions:
REMARK  status: ('A' for Active; 'I' for Inactive)
REMARK    1  A    between atoms: C_1  and  C_2
REMARK    2  A    between atoms: N_4  and  C_5
REMARK    3  A    between atoms: C_6  and  O_7
REMARK    4  A    between atoms: C_9  and  C_10
REMARK    5  A    between atoms: C_10  and  O_12
REMARK    6  A    between atoms: C_14  and  C_15
REMARK    7  A    between atoms: C_15  and  O_16
REMARK    8  A    between atoms: C_15  and  C_17
REMARK    9  A    between atoms: C_17  and  O_18
REMARK   10  A    between atoms: C_17  and  C_19
REMARK   11  A    between atoms: C_19  and  N_20
REMARK                            x       y       z     vdW  Elec       q    Type
REMARK                         _______ _______ _______ _____ _____    ______ ____
ROOT
ATOM      1  C   UNL     1       3.526   4.595  19.816  0.00  0.00    +0.000 C 
ATOM      2  C   UNL     1       2.099   4.550  20.426  0.00  0.00    +0.000 C 
ATOM      3  C   UNL     1       1.530   5.907  20.641  0.00  0.00    +0.000 C 
ATOM      4  C   UNL     1       2.096   7.010  20.137  0.00  0.00    +0.000 C 
ATOM      5  O   UNL     1       3.250   6.999  19.369  0.00  0.00    +0.000 OA
ATOM      6  C   UNL     1       3.569   5.723  18.746  0.00  0.00    +0.000 C 
ENDROOT
BRANCH   1  10
ATOM      7  C   UNL     1       3.877   1.219  18.096  0.00  0.00    +0.000 C 
ATOM      8  C   UNL     1       3.297   2.579  18.367  0.00  0.00    +0.000 C 
ATOM      9  O   UNL     1       2.370   3.051  17.718  0.00  0.00    +0.000 OA
ATOM     10  N   UNL     1       3.932   3.261  19.378  0.00  0.00    +0.000 N 
ATOM     11  H   UNL     1       4.761   2.851  19.790  0.00  0.00    +0.000 HD
ENDBRANCH   1  10
BRANCH   2  12
ATOM     12  O   UNL     1       2.115   3.867  21.679  0.00  0.00    +0.000 OA
ATOM     13  H   UNL     1       2.891   3.283  21.702  0.00  0.00    +0.000 HD
ENDBRANCH   2  12
BRANCH   4  14
ATOM     14  C   UNL     1       1.450   8.330  20.428  0.00  0.00    +0.000 C 
ATOM     15  O   UNL     1       1.075   8.702  21.527  0.00  0.00    +0.000 OA
BRANCH  14  16
ATOM     16  O   UNL     1       1.333   9.070  19.306  0.00  0.00    +0.000 OA
ATOM     17  H   UNL     1       1.926   8.743  18.603  0.00  0.00    +0.000 HD
ENDBRANCH  14  16
ENDBRANCH   4  14
BRANCH   6  18
ATOM     18  C   UNL     1       4.951   5.894  18.045  0.00  0.00    +0.000 C 
BRANCH  18  19
ATOM     19  O   UNL     1       5.985   5.174  18.732  0.00  0.00    +0.000 OA
ATOM     20  H   UNL     1       6.065   5.600  19.614  0.00  0.00    +0.000 HD
ENDBRANCH  18  19
BRANCH  18  21
ATOM     21  C   UNL     1       4.997   5.401  16.571  0.00  0.00    +0.000 C 
BRANCH  21  22
ATOM     22  O   UNL     1       5.259   6.534  15.724  0.00  0.00    +0.000 OA
ATOM     23  H   UNL     1       5.323   7.342  16.262  0.00  0.00    +0.000 HD
ENDBRANCH  21  22
BRANCH  21  24
ATOM     24  C   UNL     1       5.972   4.252  16.293  0.00  0.00    +0.000 C 
BRANCH  24  25
ATOM     25  N   UNL     1       7.337   4.768  16.091  0.00  0.00    +0.000 NA
ATOM     26  N   UNL     1       7.593   5.156  14.936  0.00  0.00    +0.000 NA
ATOM     27  N   UNL     1       7.785   5.513  13.871  0.00  0.00    +0.000 NA
ENDBRANCH  24  25
ENDBRANCH  21  24
ENDBRANCH  18  21
ENDBRANCH   6  18
TORSDOF 10
ENDMDL
MODEL 7
REMARK VINA RESULT:      -7.0      2.890      4.298
REMARK  Name = 
REMARK  11 active torsions:
REMARK  status: ('A' for Active; 'I' for Inactive)
REMARK    1  A    between atoms: C_1  and  C_2
REMARK    2  A    between atoms: N_4  and  C_5
REMARK    3  A    between atoms: C_6  and  O_7
REMARK    4  A    between atoms: C_9  and  C_10
REMARK    5  A    between atoms: C_10  and  O_12
REMARK    6  A    between atoms: C_14  and  C_15
REMARK    7  A    between atoms: C_15  and  O_16
REMARK    8  A    between atoms: C_15  and  C_17
REMARK    9  A    between atoms: C_17  and  O_18
REMARK   10  A    between atoms: C_17  and  C_19
REMARK   11  A    between atoms: C_19  and  N_20
REMARK                            x       y       z     vdW  Elec       q    Type
REMARK                         _______ _______ _______ _____ _____    ______ ____
ROOT
ATOM      1  C   UNL     1       4.724   3.975  17.429  0.00  0.00    +0.000 C 
ATOM      2  C   UNL     1       3.203   4.014  17.123  0.00  0.00    +0.000 C 
ATOM      3  C   UNL     1       2.419   4.648  18.216  0.00  0.00    +0.000 C 
ATOM      4  C   UNL     1       2.999   5.315  19.220  0.00  0.00    +0.000 C 
ATOM      5  O   UNL     1       4.370   5.487  19.338  0.00  0.00    +0.000 OA
ATOM      6  C   UNL     1       5.125   5.317  18.106  0.00  0.00    +0.000 C 
ENDROOT
BRANCH   1  10
ATOM      7  C   UNL     1       6.392   3.812  14.013  0.00  0.00    +0.000 C 
ATOM      8  C   UNL     1       5.588   4.413  15.132  0.00  0.00    +0.000 C 
ATOM      9  O   UNL     1       5.115   5.543  15.081  0.00  0.00    +0.000 OA
ATOM     10  N   UNL     1       5.473   3.597  16.232  0.00  0.00    +0.000 N 
ATOM     11  H   UNL     1       5.987   2.724  16.242  0.00  0.00    +0.000 HD
ENDBRANCH   1  10
BRANCH   2  12
ATOM     12  O   UNL     1       2.703   2.693  16.920  0.00  0.00    +0.000 OA
ATOM     13  H   UNL     1       3.199   2.284  16.191  0.00  0.00    +0.000 HD
ENDBRANCH   2  12
BRANCH   4  14
ATOM     14  C   UNL     1       2.118   5.901  20.281  0.00  0.00    +0.000 C 
ATOM     15  O   UNL     1       1.302   5.278  20.940  0.00  0.00    +0.000 OA
BRANCH  14  16
ATOM     16  O   UNL     1       2.341   7.224  20.421  0.00  0.00    +0.000 OA
ATOM     17  H   UNL     1       3.193   7.394  20.865  0.00  0.00    +0.000 HD
ENDBRANCH  14  16
ENDBRANCH   4  14
BRANCH   6  18
ATOM     18  C   UNL     1       6.634   5.425  18.480  0.00  0.00    +0.000 C 
BRANCH  18  19
ATOM     19  O   UNL     1       7.325   4.188  18.252  0.00  0.00    +0.000 OA
ATOM     20  H   UNL     1       7.274   3.693  19.099  0.00  0.00    +0.000 HD
ENDBRANCH  18  19
BRANCH  18  21
ATOM     21  C   UNL     1       7.425   6.506  17.691  0.00  0.00    +0.000 C 
BRANCH  21  22
ATOM     22  O   UNL     1       6.515   7.166  16.792  0.00  0.00    +0.000 OA
ATOM     23  H   UNL     1       6.819   8.075  16.622  0.00  0.00    +0.000 HD
ENDBRANCH  21  22
BRANCH  21  24
ATOM     24  C   UNL     1       8.196   7.514  18.551  0.00  0.00    +0.000 C 
BRANCH  24  25
ATOM     25  N   UNL     1       8.140   8.858  17.951  0.00  0.00    +0.000 NA
ATOM     26  N   UNL     1       8.790   9.735  18.551  0.00  0.00    +0.000 NA
ATOM     27  N   UNL     1       9.407  10.507  19.119  0.00  0.00    +0.000 NA
ENDBRANCH  24  25
ENDBRANCH  21  24
ENDBRANCH  18  21
ENDBRANCH   6  18
TORSDOF 10
ENDMDL
MODEL 8
REMARK VINA RESULT:      -7.0      3.356      6.188
REMARK  Name = 
REMARK  11 active torsions:
REMARK  status: ('A' for Active; 'I' for Inactive)
REMARK    1  A    between atoms: C_1  and  C_2
REMARK    2  A    between atoms: N_4  and  C_5
REMARK    3  A    between atoms: C_6  and  O_7
REMARK    4  A    between atoms: C_9  and  C_10
REMARK    5  A    between atoms: C_10  and  O_12
REMARK    6  A    between atoms: C_14  and  C_15
REMARK    7  A    between atoms: C_15  and  O_16
REMARK    8  A    between atoms: C_15  and  C_17
REMARK    9  A    between atoms: C_17  and  O_18
REMARK   10  A    between atoms: C_17  and  C_19
REMARK   11  A    between atoms: C_19  and  N_20
REMARK                            x       y       z     vdW  Elec       q    Type
REMARK                         _______ _______ _______ _____ _____    ______ ____
ROOT
ATOM      1  C   UNL     1       3.696   4.640  19.278  0.00  0.00    +0.000 C 
ATOM      2  C   UNL     1       5.149   4.110  19.407  0.00  0.00    +0.000 C 
ATOM      3  C   UNL     1       6.084   4.778  18.463  0.00  0.00    +0.000 C 
ATOM      4  C   UNL     1       5.743   5.869  17.768  0.00  0.00    +0.000 C 
ATOM      5  O   UNL     1       4.503   6.483  17.861  0.00  0.00    +0.000 OA
ATOM      6  C   UNL     1       3.750   6.180  19.069  0.00  0.00    +0.000 C 
ENDROOT
BRANCH   1  10
ATOM      7  C   UNL     1       1.370   2.710  21.589  0.00  0.00    +0.000 C 
ATOM      8  C   UNL     1       2.143   3.000  20.333  0.00  0.00    +0.000 C 
ATOM      9  O   UNL     1       2.147   2.249  19.363  0.00  0.00    +0.000 OA
ATOM     10  N   UNL     1       2.880   4.159  20.391  0.00  0.00    +0.000 N 
ATOM     11  H   UNL     1       2.914   4.666  21.267  0.00  0.00    +0.000 HD
ENDBRANCH   1  10
BRANCH   2  12
ATOM     12  O   UNL     1       5.190   2.705  19.160  0.00  0.00    +0.000 OA
ATOM     13  H   UNL     1       4.643   2.512  18.381  0.00  0.00    +0.000 HD
ENDBRANCH   2  12
BRANCH   4  14
ATOM     14  C   UNL     1       6.754   6.454  16.830  0.00  0.00    +0.000 C 
ATOM     15  O   UNL     1       7.304   5.850  15.924  0.00  0.00    +0.000 OA
BRANCH  14  16
ATOM     16  O   UNL     1       6.986   7.752  17.115  0.00  0.00    +0.000 OA
ATOM     17  H   UNL     1       7.431   7.851  17.977  0.00  0.00    +0.000 HD
ENDBRANCH  14  16
ENDBRANCH   4  14
BRANCH   6  18
ATOM     18  C   UNL     1       2.355   6.859  18.916  0.00  0.00    +0.000 C 
BRANCH  18  19
ATOM     19  O   UNL     1       1.608   6.816  20.140  0.00  0.00    +0.000 OA
ATOM     20  H   UNL     1       0.669   6.945  19.884  0.00  0.00    +0.000 HD
ENDBRANCH  18  19
BRANCH  18  21
ATOM     21  C   UNL     1       2.403   8.356  18.498  0.00  0.00    +0.000 C 
BRANCH  21  22
ATOM     22  O   UNL     1       2.787   8.428  17.114  0.00  0.00    +0.000 OA
ATOM     23  H   UNL     1       2.799   9.357  16.822  0.00  0.00    +0.000 HD
ENDBRANCH  21  22
BRANCH  21  24
ATOM     24  C   UNL     1       1.122   9.154  18.770  0.00  0.00    +0.000 C 
BRANCH  24  25
ATOM     25  N   UNL     1       1.150   9.734  20.124  0.00  0.00    +0.000 NA
ATOM     26  N   UNL     1       0.377   9.203  20.944  0.00  0.00    +0.000 NA
ATOM     27  N   UNL     1      -0.333   8.685  21.669  0.00  0.00    +0.000 NA
ENDBRANCH  24  25
ENDBRANCH  21  24
ENDBRANCH  18  21
ENDBRANCH   6  18
TORSDOF 10
ENDMDL
MODEL 9
REMARK VINA RESULT:      -7.0      2.425      3.582
REMARK  Name = 
REMARK  11 active torsions:
REMARK  status: ('A' for Active; 'I' for Inactive)
REMARK    1  A    between atoms: C_1  and  C_2
REMARK    2  A    between atoms: N_4  and  C_5
REMARK    3  A    between atoms: C_6  and  O_7
REMARK    4  A    between atoms: C_9  and  C_10
REMARK    5  A    between atoms: C_10  and  O_12
REMARK    6  A    between atoms: C_14  and  C_15
REMARK    7  A    between atoms: C_15  and  O_16
REMARK    8  A    between atoms: C_15  and  C_17
REMARK    9  A    between atoms: C_17  and  O_18
REMARK   10  A    between atoms: C_17  and  C_19
REMARK   11  A    between atoms: C_19  and  N_20
REMARK                            x       y       z     vdW  Elec       q    Type
REMARK                         _______ _______ _______ _____ _____    ______ ____
ROOT
ATOM      1  C   UNL     1       5.031   5.843  17.660  0.00  0.00    +0.000 C 
ATOM      2  C   UNL     1       5.093   5.126  19.036  0.00  0.00    +0.000 C 
ATOM      3  C   UNL     1       4.427   3.797  19.015  0.00  0.00    +0.000 C 
ATOM      4  C   UNL     1       4.043   3.205  17.878  0.00  0.00    +0.000 C 
ATOM      5  O   UNL     1       4.230   3.760  16.622  0.00  0.00    +0.000 OA
ATOM      6  C   UNL     1       5.261   4.785  16.544  0.00  0.00    +0.000 C 
ENDROOT
BRANCH   1  10
ATOM      7  C   UNL     1       7.992   8.230  17.728  0.00  0.00    +0.000 C 
ATOM      8  C   UNL     1       7.285   6.904  17.740  0.00  0.00    +0.000 C 
ATOM      9  O   UNL     1       7.878   5.831  17.779  0.00  0.00    +0.000 OA
ATOM     10  N   UNL     1       5.917   7.005  17.654  0.00  0.00    +0.000 N 
ATOM     11  H   UNL     1       5.508   7.920  17.510  0.00  0.00    +0.000 HD
ENDBRANCH   1  10
BRANCH   2  12
ATOM     12  O   UNL     1       4.469   5.925  20.041  0.00  0.00    +0.000 OA
ATOM     13  H   UNL     1       3.951   6.621  19.605  0.00  0.00    +0.000 HD
ENDBRANCH   2  12
BRANCH   4  14
ATOM     14  C   UNL     1       3.364   1.872  17.970  0.00  0.00    +0.000 C 
ATOM     15  O   UNL     1       2.170   1.679  17.811  0.00  0.00    +0.000 OA
BRANCH  14  16
ATOM     16  O   UNL     1       4.250   0.896  18.255  0.00  0.00    +0.000 OA
ATOM     17  H   UNL     1       5.022   1.248  18.736  0.00  0.00    +0.000 HD
ENDBRANCH  14  16
ENDBRANCH   4  14
BRANCH   6  18
ATOM     18  C   UNL     1       5.220   5.359  15.095  0.00  0.00    +0.000 C 
BRANCH  18  19
ATOM     19  O   UNL     1       5.211   6.793  15.094  0.00  0.00    +0.000 OA
ATOM     20  H   UNL     1       4.360   7.054  14.679  0.00  0.00    +0.000 HD
ENDBRANCH  18  19
BRANCH  18  21
ATOM     21  C   UNL     1       6.418   4.940  14.196  0.00  0.00    +0.000 C 
BRANCH  21  22
ATOM     22  O   UNL     1       7.637   5.265  14.887  0.00  0.00    +0.000 OA
ATOM     23  H   UNL     1       8.149   5.911  14.369  0.00  0.00    +0.000 HD
ENDBRANCH  21  22
BRANCH  21  24
ATOM     24  C   UNL     1       6.408   3.481  13.727  0.00  0.00    +0.000 C 
BRANCH  24  25
ATOM     25  N   UNL     1       6.330   3.409  12.258  0.00  0.00    +0.000 NA
ATOM     26  N   UNL     1       5.182   3.280  11.792  0.00  0.00    +0.000 NA
ATOM     27  N   UNL     1       4.116   3.175  11.404  0.00  0.00    +0.000 NA
ENDBRANCH  24  25
ENDBRANCH  21  24
ENDBRANCH  18  21
ENDBRANCH   6  18
TORSDOF 10
ENDMDL
