MODEL 1
REMARK VINA RESULT:      -9.4      0.000      0.000
REMARK  Name = 
REMARK  7 active torsions:
REMARK  status: ('A' for Active; 'I' for Inactive)
REMARK    1  A    between atoms: C_2  and  C_19
REMARK    2  A    between atoms: N_3  and  C_4
REMARK    3  A    between atoms: C_4  and  C_5
REMARK    4  A    between atoms: C_7  and  C_8
REMARK    5  A    between atoms: C_13  and  C_14
REMARK    6  A    between atoms: C_21  and  C_22
REMARK    7  A    between atoms: C_27  and  C_28
REMARK                            x       y       z     vdW  Elec       q    Type
REMARK                         _______ _______ _______ _____ _____    ______ ____
ROOT
ATOM      1  O   UNL     1       0.145   9.112  20.877  0.00  0.00    +0.000 OA
ATOM      2  C   UNL     1       0.610   9.268  19.750  0.00  0.00    +0.000 C 
ATOM      3  N   UNL     1       1.583   8.447  19.222  0.00  0.00    +0.000 N 
ATOM      4  H   UNL     1       1.976   8.706  18.318  0.00  0.00    +0.000 HD
ENDROOT
BRANCH   2   5
ATOM      5  C   UNL     1       0.089  10.332  18.776  0.00  0.00    +0.000 C 
ATOM      6  C   UNL     1      -1.339  10.087  18.350  0.00  0.00    +0.000 C 
ATOM      7  C   UNL     1      -1.949  11.379  18.764  0.00  0.00    +0.000 C 
ATOM      8  N   UNL     1      -1.163  12.189  19.391  0.00  0.00    +0.000 NA
ATOM      9  O   UNL     1       0.125  11.613  19.411  0.00  0.00    +0.000 OA
BRANCH   7  10
ATOM     10  C   UNL     1      -3.375  11.686  18.496  0.00  0.00    +0.000 A 
ATOM     11  C   UNL     1      -4.097  12.311  19.530  0.00  0.00    +0.000 A 
ATOM     12  C   UNL     1      -5.431  12.685  19.354  0.00  0.00    +0.000 A 
ATOM     13  C   UNL     1      -6.058  12.450  18.140  0.00  0.00    +0.000 A 
ATOM     14  C   UNL     1      -5.355  11.825  17.112  0.00  0.00    +0.000 A 
ATOM     15  C   UNL     1      -4.010  11.412  17.271  0.00  0.00    +0.000 A 
BRANCH  15  16
ATOM     16  C   UNL     1      -3.412  10.666  16.100  0.00  0.00    +0.000 C 
ATOM     17  F   UNL     1      -3.024   9.384  16.297  0.00  0.00    +0.000 F 
ATOM     18  F   UNL     1      -4.319  10.582  15.076  0.00  0.00    +0.000 F 
ATOM     19  F   UNL     1      -2.342  11.322  15.564  0.00  0.00    +0.000 F 
ENDBRANCH  15  16
ENDBRANCH   7  10
ENDBRANCH   2   5
BRANCH   3  20
ATOM     20  C   UNL     1       2.214   7.401  19.980  0.00  0.00    +0.000 C 
BRANCH  20  21
ATOM     21  C   UNL     1       2.720   6.311  19.067  0.00  0.00    +0.000 A 
ATOM     22  C   UNL     1       3.682   6.587  18.084  0.00  0.00    +0.000 A 
ATOM     23  C   UNL     1       4.119   5.591  17.198  0.00  0.00    +0.000 A 
ATOM     24  C   UNL     1       3.591   4.294  17.319  0.00  0.00    +0.000 A 
ATOM     25  C   UNL     1       2.618   3.995  18.285  0.00  0.00    +0.000 A 
ATOM     26  C   UNL     1       2.189   5.014  19.151  0.00  0.00    +0.000 A 
BRANCH  23  27
ATOM     27  C   UNL     1       5.111   5.901  16.102  0.00  0.00    +0.000 C 
ATOM     28  F   UNL     1       4.816   7.033  15.405  0.00  0.00    +0.000 F 
ATOM     29  F   UNL     1       6.377   6.069  16.574  0.00  0.00    +0.000 F 
ATOM     30  F   UNL     1       5.184   4.903  15.178  0.00  0.00    +0.000 F 
ENDBRANCH  23  27
BRANCH  25  31
ATOM     31  C   UNL     1       2.011   2.614  18.381  0.00  0.00    +0.000 C 
ATOM     32  F   UNL     1       2.364   1.797  17.349  0.00  0.00    +0.000 F 
ATOM     33  F   UNL     1       2.375   1.959  19.516  0.00  0.00    +0.000 F 
ATOM     34  F   UNL     1       0.650   2.644  18.381  0.00  0.00    +0.000 F 
ENDBRANCH  25  31
ENDBRANCH  20  21
ENDBRANCH   3  20
TORSDOF 7
ENDMDL
MODEL 2
REMARK VINA RESULT:      -9.3      1.136      3.297
REMARK  Name = 
REMARK  7 active torsions:
REMARK  status: ('A' for Active; 'I' for Inactive)
REMARK    1  A    between atoms: C_2  and  C_19
REMARK    2  A    between atoms: N_3  and  C_4
REMARK    3  A    between atoms: C_4  and  C_5
REMARK    4  A    between atoms: C_7  and  C_8
REMARK    5  A    between atoms: C_13  and  C_14
REMARK    6  A    between atoms: C_21  and  C_22
REMARK    7  A    between atoms: C_27  and  C_28
REMARK                            x       y       z     vdW  Elec       q    Type
REMARK                         _______ _______ _______ _____ _____    ______ ____
ROOT
ATOM      1  O   UNL     1       1.317  10.940  21.145  0.00  0.00    +0.000 OA
ATOM      2  C   UNL     1       0.849  10.401  20.145  0.00  0.00    +0.000 C 
ATOM      3  N   UNL     1       0.847   9.035  19.962  0.00  0.00    +0.000 N 
ATOM      4  H   UNL     1       0.523   8.682  19.063  0.00  0.00    +0.000 HD
ENDROOT
BRANCH   2   5
ATOM      5  C   UNL     1       0.133  11.184  19.038  0.00  0.00    +0.000 C 
ATOM      6  C   UNL     1      -1.230  10.622  18.711  0.00  0.00    +0.000 C 
ATOM      7  C   UNL     1      -2.062  11.834  18.941  0.00  0.00    +0.000 C 
ATOM      8  N   UNL     1      -1.432  12.861  19.402  0.00  0.00    +0.000 NA
ATOM      9  O   UNL     1      -0.060  12.537  19.462  0.00  0.00    +0.000 OA
BRANCH   7  10
ATOM     10  C   UNL     1      -3.523  11.833  18.683  0.00  0.00    +0.000 A 
ATOM     11  C   UNL     1      -4.350  12.344  19.701  0.00  0.00    +0.000 A 
ATOM     12  C   UNL     1      -5.732  12.431  19.532  0.00  0.00    +0.000 A 
ATOM     13  C   UNL     1      -6.308  12.020  18.339  0.00  0.00    +0.000 A 
ATOM     14  C   UNL     1      -5.500  11.506  17.327  0.00  0.00    +0.000 A 
ATOM     15  C   UNL     1      -4.098  11.382  17.482  0.00  0.00    +0.000 A 
BRANCH  15  16
ATOM     16  C   UNL     1      -3.370  10.720  16.333  0.00  0.00    +0.000 C 
ATOM     17  F   UNL     1      -2.834   9.495  16.544  0.00  0.00    +0.000 F 
ATOM     18  F   UNL     1      -4.221  10.530  15.277  0.00  0.00    +0.000 F 
ATOM     19  F   UNL     1      -2.370  11.505  15.838  0.00  0.00    +0.000 F 
ENDBRANCH  15  16
ENDBRANCH   7  10
ENDBRANCH   2   5
BRANCH   3  20
ATOM     20  C   UNL     1       1.483   8.127  20.878  0.00  0.00    +0.000 C 
BRANCH  20  21
ATOM     21  C   UNL     1       1.921   6.870  20.165  0.00  0.00    +0.000 A 
ATOM     22  C   UNL     1       1.420   5.618  20.548  0.00  0.00    +0.000 A 
ATOM     23  C   UNL     1       1.861   4.440  19.924  0.00  0.00    +0.000 A 
ATOM     24  C   UNL     1       2.805   4.532  18.888  0.00  0.00    +0.000 A 
ATOM     25  C   UNL     1       3.332   5.773  18.496  0.00  0.00    +0.000 A 
ATOM     26  C   UNL     1       2.883   6.934  19.145  0.00  0.00    +0.000 A 
BRANCH  23  27
ATOM     27  C   UNL     1       1.365   3.086  20.374  0.00  0.00    +0.000 C 
ATOM     28  F   UNL     1       0.250   2.666  19.713  0.00  0.00    +0.000 F 
ATOM     29  F   UNL     1       2.295   2.106  20.202  0.00  0.00    +0.000 F 
ATOM     30  F   UNL     1       1.043   3.071  21.697  0.00  0.00    +0.000 F 
ENDBRANCH  23  27
BRANCH  25  31
ATOM     31  C   UNL     1       4.388   5.866  17.418  0.00  0.00    +0.000 C 
ATOM     32  F   UNL     1       4.292   6.998  16.665  0.00  0.00    +0.000 F 
ATOM     33  F   UNL     1       5.652   5.860  17.920  0.00  0.00    +0.000 F 
ATOM     34  F   UNL     1       4.325   4.829  16.538  0.00  0.00    +0.000 F 
ENDBRANCH  25  31
ENDBRANCH  20  21
ENDBRANCH   3  20
TORSDOF 7
ENDMDL
MODEL 3
REMARK VINA RESULT:      -9.3      0.632      1.150
REMARK  Name = 
REMARK  7 active torsions:
REMARK  status: ('A' for Active; 'I' for Inactive)
REMARK    1  A    between atoms: C_2  and  C_19
REMARK    2  A    between atoms: N_3  and  C_4
REMARK    3  A    between atoms: C_4  and  C_5
REMARK    4  A    between atoms: C_7  and  C_8
REMARK    5  A    between atoms: C_13  and  C_14
REMARK    6  A    between atoms: C_21  and  C_22
REMARK    7  A    between atoms: C_27  and  C_28
REMARK                            x       y       z     vdW  Elec       q    Type
REMARK                         _______ _______ _______ _____ _____    ______ ____
ROOT
ATOM      1  O   UNL     1       0.890   9.352  20.592  0.00  0.00    +0.000 OA
ATOM      2  C   UNL     1       1.077   9.244  19.383  0.00  0.00    +0.000 C 
ATOM      3  N   UNL     1       1.862   8.254  18.832  0.00  0.00    +0.000 N 
ATOM      4  H   UNL     1       2.037   8.296  17.829  0.00  0.00    +0.000 HD
ENDROOT
BRANCH   2   5
ATOM      5  C   UNL     1       0.381  10.140  18.351  0.00  0.00    +0.000 C 
ATOM      6  C   UNL     1      -1.113   9.925  18.303  0.00  0.00    +0.000 C 
ATOM      7  C   UNL     1      -1.575  11.314  18.571  0.00  0.00    +0.000 C 
ATOM      8  N   UNL     1      -0.643  12.168  18.836  0.00  0.00    +0.000 NA
ATOM      9  O   UNL     1       0.598  11.513  18.693  0.00  0.00    +0.000 OA
BRANCH   7  10
ATOM     10  C   UNL     1      -3.015  11.669  18.561  0.00  0.00    +0.000 A 
ATOM     11  C   UNL     1      -3.531  12.264  19.728  0.00  0.00    +0.000 A 
ATOM     12  C   UNL     1      -4.862  12.678  19.796  0.00  0.00    +0.000 A 
ATOM     13  C   UNL     1      -5.693  12.517  18.698  0.00  0.00    +0.000 A 
ATOM     14  C   UNL     1      -5.193  11.923  17.540  0.00  0.00    +0.000 A 
ATOM     15  C   UNL     1      -3.855  11.470  17.451  0.00  0.00    +0.000 A 
BRANCH  15  16
ATOM     16  C   UNL     1      -3.488  10.764  16.165  0.00  0.00    +0.000 C 
ATOM     17  F   UNL     1      -2.390  11.191  15.499  0.00  0.00    +0.000 F 
ATOM     18  F   UNL     1      -3.234   9.439  16.406  0.00  0.00    +0.000 F 
ATOM     19  F   UNL     1      -4.515  10.764  15.268  0.00  0.00    +0.000 F 
ENDBRANCH  15  16
ENDBRANCH   7  10
ENDBRANCH   2   5
BRANCH   3  20
ATOM     20  C   UNL     1       2.614   7.324  19.631  0.00  0.00    +0.000 C 
BRANCH  20  21
ATOM     21  C   UNL     1       3.168   6.211  18.773  0.00  0.00    +0.000 A 
ATOM     22  C   UNL     1       4.011   6.492  17.689  0.00  0.00    +0.000 A 
ATOM     23  C   UNL     1       4.487   5.467  16.857  0.00  0.00    +0.000 A 
ATOM     24  C   UNL     1       4.121   4.140  17.136  0.00  0.00    +0.000 A 
ATOM     25  C   UNL     1       3.267   3.834  18.207  0.00  0.00    +0.000 A 
ATOM     26  C   UNL     1       2.795   4.879  19.016  0.00  0.00    +0.000 A 
BRANCH  23  27
ATOM     27  C   UNL     1       5.349   5.775  15.655  0.00  0.00    +0.000 C 
ATOM     28  F   UNL     1       6.679   5.842  15.940  0.00  0.00    +0.000 F 
ATOM     29  F   UNL     1       5.222   4.844  14.670  0.00  0.00    +0.000 F 
ATOM     30  F   UNL     1       5.028   6.970  15.086  0.00  0.00    +0.000 F 
ENDBRANCH  23  27
BRANCH  25  31
ATOM     31  C   UNL     1       2.831   2.411  18.475  0.00  0.00    +0.000 C 
ATOM     32  F   UNL     1       3.837   1.503  18.338  0.00  0.00    +0.000 F 
ATOM     33  F   UNL     1       2.343   2.241  19.733  0.00  0.00    +0.000 F 
ATOM     34  F   UNL     1       1.845   2.003  17.630  0.00  0.00    +0.000 F 
ENDBRANCH  25  31
ENDBRANCH  20  21
ENDBRANCH   3  20
TORSDOF 7
ENDMDL
MODEL 4
REMARK VINA RESULT:      -9.3      0.160      3.108
REMARK  Name = 
REMARK  7 active torsions:
REMARK  status: ('A' for Active; 'I' for Inactive)
REMARK    1  A    between atoms: C_2  and  C_19
REMARK    2  A    between atoms: N_3  and  C_4
REMARK    3  A    between atoms: C_4  and  C_5
REMARK    4  A    between atoms: C_7  and  C_8
REMARK    5  A    between atoms: C_13  and  C_14
REMARK    6  A    between atoms: C_21  and  C_22
REMARK    7  A    between atoms: C_27  and  C_28
REMARK                            x       y       z     vdW  Elec       q    Type
REMARK                         _______ _______ _______ _____ _____    ______ ____
ROOT
ATOM      1  O   UNL     1       0.177   9.174  20.825  0.00  0.00    +0.000 OA
ATOM      2  C   UNL     1       0.619   9.340  19.691  0.00  0.00    +0.000 C 
ATOM      3  N   UNL     1       1.594   8.534  19.142  0.00  0.00    +0.000 N 
ATOM      4  H   UNL     1       1.967   8.802  18.233  0.00  0.00    +0.000 HD
ENDROOT
BRANCH   2   5
ATOM      5  C   UNL     1       0.067  10.400  18.731  0.00  0.00    +0.000 C 
ATOM      6  C   UNL     1      -1.367  10.140  18.334  0.00  0.00    +0.000 C 
ATOM      7  C   UNL     1      -1.983  11.424  18.764  0.00  0.00    +0.000 C 
ATOM      8  N   UNL     1      -1.192  12.242  19.376  0.00  0.00    +0.000 NA
ATOM      9  O   UNL     1       0.101  11.681  19.367  0.00  0.00    +0.000 OA
BRANCH   7  10
ATOM     10  C   UNL     1      -3.418  11.716  18.526  0.00  0.00    +0.000 A 
ATOM     11  C   UNL     1      -4.131  12.308  19.585  0.00  0.00    +0.000 A 
ATOM     12  C   UNL     1      -5.472  12.666  19.440  0.00  0.00    +0.000 A 
ATOM     13  C   UNL     1      -6.117  12.448  18.232  0.00  0.00    +0.000 A 
ATOM     14  C   UNL     1      -5.422  11.856  17.179  0.00  0.00    +0.000 A 
ATOM     15  C   UNL     1      -4.069  11.459  17.306  0.00  0.00    +0.000 A 
BRANCH  15  16
ATOM     16  C   UNL     1      -3.481  10.747  16.109  0.00  0.00    +0.000 C 
ATOM     17  F   UNL     1      -2.325  11.225  15.593  0.00  0.00    +0.000 F 
ATOM     18  F   UNL     1      -3.188   9.447  16.427  0.00  0.00    +0.000 F 
ATOM     19  F   UNL     1      -4.367  10.662  15.075  0.00  0.00    +0.000 F 
ENDBRANCH  15  16
ENDBRANCH   7  10
ENDBRANCH   2   5
BRANCH   3  20
ATOM     20  C   UNL     1       2.253   7.495  19.886  0.00  0.00    +0.000 C 
BRANCH  20  21
ATOM     21  C   UNL     1       2.645   6.355  18.976  0.00  0.00    +0.000 A 
ATOM     22  C   UNL     1       2.079   5.082  19.138  0.00  0.00    +0.000 A 
ATOM     23  C   UNL     1       2.476   4.005  18.330  0.00  0.00    +0.000 A 
ATOM     24  C   UNL     1       3.444   4.223  17.334  0.00  0.00    +0.000 A 
ATOM     25  C   UNL     1       4.035   5.484  17.162  0.00  0.00    +0.000 A 
ATOM     26  C   UNL     1       3.628   6.541  17.992  0.00  0.00    +0.000 A 
BRANCH  23  27
ATOM     27  C   UNL     1       1.911   2.620  18.540  0.00  0.00    +0.000 C 
ATOM     28  F   UNL     1       0.557   2.558  18.401  0.00  0.00    +0.000 F 
ATOM     29  F   UNL     1       2.421   1.709  17.668  0.00  0.00    +0.000 F 
ATOM     30  F   UNL     1       2.180   2.141  19.786  0.00  0.00    +0.000 F 
ENDBRANCH  23  27
BRANCH  25  31
ATOM     31  C   UNL     1       5.114   5.706  16.126  0.00  0.00    +0.000 C 
ATOM     32  F   UNL     1       4.946   6.852  15.408  0.00  0.00    +0.000 F 
ATOM     33  F   UNL     1       6.356   5.787  16.673  0.00  0.00    +0.000 F 
ATOM     34  F   UNL     1       5.169   4.699  15.211  0.00  0.00    +0.000 F 
ENDBRANCH  25  31
ENDBRANCH  20  21
ENDBRANCH   3  20
TORSDOF 7
ENDMDL
MODEL 5
REMARK VINA RESULT:      -9.3      0.794      3.124
REMARK  Name = 
REMARK  7 active torsions:
REMARK  status: ('A' for Active; 'I' for Inactive)
REMARK    1  A    between atoms: C_2  and  C_19
REMARK    2  A    between atoms: N_3  and  C_4
REMARK    3  A    between atoms: C_4  and  C_5
REMARK    4  A    between atoms: C_7  and  C_8
REMARK    5  A    between atoms: C_13  and  C_14
REMARK    6  A    between atoms: C_21  and  C_22
REMARK    7  A    between atoms: C_27  and  C_28
REMARK                            x       y       z     vdW  Elec       q    Type
REMARK                         _______ _______ _______ _____ _____    ______ ____
ROOT
ATOM      1  O   UNL     1       0.937   9.271  20.411  0.00  0.00    +0.000 OA
ATOM      2  C   UNL     1       1.126   9.116  19.207  0.00  0.00    +0.000 C 
ATOM      3  N   UNL     1       1.915   8.108  18.697  0.00  0.00    +0.000 N 
ATOM      4  H   UNL     1       2.091   8.111  17.693  0.00  0.00    +0.000 HD
ENDROOT
BRANCH   2   5
ATOM      5  C   UNL     1       0.429   9.969  18.140  0.00  0.00    +0.000 C 
ATOM      6  C   UNL     1      -1.063   9.745  18.095  0.00  0.00    +0.000 C 
ATOM      7  C   UNL     1      -1.533  11.141  18.309  0.00  0.00    +0.000 C 
ATOM      8  N   UNL     1      -0.606  12.009  18.545  0.00  0.00    +0.000 NA
ATOM      9  O   UNL     1       0.638  11.355  18.430  0.00  0.00    +0.000 OA
BRANCH   7  10
ATOM     10  C   UNL     1      -2.975  11.488  18.282  0.00  0.00    +0.000 A 
ATOM     11  C   UNL     1      -3.509  12.079  19.442  0.00  0.00    +0.000 A 
ATOM     12  C   UNL     1      -4.843  12.487  19.495  0.00  0.00    +0.000 A 
ATOM     13  C   UNL     1      -5.659  12.322  18.386  0.00  0.00    +0.000 A 
ATOM     14  C   UNL     1      -5.142  11.731  17.234  0.00  0.00    +0.000 A 
ATOM     15  C   UNL     1      -3.800  11.285  17.162  0.00  0.00    +0.000 A 
BRANCH  15  16
ATOM     16  C   UNL     1      -3.413  10.581  15.880  0.00  0.00    +0.000 C 
ATOM     17  F   UNL     1      -2.964   9.307  15.967  0.00  0.00    +0.000 F 
ATOM     18  F   UNL     1      -4.493  10.494  15.041  0.00  0.00    +0.000 F 
ATOM     19  F   UNL     1      -2.478  11.279  15.173  0.00  0.00    +0.000 F 
ENDBRANCH  15  16
ENDBRANCH   7  10
ENDBRANCH   2   5
BRANCH   3  20
ATOM     20  C   UNL     1       2.668   7.212  19.531  0.00  0.00    +0.000 C 
BRANCH  20  21
ATOM     21  C   UNL     1       2.992   5.937  18.790  0.00  0.00    +0.000 A 
ATOM     22  C   UNL     1       2.445   4.712  19.198  0.00  0.00    +0.000 A 
ATOM     23  C   UNL     1       2.782   3.515  18.546  0.00  0.00    +0.000 A 
ATOM     24  C   UNL     1       3.668   3.561  17.457  0.00  0.00    +0.000 A 
ATOM     25  C   UNL     1       4.239   4.773  17.037  0.00  0.00    +0.000 A 
ATOM     26  C   UNL     1       3.895   5.953  17.715  0.00  0.00    +0.000 A 
BRANCH  23  27
ATOM     27  C   UNL     1       2.239   2.188  19.021  0.00  0.00    +0.000 C 
ATOM     28  F   UNL     1       2.984   1.120  18.620  0.00  0.00    +0.000 F 
ATOM     29  F   UNL     1       2.167   2.107  20.377  0.00  0.00    +0.000 F 
ATOM     30  F   UNL     1       0.978   1.956  18.562  0.00  0.00    +0.000 F 
ENDBRANCH  23  27
BRANCH  25  31
ATOM     31  C   UNL     1       5.233   4.814  15.899  0.00  0.00    +0.000 C 
ATOM     32  F   UNL     1       4.907   3.987  14.867  0.00  0.00    +0.000 F 
ATOM     33  F   UNL     1       5.357   6.056  15.356  0.00  0.00    +0.000 F 
ATOM     34  F   UNL     1       6.484   4.447  16.289  0.00  0.00    +0.000 F 
ENDBRANCH  25  31
ENDBRANCH  20  21
ENDBRANCH   3  20
TORSDOF 7
ENDMDL
MODEL 6
REMARK VINA RESULT:      -9.2      0.842      3.223
REMARK  Name = 
REMARK  7 active torsions:
REMARK  status: ('A' for Active; 'I' for Inactive)
REMARK    1  A    between atoms: C_2  and  C_19
REMARK    2  A    between atoms: N_3  and  C_4
REMARK    3  A    between atoms: C_4  and  C_5
REMARK    4  A    between atoms: C_7  and  C_8
REMARK    5  A    between atoms: C_13  and  C_14
REMARK    6  A    between atoms: C_21  and  C_22
REMARK    7  A    between atoms: C_27  and  C_28
REMARK                            x       y       z     vdW  Elec       q    Type
REMARK                         _______ _______ _______ _____ _____    ______ ____
ROOT
ATOM      1  O   UNL     1       0.616  10.042  21.217  0.00  0.00    +0.000 OA
ATOM      2  C   UNL     1       0.742   9.794  20.020  0.00  0.00    +0.000 C 
ATOM      3  N   UNL     1       1.378   8.664  19.552  0.00  0.00    +0.000 N 
ATOM      4  H   UNL     1       1.518   8.587  18.546  0.00  0.00    +0.000 HD
ENDROOT
BRANCH   2   5
ATOM      5  C   UNL     1       0.121  10.666  18.921  0.00  0.00    +0.000 C 
ATOM      6  C   UNL     1      -1.306  10.285  18.608  0.00  0.00    +0.000 C 
ATOM      7  C   UNL     1      -1.973  11.593  18.849  0.00  0.00    +0.000 C 
ATOM      8  N   UNL     1      -1.210  12.530  19.305  0.00  0.00    +0.000 NA
ATOM      9  O   UNL     1       0.108  12.031  19.350  0.00  0.00    +0.000 OA
BRANCH   7  10
ATOM     10  C   UNL     1      -3.424  11.781  18.606  0.00  0.00    +0.000 A 
ATOM     11  C   UNL     1      -4.170  12.381  19.639  0.00  0.00    +0.000 A 
ATOM     12  C   UNL     1      -5.531  12.645  19.485  0.00  0.00    +0.000 A 
ATOM     13  C   UNL     1      -6.166  12.326  18.294  0.00  0.00    +0.000 A 
ATOM     14  C   UNL     1      -5.439  11.726  17.268  0.00  0.00    +0.000 A 
ATOM     15  C   UNL     1      -4.062  11.423  17.406  0.00  0.00    +0.000 A 
BRANCH  15  16
ATOM     16  C   UNL     1      -3.434  10.689  16.242  0.00  0.00    +0.000 C 
ATOM     17  F   UNL     1      -4.175  10.529  15.120  0.00  0.00    +0.000 F 
ATOM     18  F   UNL     1      -2.317  11.353  15.808  0.00  0.00    +0.000 F 
ATOM     19  F   UNL     1      -2.987   9.450  16.597  0.00  0.00    +0.000 F 
ENDBRANCH  15  16
ENDBRANCH   7  10
ENDBRANCH   2   5
BRANCH   3  20
ATOM     20  C   UNL     1       2.040   7.729  20.420  0.00  0.00    +0.000 C 
BRANCH  20  21
ATOM     21  C   UNL     1       2.310   6.430  19.699  0.00  0.00    +0.000 A 
ATOM     22  C   UNL     1       1.660   5.249  20.084  0.00  0.00    +0.000 A 
ATOM     23  C   UNL     1       1.944   4.028  19.453  0.00  0.00    +0.000 A 
ATOM     24  C   UNL     1       2.882   4.005  18.407  0.00  0.00    +0.000 A 
ATOM     25  C   UNL     1       3.556   5.172  18.012  0.00  0.00    +0.000 A 
ATOM     26  C   UNL     1       3.262   6.377  18.669  0.00  0.00    +0.000 A 
BRANCH  23  27
ATOM     27  C   UNL     1       1.288   2.744  19.904  0.00  0.00    +0.000 C 
ATOM     28  F   UNL     1       0.093   2.500  19.297  0.00  0.00    +0.000 F 
ATOM     29  F   UNL     1       2.061   1.650  19.666  0.00  0.00    +0.000 F 
ATOM     30  F   UNL     1       1.034   2.741  21.242  0.00  0.00    +0.000 F 
ENDBRANCH  23  27
BRANCH  25  31
ATOM     31  C   UNL     1       4.604   5.137  16.923  0.00  0.00    +0.000 C 
ATOM     32  F   UNL     1       5.874   5.011  17.400  0.00  0.00    +0.000 F 
ATOM     33  F   UNL     1       4.426   4.103  16.058  0.00  0.00    +0.000 F 
ATOM     34  F   UNL     1       4.602   6.268  16.165  0.00  0.00    +0.000 F 
ENDBRANCH  25  31
ENDBRANCH  20  21
ENDBRANCH   3  20
TORSDOF 7
ENDMDL
MODEL 7
REMARK VINA RESULT:      -9.0      3.481      4.339
REMARK  Name = 
REMARK  7 active torsions:
REMARK  status: ('A' for Active; 'I' for Inactive)
REMARK    1  A    between atoms: C_2  and  C_19
REMARK    2  A    between atoms: N_3  and  C_4
REMARK    3  A    between atoms: C_4  and  C_5
REMARK    4  A    between atoms: C_7  and  C_8
REMARK    5  A    between atoms: C_13  and  C_14
REMARK    6  A    between atoms: C_21  and  C_22
REMARK    7  A    between atoms: C_27  and  C_28
REMARK                            x       y       z     vdW  Elec       q    Type
REMARK                         _______ _______ _______ _____ _____    ______ ____
ROOT
ATOM      1  O   UNL     1       1.780  10.925  18.275  0.00  0.00    +0.000 OA
ATOM      2  C   UNL     1       1.318   9.966  18.890  0.00  0.00    +0.000 C 
ATOM      3  N   UNL     1       1.776   8.677  18.720  0.00  0.00    +0.000 N 
ATOM      4  H   UNL     1       1.272   7.933  19.201  0.00  0.00    +0.000 HD
ENDROOT
BRANCH   2   5
ATOM      5  C   UNL     1       0.249  10.115  19.979  0.00  0.00    +0.000 C 
ATOM      6  C   UNL     1       0.656  11.074  21.072  0.00  0.00    +0.000 C 
ATOM      7  C   UNL     1      -0.484  12.028  21.007  0.00  0.00    +0.000 C 
ATOM      8  N   UNL     1      -1.333  11.814  20.058  0.00  0.00    +0.000 NA
ATOM      9  O   UNL     1      -0.954  10.627  19.397  0.00  0.00    +0.000 OA
BRANCH   7  10
ATOM     10  C   UNL     1      -0.604  13.161  21.956  0.00  0.00    +0.000 A 
ATOM     11  C   UNL     1       0.323  14.211  21.814  0.00  0.00    +0.000 A 
ATOM     12  C   UNL     1       0.260  15.343  22.628  0.00  0.00    +0.000 A 
ATOM     13  C   UNL     1      -0.737  15.449  23.586  0.00  0.00    +0.000 A 
ATOM     14  C   UNL     1      -1.655  14.413  23.739  0.00  0.00    +0.000 A 
ATOM     15  C   UNL     1      -1.599  13.241  22.946  0.00  0.00    +0.000 A 
BRANCH  15  16
ATOM     16  C   UNL     1      -2.605  12.167  23.294  0.00  0.00    +0.000 C 
ATOM     17  F   UNL     1      -2.143  10.917  23.528  0.00  0.00    +0.000 F 
ATOM     18  F   UNL     1      -3.271  12.494  24.445  0.00  0.00    +0.000 F 
ATOM     19  F   UNL     1      -3.582  12.053  22.348  0.00  0.00    +0.000 F 
ENDBRANCH  15  16
ENDBRANCH   7  10
ENDBRANCH   2   5
BRANCH   3  20
ATOM     20  C   UNL     1       2.763   8.326  17.735  0.00  0.00    +0.000 C 
BRANCH  20  21
ATOM     21  C   UNL     1       3.110   6.859  17.828  0.00  0.00    +0.000 A 
ATOM     22  C   UNL     1       4.262   6.355  17.207  0.00  0.00    +0.000 A 
ATOM     23  C   UNL     1       4.564   4.985  17.246  0.00  0.00    +0.000 A 
ATOM     24  C   UNL     1       3.701   4.117  17.935  0.00  0.00    +0.000 A 
ATOM     25  C   UNL     1       2.535   4.596  18.553  0.00  0.00    +0.000 A 
ATOM     26  C   UNL     1       2.250   5.969  18.489  0.00  0.00    +0.000 A 
BRANCH  23  27
ATOM     27  C   UNL     1       5.774   4.432  16.529  0.00  0.00    +0.000 C 
ATOM     28  F   UNL     1       5.570   3.197  15.990  0.00  0.00    +0.000 F 
ATOM     29  F   UNL     1       6.183   5.227  15.503  0.00  0.00    +0.000 F 
ATOM     30  F   UNL     1       6.847   4.304  17.358  0.00  0.00    +0.000 F 
ENDBRANCH  23  27
BRANCH  25  31
ATOM     31  C   UNL     1       1.578   3.654  19.249  0.00  0.00    +0.000 C 
ATOM     32  F   UNL     1       2.205   2.688  19.976  0.00  0.00    +0.000 F 
ATOM     33  F   UNL     1       0.750   4.296  20.117  0.00  0.00    +0.000 F 
ATOM     34  F   UNL     1       0.770   2.995  18.374  0.00  0.00    +0.000 F 
ENDBRANCH  25  31
ENDBRANCH  20  21
ENDBRANCH   3  20
TORSDOF 7
ENDMDL
MODEL 8
REMARK VINA RESULT:      -8.9      1.651      2.388
REMARK  Name = 
REMARK  7 active torsions:
REMARK  status: ('A' for Active; 'I' for Inactive)
REMARK    1  A    between atoms: C_2  and  C_19
REMARK    2  A    between atoms: N_3  and  C_4
REMARK    3  A    between atoms: C_4  and  C_5
REMARK    4  A    between atoms: C_7  and  C_8
REMARK    5  A    between atoms: C_13  and  C_14
REMARK    6  A    between atoms: C_21  and  C_22
REMARK    7  A    between atoms: C_27  and  C_28
REMARK                            x       y       z     vdW  Elec       q    Type
REMARK                         _______ _______ _______ _____ _____    ______ ____
ROOT
ATOM      1  O   UNL     1       2.500  11.634  17.771  0.00  0.00    +0.000 OA
ATOM      2  C   UNL     1       1.739  10.896  18.392  0.00  0.00    +0.000 C 
ATOM      3  N   UNL     1       1.815   9.521  18.331  0.00  0.00    +0.000 N 
ATOM      4  H   UNL     1       1.086   8.989  18.803  0.00  0.00    +0.000 HD
ENDROOT
BRANCH   2   5
ATOM      5  C   UNL     1       0.687  11.424  19.374  0.00  0.00    +0.000 C 
ATOM      6  C   UNL     1      -0.455  12.132  18.684  0.00  0.00    +0.000 C 
ATOM      7  C   UNL     1      -1.597  11.331  19.204  0.00  0.00    +0.000 C 
ATOM      8  N   UNL     1      -1.276  10.315  19.933  0.00  0.00    +0.000 NA
ATOM      9  O   UNL     1       0.124  10.327  20.101  0.00  0.00    +0.000 OA
BRANCH   7  10
ATOM     10  C   UNL     1      -3.001  11.674  18.870  0.00  0.00    +0.000 A 
ATOM     11  C   UNL     1      -3.722  12.408  19.830  0.00  0.00    +0.000 A 
ATOM     12  C   UNL     1      -5.033  12.821  19.587  0.00  0.00    +0.000 A 
ATOM     13  C   UNL     1      -5.638  12.516  18.376  0.00  0.00    +0.000 A 
ATOM     14  C   UNL     1      -4.935  11.783  17.422  0.00  0.00    +0.000 A 
ATOM     15  C   UNL     1      -3.614  11.330  17.653  0.00  0.00    +0.000 A 
BRANCH  15  16
ATOM     16  C   UNL     1      -3.019  10.469  16.561  0.00  0.00    +0.000 C 
ATOM     17  F   UNL     1      -1.931  10.938  15.906  0.00  0.00    +0.000 F 
ATOM     18  F   UNL     1      -2.602   9.269  17.076  0.00  0.00    +0.000 F 
ATOM     19  F   UNL     1      -3.938  10.138  15.609  0.00  0.00    +0.000 F 
ENDBRANCH  15  16
ENDBRANCH   7  10
ENDBRANCH   2   5
BRANCH   3  20
ATOM     20  C   UNL     1       2.723   8.830  17.455  0.00  0.00    +0.000 C 
BRANCH  20  21
ATOM     21  C   UNL     1       2.949   7.415  17.929  0.00  0.00    +0.000 A 
ATOM     22  C   UNL     1       3.834   6.564  17.251  0.00  0.00    +0.000 A 
ATOM     23  C   UNL     1       4.009   5.231  17.655  0.00  0.00    +0.000 A 
ATOM     24  C   UNL     1       3.295   4.758  18.769  0.00  0.00    +0.000 A 
ATOM     25  C   UNL     1       2.393   5.586  19.456  0.00  0.00    +0.000 A 
ATOM     26  C   UNL     1       2.227   6.912  19.023  0.00  0.00    +0.000 A 
BRANCH  23  27
ATOM     27  C   UNL     1       4.918   4.297  16.892  0.00  0.00    +0.000 C 
ATOM     28  F   UNL     1       4.601   2.981  17.046  0.00  0.00    +0.000 F 
ATOM     29  F   UNL     1       4.903   4.532  15.551  0.00  0.00    +0.000 F 
ATOM     30  F   UNL     1       6.218   4.415  17.280  0.00  0.00    +0.000 F 
ENDBRANCH  23  27
BRANCH  25  31
ATOM     31  C   UNL     1       1.585   5.062  20.621  0.00  0.00    +0.000 C 
ATOM     32  F   UNL     1       0.887   6.033  21.274  0.00  0.00    +0.000 F 
ATOM     33  F   UNL     1       0.666   4.132  20.246  0.00  0.00    +0.000 F 
ATOM     34  F   UNL     1       2.363   4.466  21.565  0.00  0.00    +0.000 F 
ENDBRANCH  25  31
ENDBRANCH  20  21
ENDBRANCH   3  20
TORSDOF 7
ENDMDL
MODEL 9
REMARK VINA RESULT:      -8.9      2.987      4.643
REMARK  Name = 
REMARK  7 active torsions:
REMARK  status: ('A' for Active; 'I' for Inactive)
REMARK    1  A    between atoms: C_2  and  C_19
REMARK    2  A    between atoms: N_3  and  C_4
REMARK    3  A    between atoms: C_4  and  C_5
REMARK    4  A    between atoms: C_7  and  C_8
REMARK    5  A    between atoms: C_13  and  C_14
REMARK    6  A    between atoms: C_21  and  C_22
REMARK    7  A    between atoms: C_27  and  C_28
REMARK                            x       y       z     vdW  Elec       q    Type
REMARK                         _______ _______ _______ _____ _____    ______ ____
ROOT
ATOM      1  O   UNL     1       1.656   9.496  22.492  0.00  0.00    +0.000 OA
ATOM      2  C   UNL     1       1.231   9.431  21.341  0.00  0.00    +0.000 C 
ATOM      3  N   UNL     1       1.124   8.245  20.648  0.00  0.00    +0.000 N 
ATOM      4  H   UNL     1       0.850   8.296  19.668  0.00  0.00    +0.000 HD
ENDROOT
BRANCH   2   5
ATOM      5  C   UNL     1       0.686  10.650  20.587  0.00  0.00    +0.000 C 
ATOM      6  C   UNL     1      -0.803  10.574  20.348  0.00  0.00    +0.000 C 
ATOM      7  C   UNL     1      -1.226  11.844  20.997  0.00  0.00    +0.000 C 
ATOM      8  N   UNL     1      -0.289  12.502  21.594  0.00  0.00    +0.000 NA
ATOM      9  O   UNL     1       0.929  11.832  21.357  0.00  0.00    +0.000 OA
BRANCH   7  10
ATOM     10  C   UNL     1      -2.640  12.292  20.979  0.00  0.00    +0.000 A 
ATOM     11  C   UNL     1      -3.205  12.565  19.718  0.00  0.00    +0.000 A 
ATOM     12  C   UNL     1      -4.542  12.944  19.594  0.00  0.00    +0.000 A 
ATOM     13  C   UNL     1      -5.339  13.044  20.725  0.00  0.00    +0.000 A 
ATOM     14  C   UNL     1      -4.788  12.783  21.978  0.00  0.00    +0.000 A 
ATOM     15  C   UNL     1      -3.428  12.422  22.136  0.00  0.00    +0.000 A 
BRANCH  15  16
ATOM     16  C   UNL     1      -2.955  12.263  23.564  0.00  0.00    +0.000 C 
ATOM     17  F   UNL     1      -3.893  12.188  24.537  0.00  0.00    +0.000 F 
ATOM     18  F   UNL     1      -2.242  11.101  23.702  0.00  0.00    +0.000 F 
ATOM     19  F   UNL     1      -2.087  13.249  23.931  0.00  0.00    +0.000 F 
ENDBRANCH  15  16
ENDBRANCH   7  10
ENDBRANCH   2   5
BRANCH   3  20
ATOM     20  C   UNL     1       1.596   6.992  21.174  0.00  0.00    +0.000 C 
BRANCH  20  21
ATOM     21  C   UNL     1       2.037   6.077  20.056  0.00  0.00    +0.000 A 
ATOM     22  C   UNL     1       1.553   4.764  19.972  0.00  0.00    +0.000 A 
ATOM     23  C   UNL     1       1.998   3.892  18.966  0.00  0.00    +0.000 A 
ATOM     24  C   UNL     1       2.930   4.359  18.025  0.00  0.00    +0.000 A 
ATOM     25  C   UNL     1       3.440   5.665  18.096  0.00  0.00    +0.000 A 
ATOM     26  C   UNL     1       2.987   6.513  19.119  0.00  0.00    +0.000 A 
BRANCH  23  27
ATOM     27  C   UNL     1       1.521   2.460  18.908  0.00  0.00    +0.000 C 
ATOM     28  F   UNL     1       0.230   2.332  18.492  0.00  0.00    +0.000 F 
ATOM     29  F   UNL     1       2.266   1.695  18.063  0.00  0.00    +0.000 F 
ATOM     30  F   UNL     1       1.584   1.848  20.123  0.00  0.00    +0.000 F 
ENDBRANCH  23  27
BRANCH  25  31
ATOM     31  C   UNL     1       4.483   6.150  17.115  0.00  0.00    +0.000 C 
ATOM     32  F   UNL     1       4.719   5.273  16.100  0.00  0.00    +0.000 F 
ATOM     33  F   UNL     1       4.137   7.324  16.520  0.00  0.00    +0.000 F 
ATOM     34  F   UNL     1       5.690   6.368  17.706  0.00  0.00    +0.000 F 
ENDBRANCH  25  31
ENDBRANCH  20  21
ENDBRANCH   3  20
TORSDOF 7
ENDMDL
