MODEL 1
REMARK VINA RESULT:      -7.2      0.000      0.000
REMARK  Name = 
REMARK  8 active torsions:
REMARK  status: ('A' for Active; 'I' for Inactive)
REMARK    1  A    between atoms: C_1  and  C_2
REMARK    2  A    between atoms: C_2  and  C_3
REMARK    3  A    between atoms: C_3  and  C_4
REMARK    4  A    between atoms: C_4  and  C_5
REMARK    5  A    between atoms: C_5  and  C_6
REMARK    6  A    between atoms: C_6  and  C_7
REMARK    7  A    between atoms: N_8  and  N_9
REMARK    8  A    between atoms: C_16  and  C_17
REMARK                            x       y       z     vdW  Elec       q    Type
REMARK                         _______ _______ _______ _____ _____    ______ ____
ROOT
ATOM      1  N   UNL     1       6.048   6.087  15.960  0.00  0.00    +0.000 N 
ATOM      2  C   UNL     1       5.123   5.704  16.882  0.00  0.00    +0.000 A 
ATOM      3  N   UNL     1       4.696   6.450  17.885  0.00  0.00    +0.000 NA
ATOM      4  C   UNL     1       3.672   5.789  18.561  0.00  0.00    +0.000 A 
ATOM      5  C   UNL     1       2.909   6.297  19.636  0.00  0.00    +0.000 A 
ATOM      6  C   UNL     1       1.912   5.498  20.214  0.00  0.00    +0.000 A 
ATOM      7  C   UNL     1       1.675   4.206  19.753  0.00  0.00    +0.000 A 
ATOM      8  C   UNL     1       2.409   3.667  18.687  0.00  0.00    +0.000 A 
ATOM      9  C   UNL     1       2.162   2.275  18.184  0.00  0.00    +0.000 C 
ATOM     10  C   UNL     1       3.389   4.502  18.108  0.00  0.00    +0.000 A 
ATOM     11  S   UNL     1       4.399   4.147  16.773  0.00  0.00    +0.000 S 
ATOM     12  H   UNL     1       6.442   7.016  16.098  0.00  0.00    +0.000 HD
ENDROOT
BRANCH   1  14
ATOM     13  C   UNL     1       7.025   4.976  14.237  0.00  0.00    +0.000 C 
ATOM     14  N   UNL     1       5.985   5.571  14.698  0.00  0.00    +0.000 NA
BRANCH  13  15
ATOM     15  C   UNL     1       6.972   4.443  12.828  0.00  0.00    +0.000 C 
BRANCH  15  16
ATOM     16  C   UNL     1       6.175   3.147  12.766  0.00  0.00    +0.000 C 
BRANCH  16  17
ATOM     17  C   UNL     1       5.455   3.001  11.423  0.00  0.00    +0.000 C 
BRANCH  17  18
ATOM     18  C   UNL     1       3.979   3.375  11.557  0.00  0.00    +0.000 C 
BRANCH  18  20
ATOM     19  C   UNL     1       2.913   4.421   9.537  0.00  0.00    +0.000 C 
ATOM     20  C   UNL     1       3.211   3.119  10.263  0.00  0.00    +0.000 C 
ENDBRANCH  18  20
ENDBRANCH  17  18
ENDBRANCH  16  17
ENDBRANCH  15  16
ENDBRANCH  13  15
ENDBRANCH   1  14
TORSDOF 6
ENDMDL
MODEL 2
REMARK VINA RESULT:      -7.1      4.176      6.773
REMARK  Name = 
REMARK  8 active torsions:
REMARK  status: ('A' for Active; 'I' for Inactive)
REMARK    1  A    between atoms: C_1  and  C_2
REMARK    2  A    between atoms: C_2  and  C_3
REMARK    3  A    between atoms: C_3  and  C_4
REMARK    4  A    between atoms: C_4  and  C_5
REMARK    5  A    between atoms: C_5  and  C_6
REMARK    6  A    between atoms: C_6  and  C_7
REMARK    7  A    between atoms: N_8  and  N_9
REMARK    8  A    between atoms: C_16  and  C_17
REMARK                            x       y       z     vdW  Elec       q    Type
REMARK                         _______ _______ _______ _____ _____    ______ ____
ROOT
ATOM      1  N   UNL     1       5.963   5.294  16.950  0.00  0.00    +0.000 N 
ATOM      2  C   UNL     1       4.804   4.799  17.464  0.00  0.00    +0.000 A 
ATOM      3  N   UNL     1       4.199   3.700  17.055  0.00  0.00    +0.000 NA
ATOM      4  C   UNL     1       3.104   3.431  17.875  0.00  0.00    +0.000 A 
ATOM      5  C   UNL     1       2.259   2.301  17.807  0.00  0.00    +0.000 A 
ATOM      6  C   UNL     1       1.190   2.182  18.706  0.00  0.00    +0.000 A 
ATOM      7  C   UNL     1       0.941   3.171  19.655  0.00  0.00    +0.000 A 
ATOM      8  C   UNL     1       1.758   4.305  19.757  0.00  0.00    +0.000 A 
ATOM      9  C   UNL     1       1.498   5.376  20.775  0.00  0.00    +0.000 C 
ATOM     10  C   UNL     1       2.841   4.386  18.855  0.00  0.00    +0.000 A 
ATOM     11  S   UNL     1       4.031   5.613  18.769  0.00  0.00    +0.000 S 
ATOM     12  H   UNL     1       6.354   4.766  16.170  0.00  0.00    +0.000 HD
ENDROOT
BRANCH   1  14
ATOM     13  C   UNL     1       7.261   7.121  17.312  0.00  0.00    +0.000 C 
ATOM     14  N   UNL     1       6.800   6.008  17.755  0.00  0.00    +0.000 NA
BRANCH  13  15
ATOM     15  C   UNL     1       8.219   7.892  18.183  0.00  0.00    +0.000 C 
BRANCH  15  16
ATOM     16  C   UNL     1       8.144   9.383  17.889  0.00  0.00    +0.000 C 
BRANCH  16  17
ATOM     17  C   UNL     1       9.158  10.167  18.725  0.00  0.00    +0.000 C 
BRANCH  17  18
ATOM     18  C   UNL     1       9.568  11.455  18.011  0.00  0.00    +0.000 C 
BRANCH  18  20
ATOM     19  C   UNL     1      11.481  12.897  17.254  0.00  0.00    +0.000 C 
ATOM     20  C   UNL     1      11.077  11.678  18.068  0.00  0.00    +0.000 C 
ENDBRANCH  18  20
ENDBRANCH  17  18
ENDBRANCH  16  17
ENDBRANCH  15  16
ENDBRANCH  13  15
ENDBRANCH   1  14
TORSDOF 6
ENDMDL
MODEL 3
REMARK VINA RESULT:      -7.0      3.847      6.760
REMARK  Name = 
REMARK  8 active torsions:
REMARK  status: ('A' for Active; 'I' for Inactive)
REMARK    1  A    between atoms: C_1  and  C_2
REMARK    2  A    between atoms: C_2  and  C_3
REMARK    3  A    between atoms: C_3  and  C_4
REMARK    4  A    between atoms: C_4  and  C_5
REMARK    5  A    between atoms: C_5  and  C_6
REMARK    6  A    between atoms: C_6  and  C_7
REMARK    7  A    between atoms: N_8  and  N_9
REMARK    8  A    between atoms: C_16  and  C_17
REMARK                            x       y       z     vdW  Elec       q    Type
REMARK                         _______ _______ _______ _____ _____    ______ ____
ROOT
ATOM      1  N   UNL     1       5.476   5.922  16.253  0.00  0.00    +0.000 N 
ATOM      2  C   UNL     1       4.497   5.274  16.941  0.00  0.00    +0.000 A 
ATOM      3  N   UNL     1       4.088   4.041  16.700  0.00  0.00    +0.000 NA
ATOM      4  C   UNL     1       3.155   3.658  17.663  0.00  0.00    +0.000 A 
ATOM      5  C   UNL     1       2.552   2.387  17.791  0.00  0.00    +0.000 A 
ATOM      6  C   UNL     1       1.623   2.162  18.817  0.00  0.00    +0.000 A 
ATOM      7  C   UNL     1       1.275   3.181  19.700  0.00  0.00    +0.000 A 
ATOM      8  C   UNL     1       1.853   4.455  19.608  0.00  0.00    +0.000 A 
ATOM      9  C   UNL     1       1.484   5.559  20.555  0.00  0.00    +0.000 C 
ATOM     10  C   UNL     1       2.804   4.644  18.582  0.00  0.00    +0.000 A 
ATOM     11  S   UNL     1       3.708   6.059  18.253  0.00  0.00    +0.000 S 
ATOM     12  H   UNL     1       5.886   5.398  15.481  0.00  0.00    +0.000 HD
ENDROOT
BRANCH   1  14
ATOM     13  C   UNL     1       7.319   6.489  17.451  0.00  0.00    +0.000 C 
ATOM     14  N   UNL     1       6.227   6.865  16.891  0.00  0.00    +0.000 NA
BRANCH  13  15
ATOM     15  C   UNL     1       8.129   7.521  18.192  0.00  0.00    +0.000 C 
BRANCH  15  16
ATOM     16  C   UNL     1       7.666   8.929  17.847  0.00  0.00    +0.000 C 
BRANCH  16  17
ATOM     17  C   UNL     1       8.832   9.920  17.867  0.00  0.00    +0.000 C 
BRANCH  17  18
ATOM     18  C   UNL     1       9.186  10.309  19.302  0.00  0.00    +0.000 C 
BRANCH  18  20
ATOM     19  C   UNL     1      10.510  11.905  20.722  0.00  0.00    +0.000 C 
ATOM     20  C   UNL     1      10.383  11.256  19.352  0.00  0.00    +0.000 C 
ENDBRANCH  18  20
ENDBRANCH  17  18
ENDBRANCH  16  17
ENDBRANCH  15  16
ENDBRANCH  13  15
ENDBRANCH   1  14
TORSDOF 6
ENDMDL
MODEL 4
REMARK VINA RESULT:      -7.0      0.827      1.132
REMARK  Name = 
REMARK  8 active torsions:
REMARK  status: ('A' for Active; 'I' for Inactive)
REMARK    1  A    between atoms: C_1  and  C_2
REMARK    2  A    between atoms: C_2  and  C_3
REMARK    3  A    between atoms: C_3  and  C_4
REMARK    4  A    between atoms: C_4  and  C_5
REMARK    5  A    between atoms: C_5  and  C_6
REMARK    6  A    between atoms: C_6  and  C_7
REMARK    7  A    between atoms: N_8  and  N_9
REMARK    8  A    between atoms: C_16  and  C_17
REMARK                            x       y       z     vdW  Elec       q    Type
REMARK                         _______ _______ _______ _____ _____    ______ ____
ROOT
ATOM      1  N   UNL     1       5.749   6.337  17.155  0.00  0.00    +0.000 N 
ATOM      2  C   UNL     1       4.738   5.774  17.872  0.00  0.00    +0.000 A 
ATOM      3  N   UNL     1       4.114   6.345  18.885  0.00  0.00    +0.000 NA
ATOM      4  C   UNL     1       3.062   5.534  19.309  0.00  0.00    +0.000 A 
ATOM      5  C   UNL     1       2.116   5.840  20.313  0.00  0.00    +0.000 A 
ATOM      6  C   UNL     1       1.117   4.908  20.628  0.00  0.00    +0.000 A 
ATOM      7  C   UNL     1       1.056   3.679  19.975  0.00  0.00    +0.000 A 
ATOM      8  C   UNL     1       1.974   3.339  18.973  0.00  0.00    +0.000 A 
ATOM      9  C   UNL     1       1.917   2.018  18.265  0.00  0.00    +0.000 C 
ATOM     10  C   UNL     1       2.953   4.307  18.659  0.00  0.00    +0.000 A 
ATOM     11  S   UNL     1       4.168   4.204  17.458  0.00  0.00    +0.000 S 
ATOM     12  H   UNL     1       6.041   7.262  17.469  0.00  0.00    +0.000 HD
ENDROOT
BRANCH   1  14
ATOM     13  C   UNL     1       6.897   5.242  15.532  0.00  0.00    +0.000 C 
ATOM     14  N   UNL     1       5.907   5.998  15.844  0.00  0.00    +0.000 NA
BRANCH  13  15
ATOM     15  C   UNL     1       7.098   4.899  14.078  0.00  0.00    +0.000 C 
BRANCH  15  16
ATOM     16  C   UNL     1       6.091   3.854  13.619  0.00  0.00    +0.000 C 
BRANCH  16  17
ATOM     17  C   UNL     1       6.453   3.300  12.240  0.00  0.00    +0.000 C 
BRANCH  17  18
ATOM     18  C   UNL     1       5.228   2.678  11.568  0.00  0.00    +0.000 C 
BRANCH  18  20
ATOM     19  C   UNL     1       3.108   3.167  10.312  0.00  0.00    +0.000 C 
ATOM     20  C   UNL     1       4.165   3.727  11.251  0.00  0.00    +0.000 C 
ENDBRANCH  18  20
ENDBRANCH  17  18
ENDBRANCH  16  17
ENDBRANCH  15  16
ENDBRANCH  13  15
ENDBRANCH   1  14
TORSDOF 6
ENDMDL
MODEL 5
REMARK VINA RESULT:      -7.0      4.392      6.534
REMARK  Name = 
REMARK  8 active torsions:
REMARK  status: ('A' for Active; 'I' for Inactive)
REMARK    1  A    between atoms: C_1  and  C_2
REMARK    2  A    between atoms: C_2  and  C_3
REMARK    3  A    between atoms: C_3  and  C_4
REMARK    4  A    between atoms: C_4  and  C_5
REMARK    5  A    between atoms: C_5  and  C_6
REMARK    6  A    between atoms: C_6  and  C_7
REMARK    7  A    between atoms: N_8  and  N_9
REMARK    8  A    between atoms: C_16  and  C_17
REMARK                            x       y       z     vdW  Elec       q    Type
REMARK                         _______ _______ _______ _____ _____    ______ ____
ROOT
ATOM      1  N   UNL     1       6.849   4.090  18.421  0.00  0.00    +0.000 N 
ATOM      2  C   UNL     1       5.546   3.837  18.721  0.00  0.00    +0.000 A 
ATOM      3  N   UNL     1       5.126   3.149  19.767  0.00  0.00    +0.000 NA
ATOM      4  C   UNL     1       3.733   3.182  19.825  0.00  0.00    +0.000 A 
ATOM      5  C   UNL     1       2.921   2.633  20.841  0.00  0.00    +0.000 A 
ATOM      6  C   UNL     1       1.526   2.747  20.748  0.00  0.00    +0.000 A 
ATOM      7  C   UNL     1       0.932   3.381  19.659  0.00  0.00    +0.000 A 
ATOM      8  C   UNL     1       1.704   3.941  18.632  0.00  0.00    +0.000 A 
ATOM      9  C   UNL     1       1.074   4.625  17.455  0.00  0.00    +0.000 C 
ATOM     10  C   UNL     1       3.106   3.833  18.765  0.00  0.00    +0.000 A 
ATOM     11  S   UNL     1       4.299   4.456  17.709  0.00  0.00    +0.000 S 
ATOM     12  H   UNL     1       7.530   3.679  19.059  0.00  0.00    +0.000 HD
ENDROOT
BRANCH   1  14
ATOM     13  C   UNL     1       7.323   6.310  18.435  0.00  0.00    +0.000 C 
ATOM     14  N   UNL     1       7.170   5.234  17.752  0.00  0.00    +0.000 NA
BRANCH  13  15
ATOM     15  C   UNL     1       7.637   7.584  17.693  0.00  0.00    +0.000 C 
BRANCH  15  16
ATOM     16  C   UNL     1       8.556   8.479  18.512  0.00  0.00    +0.000 C 
BRANCH  16  17
ATOM     17  C   UNL     1       8.554   9.914  17.981  0.00  0.00    +0.000 C 
BRANCH  17  18
ATOM     18  C   UNL     1       9.533  10.784  18.770  0.00  0.00    +0.000 C 
BRANCH  18  20
ATOM     19  C   UNL     1       9.908  12.940  17.535  0.00  0.00    +0.000 C 
ATOM     20  C   UNL     1      10.469  11.561  17.847  0.00  0.00    +0.000 C 
ENDBRANCH  18  20
ENDBRANCH  17  18
ENDBRANCH  16  17
ENDBRANCH  15  16
ENDBRANCH  13  15
ENDBRANCH   1  14
TORSDOF 6
ENDMDL
MODEL 6
REMARK VINA RESULT:      -6.9      1.229      1.436
REMARK  Name = 
REMARK  8 active torsions:
REMARK  status: ('A' for Active; 'I' for Inactive)
REMARK    1  A    between atoms: C_1  and  C_2
REMARK    2  A    between atoms: C_2  and  C_3
REMARK    3  A    between atoms: C_3  and  C_4
REMARK    4  A    between atoms: C_4  and  C_5
REMARK    5  A    between atoms: C_5  and  C_6
REMARK    6  A    between atoms: C_6  and  C_7
REMARK    7  A    between atoms: N_8  and  N_9
REMARK    8  A    between atoms: C_16  and  C_17
REMARK                            x       y       z     vdW  Elec       q    Type
REMARK                         _______ _______ _______ _____ _____    ______ ____
ROOT
ATOM      1  N   UNL     1       7.497   5.797  15.442  0.00  0.00    +0.000 N 
ATOM      2  C   UNL     1       6.331   5.817  16.142  0.00  0.00    +0.000 A 
ATOM      3  N   UNL     1       5.807   6.885  16.716  0.00  0.00    +0.000 NA
ATOM      4  C   UNL     1       4.557   6.570  17.247  0.00  0.00    +0.000 A 
ATOM      5  C   UNL     1       3.655   7.464  17.864  0.00  0.00    +0.000 A 
ATOM      6  C   UNL     1       2.432   6.985  18.355  0.00  0.00    +0.000 A 
ATOM      7  C   UNL     1       2.102   5.635  18.255  0.00  0.00    +0.000 A 
ATOM      8  C   UNL     1       2.969   4.717  17.647  0.00  0.00    +0.000 A 
ATOM      9  C   UNL     1       2.623   3.261  17.535  0.00  0.00    +0.000 C 
ATOM     10  C   UNL     1       4.181   5.232  17.140  0.00  0.00    +0.000 A 
ATOM     11  S   UNL     1       5.407   4.375  16.308  0.00  0.00    +0.000 S 
ATOM     12  H   UNL     1       7.995   6.686  15.399  0.00  0.00    +0.000 HD
ENDROOT
BRANCH   1  14
ATOM     13  C   UNL     1       6.936   5.050  13.373  0.00  0.00    +0.000 C 
ATOM     14  N   UNL     1       7.652   4.899  14.428  0.00  0.00    +0.000 NA
BRANCH  13  15
ATOM     15  C   UNL     1       7.075   4.035  12.268  0.00  0.00    +0.000 C 
BRANCH  15  16
ATOM     16  C   UNL     1       6.226   2.804  12.550  0.00  0.00    +0.000 C 
BRANCH  16  17
ATOM     17  C   UNL     1       5.230   2.544  11.417  0.00  0.00    +0.000 C 
BRANCH  17  18
ATOM     18  C   UNL     1       4.423   3.805  11.106  0.00  0.00    +0.000 C 
BRANCH  18  20
ATOM     19  C   UNL     1       2.779   4.711   9.436  0.00  0.00    +0.000 C 
ATOM     20  C   UNL     1       3.198   3.496  10.249  0.00  0.00    +0.000 C 
ENDBRANCH  18  20
ENDBRANCH  17  18
ENDBRANCH  16  17
ENDBRANCH  15  16
ENDBRANCH  13  15
ENDBRANCH   1  14
TORSDOF 6
ENDMDL
MODEL 7
REMARK VINA RESULT:      -6.8      3.971      6.722
REMARK  Name = 
REMARK  8 active torsions:
REMARK  status: ('A' for Active; 'I' for Inactive)
REMARK    1  A    between atoms: C_1  and  C_2
REMARK    2  A    between atoms: C_2  and  C_3
REMARK    3  A    between atoms: C_3  and  C_4
REMARK    4  A    between atoms: C_4  and  C_5
REMARK    5  A    between atoms: C_5  and  C_6
REMARK    6  A    between atoms: C_6  and  C_7
REMARK    7  A    between atoms: N_8  and  N_9
REMARK    8  A    between atoms: C_16  and  C_17
REMARK                            x       y       z     vdW  Elec       q    Type
REMARK                         _______ _______ _______ _____ _____    ______ ____
ROOT
ATOM      1  N   UNL     1       6.153   4.254  16.991  0.00  0.00    +0.000 N 
ATOM      2  C   UNL     1       4.922   4.043  17.531  0.00  0.00    +0.000 A 
ATOM      3  N   UNL     1       4.155   2.996  17.288  0.00  0.00    +0.000 NA
ATOM      4  C   UNL     1       3.017   3.048  18.092  0.00  0.00    +0.000 A 
ATOM      5  C   UNL     1       2.004   2.068  18.179  0.00  0.00    +0.000 A 
ATOM      6  C   UNL     1       0.914   2.275  19.037  0.00  0.00    +0.000 A 
ATOM      7  C   UNL     1       0.811   3.441  19.792  0.00  0.00    +0.000 A 
ATOM      8  C   UNL     1       1.797   4.435  19.735  0.00  0.00    +0.000 A 
ATOM      9  C   UNL     1       1.695   5.695  20.544  0.00  0.00    +0.000 C 
ATOM     10  C   UNL     1       2.895   4.188  18.882  0.00  0.00    +0.000 A 
ATOM     11  S   UNL     1       4.267   5.182  18.642  0.00  0.00    +0.000 S 
ATOM     12  H   UNL     1       6.468   3.544  16.331  0.00  0.00    +0.000 HD
ENDROOT
BRANCH   1  14
ATOM     13  C   UNL     1       7.046   6.242  17.630  0.00  0.00    +0.000 C 
ATOM     14  N   UNL     1       7.080   4.961  17.700  0.00  0.00    +0.000 NA
BRANCH  13  15
ATOM     15  C   UNL     1       8.095   7.023  18.379  0.00  0.00    +0.000 C 
BRANCH  15  16
ATOM     16  C   UNL     1       8.200   8.444  17.846  0.00  0.00    +0.000 C 
BRANCH  16  17
ATOM     17  C   UNL     1       8.893   9.366  18.852  0.00  0.00    +0.000 C 
BRANCH  17  18
ATOM     18  C   UNL     1       9.114  10.754  18.250  0.00  0.00    +0.000 C 
BRANCH  18  20
ATOM     19  C   UNL     1       9.833  12.014  20.302  0.00  0.00    +0.000 C 
ATOM     20  C   UNL     1      10.259  11.493  18.938  0.00  0.00    +0.000 C 
ENDBRANCH  18  20
ENDBRANCH  17  18
ENDBRANCH  16  17
ENDBRANCH  15  16
ENDBRANCH  13  15
ENDBRANCH   1  14
TORSDOF 6
ENDMDL
MODEL 8
REMARK VINA RESULT:      -6.7      1.700      2.131
REMARK  Name = 
REMARK  8 active torsions:
REMARK  status: ('A' for Active; 'I' for Inactive)
REMARK    1  A    between atoms: C_1  and  C_2
REMARK    2  A    between atoms: C_2  and  C_3
REMARK    3  A    between atoms: C_3  and  C_4
REMARK    4  A    between atoms: C_4  and  C_5
REMARK    5  A    between atoms: C_5  and  C_6
REMARK    6  A    between atoms: C_6  and  C_7
REMARK    7  A    between atoms: N_8  and  N_9
REMARK    8  A    between atoms: C_16  and  C_17
REMARK                            x       y       z     vdW  Elec       q    Type
REMARK                         _______ _______ _______ _____ _____    ______ ____
ROOT
ATOM      1  N   UNL     1       6.659   5.016  18.202  0.00  0.00    +0.000 N 
ATOM      2  C   UNL     1       5.414   4.761  18.689  0.00  0.00    +0.000 A 
ATOM      3  N   UNL     1       4.758   5.531  19.538  0.00  0.00    +0.000 NA
ATOM      4  C   UNL     1       3.472   5.029  19.734  0.00  0.00    +0.000 A 
ATOM      5  C   UNL     1       2.447   5.619  20.505  0.00  0.00    +0.000 A 
ATOM      6  C   UNL     1       1.203   4.979  20.607  0.00  0.00    +0.000 A 
ATOM      7  C   UNL     1       0.972   3.763  19.970  0.00  0.00    +0.000 A 
ATOM      8  C   UNL     1       1.962   3.147  19.193  0.00  0.00    +0.000 A 
ATOM      9  C   UNL     1       1.723   1.836  18.503  0.00  0.00    +0.000 C 
ATOM     10  C   UNL     1       3.196   3.826  19.088  0.00  0.00    +0.000 A 
ATOM     11  S   UNL     1       4.566   3.354  18.179  0.00  0.00    +0.000 S 
ATOM     12  H   UNL     1       7.103   5.860  18.561  0.00  0.00    +0.000 HD
ENDROOT
BRANCH   1  14
ATOM     13  C   UNL     1       6.728   5.314  15.952  0.00  0.00    +0.000 C 
ATOM     14  N   UNL     1       6.995   4.564  16.959  0.00  0.00    +0.000 NA
BRANCH  13  15
ATOM     15  C   UNL     1       7.060   4.800  14.575  0.00  0.00    +0.000 C 
BRANCH  15  16
ATOM     16  C   UNL     1       6.083   3.714  14.149  0.00  0.00    +0.000 C 
BRANCH  16  17
ATOM     17  C   UNL     1       5.295   4.131  12.905  0.00  0.00    +0.000 C 
BRANCH  17  18
ATOM     18  C   UNL     1       5.209   2.975  11.907  0.00  0.00    +0.000 C 
BRANCH  18  20
ATOM     19  C   UNL     1       6.515   0.999  11.071  0.00  0.00    +0.000 C 
ATOM     20  C   UNL     1       6.591   2.445  11.535  0.00  0.00    +0.000 C 
ENDBRANCH  18  20
ENDBRANCH  17  18
ENDBRANCH  16  17
ENDBRANCH  15  16
ENDBRANCH  13  15
ENDBRANCH   1  14
TORSDOF 6
ENDMDL
MODEL 9
REMARK VINA RESULT:      -6.7      4.342      6.896
REMARK  Name = 
REMARK  8 active torsions:
REMARK  status: ('A' for Active; 'I' for Inactive)
REMARK    1  A    between atoms: C_1  and  C_2
REMARK    2  A    between atoms: C_2  and  C_3
REMARK    3  A    between atoms: C_3  and  C_4
REMARK    4  A    between atoms: C_4  and  C_5
REMARK    5  A    between atoms: C_5  and  C_6
REMARK    6  A    between atoms: C_6  and  C_7
REMARK    7  A    between atoms: N_8  and  N_9
REMARK    8  A    between atoms: C_16  and  C_17
REMARK                            x       y       z     vdW  Elec       q    Type
REMARK                         _______ _______ _______ _____ _____    ______ ____
ROOT
ATOM      1  N   UNL     1       6.269   5.704  16.863  0.00  0.00    +0.000 N 
ATOM      2  C   UNL     1       5.379   5.191  17.755  0.00  0.00    +0.000 A 
ATOM      3  N   UNL     1       5.410   3.963  18.240  0.00  0.00    +0.000 NA
ATOM      4  C   UNL     1       4.420   3.814  19.210  0.00  0.00    +0.000 A 
ATOM      5  C   UNL     1       4.193   2.673  20.011  0.00  0.00    +0.000 A 
ATOM      6  C   UNL     1       3.145   2.680  20.943  0.00  0.00    +0.000 A 
ATOM      7  C   UNL     1       2.316   3.791  21.077  0.00  0.00    +0.000 A 
ATOM      8  C   UNL     1       2.510   4.943  20.303  0.00  0.00    +0.000 A 
ATOM      9  C   UNL     1       1.623   6.144  20.439  0.00  0.00    +0.000 C 
ATOM     10  C   UNL     1       3.588   4.916  19.391  0.00  0.00    +0.000 A 
ATOM     11  S   UNL     1       4.103   6.177  18.355  0.00  0.00    +0.000 S 
ATOM     12  H   UNL     1       6.988   5.056  16.543  0.00  0.00    +0.000 HD
ENDROOT
BRANCH   1  14
ATOM     13  C   UNL     1       7.552   7.440  17.565  0.00  0.00    +0.000 C 
ATOM     14  N   UNL     1       6.540   7.041  16.884  0.00  0.00    +0.000 NA
BRANCH  13  15
ATOM     15  C   UNL     1       7.829   8.921  17.624  0.00  0.00    +0.000 C 
BRANCH  15  16
ATOM     16  C   UNL     1       8.825   9.245  18.728  0.00  0.00    +0.000 C 
BRANCH  16  17
ATOM     17  C   UNL     1       9.127  10.745  18.782  0.00  0.00    +0.000 C 
BRANCH  17  18
ATOM     18  C   UNL     1      10.560  10.992  19.253  0.00  0.00    +0.000 C 
BRANCH  18  20
ATOM     19  C   UNL     1      10.437  12.709  17.423  0.00  0.00    +0.000 C 
ATOM     20  C   UNL     1      11.354  11.813  18.240  0.00  0.00    +0.000 C 
ENDBRANCH  18  20
ENDBRANCH  17  18
ENDBRANCH  16  17
ENDBRANCH  15  16
ENDBRANCH  13  15
ENDBRANCH   1  14
TORSDOF 6
ENDMDL
