MODEL 1
REMARK VINA RESULT:      -7.3      0.000      0.000
REMARK  Name = 
REMARK  4 active torsions:
REMARK  status: ('A' for Active; 'I' for Inactive)
REMARK    1  A    between atoms: C_1  and  C_2
REMARK    2  A    between atoms: C_2  and  C_3
REMARK    3  A    between atoms: N_13  and  C_14
REMARK    4  A    between atoms: C_14  and  C_15
REMARK                            x       y       z     vdW  Elec       q    Type
REMARK                         _______ _______ _______ _____ _____    ______ ____
ROOT
ATOM      1  C   UNL     1       0.942   4.529  20.327  0.00  0.00    +0.000 C 
ATOM      2  C   UNL     1       1.870   3.461  19.730  0.00  0.00    +0.000 C 
ATOM      3  C   UNL     1       1.342   2.089  20.166  0.00  0.00    +0.000 C 
ATOM      4  O   UNL     1       1.861   3.457  18.302  0.00  0.00    +0.000 OA
ATOM      5  C   UNL     1       2.444   4.626  17.727  0.00  0.00    +0.000 C 
ATOM      6  C   UNL     1       3.851   4.849  18.273  0.00  0.00    +0.000 C 
ATOM      7  C   UNL     1       3.880   4.743  19.789  0.00  0.00    +0.000 C 
ATOM      8  O   UNL     1       3.211   3.563  20.221  0.00  0.00    +0.000 OA
ATOM      9  C   UNL     1       4.476   6.159  17.739  0.00  0.00    +0.000 C 
ATOM     10  N   UNL     1       5.121   5.331  16.737  0.00  0.00    +0.000 N 
ATOM     11  C   UNL     1       5.547   5.681  15.495  0.00  0.00    +0.000 C 
ATOM     12  O   UNL     1       5.412   6.824  15.068  0.00  0.00    +0.000 OA
ATOM     13  N   UNL     1       6.157   4.693  14.778  0.00  0.00    +0.000 N 
ATOM     14  C   UNL     1       4.987   4.107  17.503  0.00  0.00    +0.000 C 
ATOM     15  H   UNL     1       6.043   3.735  15.079  0.00  0.00    +0.000 HD
ENDROOT
BRANCH  13  16
ATOM     16  C   UNL     1       6.612   4.942  13.427  0.00  0.00    +0.000 C 
BRANCH  16  17
ATOM     17  C   UNL     1       6.391   3.751  12.534  0.00  0.00    +0.000 A 
ATOM     18  C   UNL     1       5.099   3.286  12.254  0.00  0.00    +0.000 A 
ATOM     19  C   UNL     1       4.910   2.161  11.447  0.00  0.00    +0.000 A 
ATOM     20  C   UNL     1       6.010   1.488  10.915  0.00  0.00    +0.000 A 
ATOM     21  C   UNL     1       7.299   1.948  11.175  0.00  0.00    +0.000 A 
ATOM     22  C   UNL     1       7.489   3.071  11.985  0.00  0.00    +0.000 A 
ENDBRANCH  16  17
ENDBRANCH  13  16
TORSDOF 2
ENDMDL
MODEL 2
REMARK VINA RESULT:      -7.3      0.323      1.084
REMARK  Name = 
REMARK  4 active torsions:
REMARK  status: ('A' for Active; 'I' for Inactive)
REMARK    1  A    between atoms: C_1  and  C_2
REMARK    2  A    between atoms: C_2  and  C_3
REMARK    3  A    between atoms: N_13  and  C_14
REMARK    4  A    between atoms: C_14  and  C_15
REMARK                            x       y       z     vdW  Elec       q    Type
REMARK                         _______ _______ _______ _____ _____    ______ ____
ROOT
ATOM      1  C   UNL     1       0.951   4.598  20.311  0.00  0.00    +0.000 C 
ATOM      2  C   UNL     1       1.985   3.563  19.844  0.00  0.00    +0.000 C 
ATOM      3  C   UNL     1       1.553   2.196  20.386  0.00  0.00    +0.000 C 
ATOM      4  O   UNL     1       2.034   3.432  18.424  0.00  0.00    +0.000 OA
ATOM      5  C   UNL     1       2.543   4.591  17.763  0.00  0.00    +0.000 C 
ATOM      6  C   UNL     1       3.904   4.980  18.332  0.00  0.00    +0.000 C 
ATOM      7  C   UNL     1       3.880   5.011  19.852  0.00  0.00    +0.000 C 
ATOM      8  O   UNL     1       3.292   3.821  20.368  0.00  0.00    +0.000 OA
ATOM      9  C   UNL     1       4.441   6.286  17.701  0.00  0.00    +0.000 C 
ATOM     10  N   UNL     1       5.191   5.430  16.802  0.00  0.00    +0.000 N 
ATOM     11  C   UNL     1       5.637   5.703  15.547  0.00  0.00    +0.000 C 
ATOM     12  O   UNL     1       5.427   6.789  15.013  0.00  0.00    +0.000 OA
ATOM     13  N   UNL     1       6.354   4.712  14.945  0.00  0.00    +0.000 N 
ATOM     14  C   UNL     1       5.127   4.272  17.672  0.00  0.00    +0.000 C 
ATOM     15  H   UNL     1       6.306   3.778  15.328  0.00  0.00    +0.000 HD
ENDROOT
BRANCH  13  16
ATOM     16  C   UNL     1       6.841   4.878  13.591  0.00  0.00    +0.000 C 
BRANCH  16  17
ATOM     17  C   UNL     1       6.351   3.783  12.682  0.00  0.00    +0.000 A 
ATOM     18  C   UNL     1       7.240   2.856  12.121  0.00  0.00    +0.000 A 
ATOM     19  C   UNL     1       6.773   1.863  11.255  0.00  0.00    +0.000 A 
ATOM     20  C   UNL     1       5.417   1.789  10.939  0.00  0.00    +0.000 A 
ATOM     21  C   UNL     1       4.522   2.697  11.500  0.00  0.00    +0.000 A 
ATOM     22  C   UNL     1       4.987   3.693  12.363  0.00  0.00    +0.000 A 
ENDBRANCH  16  17
ENDBRANCH  13  16
TORSDOF 2
ENDMDL
MODEL 3
REMARK VINA RESULT:      -7.0      6.155      8.594
REMARK  Name = 
REMARK  4 active torsions:
REMARK  status: ('A' for Active; 'I' for Inactive)
REMARK    1  A    between atoms: C_1  and  C_2
REMARK    2  A    between atoms: C_2  and  C_3
REMARK    3  A    between atoms: N_13  and  C_14
REMARK    4  A    between atoms: C_14  and  C_15
REMARK                            x       y       z     vdW  Elec       q    Type
REMARK                         _______ _______ _______ _____ _____    ______ ____
ROOT
ATOM      1  C   UNL     1      -4.578  11.703  16.716  0.00  0.00    +0.000 C 
ATOM      2  C   UNL     1      -4.329  10.922  18.014  0.00  0.00    +0.000 C 
ATOM      3  C   UNL     1      -5.695  10.579  18.620  0.00  0.00    +0.000 C 
ATOM      4  O   UNL     1      -3.667   9.677  17.792  0.00  0.00    +0.000 OA
ATOM      5  C   UNL     1      -2.320   9.822  17.340  0.00  0.00    +0.000 C 
ATOM      6  C   UNL     1      -1.527  10.710  18.294  0.00  0.00    +0.000 C 
ATOM      7  C   UNL     1      -2.284  11.989  18.618  0.00  0.00    +0.000 C 
ATOM      8  O   UNL     1      -3.625  11.695  18.992  0.00  0.00    +0.000 OA
ATOM      9  C   UNL     1      -0.088  10.963  17.784  0.00  0.00    +0.000 C 
ATOM     10  N   UNL     1       0.309   9.872  18.654  0.00  0.00    +0.000 N 
ATOM     11  C   UNL     1       1.378   9.042  18.538  0.00  0.00    +0.000 C 
ATOM     12  O   UNL     1       2.172   9.143  17.606  0.00  0.00    +0.000 OA
ATOM     13  N   UNL     1       1.525   8.121  19.534  0.00  0.00    +0.000 N 
ATOM     14  C   UNL     1      -0.867   9.970  19.497  0.00  0.00    +0.000 C 
ATOM     15  H   UNL     1       0.738   7.935  20.141  0.00  0.00    +0.000 HD
ENDROOT
BRANCH  13  16
ATOM     16  C   UNL     1       2.604   7.158  19.489  0.00  0.00    +0.000 C 
BRANCH  16  17
ATOM     17  C   UNL     1       2.090   5.747  19.377  0.00  0.00    +0.000 A 
ATOM     18  C   UNL     1       2.087   5.074  18.148  0.00  0.00    +0.000 A 
ATOM     19  C   UNL     1       1.580   3.775  18.053  0.00  0.00    +0.000 A 
ATOM     20  C   UNL     1       1.069   3.139  19.183  0.00  0.00    +0.000 A 
ATOM     21  C   UNL     1       1.078   3.793  20.414  0.00  0.00    +0.000 A 
ATOM     22  C   UNL     1       1.582   5.092  20.509  0.00  0.00    +0.000 A 
ENDBRANCH  16  17
ENDBRANCH  13  16
TORSDOF 2
ENDMDL
MODEL 4
REMARK VINA RESULT:      -6.9      5.933      8.343
REMARK  Name = 
REMARK  4 active torsions:
REMARK  status: ('A' for Active; 'I' for Inactive)
REMARK    1  A    between atoms: C_1  and  C_2
REMARK    2  A    between atoms: C_2  and  C_3
REMARK    3  A    between atoms: N_13  and  C_14
REMARK    4  A    between atoms: C_14  and  C_15
REMARK                            x       y       z     vdW  Elec       q    Type
REMARK                         _______ _______ _______ _____ _____    ______ ____
ROOT
ATOM      1  C   UNL     1      -3.940  11.762  16.581  0.00  0.00    +0.000 C 
ATOM      2  C   UNL     1      -3.837  10.956  17.883  0.00  0.00    +0.000 C 
ATOM      3  C   UNL     1      -5.262  10.685  18.378  0.00  0.00    +0.000 C 
ATOM      4  O   UNL     1      -3.230   9.678  17.696  0.00  0.00    +0.000 OA
ATOM      5  C   UNL     1      -1.846   9.751  17.352  0.00  0.00    +0.000 C 
ATOM      6  C   UNL     1      -1.081  10.584  18.375  0.00  0.00    +0.000 C 
ATOM      7  C   UNL     1      -1.788  11.900  18.657  0.00  0.00    +0.000 C 
ATOM      8  O   UNL     1      -3.169  11.679  18.923  0.00  0.00    +0.000 OA
ATOM      9  C   UNL     1       0.405  10.760  17.981  0.00  0.00    +0.000 C 
ATOM     10  N   UNL     1       0.672   9.641  18.865  0.00  0.00    +0.000 N 
ATOM     11  C   UNL     1       1.700   8.752  18.820  0.00  0.00    +0.000 C 
ATOM     12  O   UNL     1       2.568   8.817  17.953  0.00  0.00    +0.000 OA
ATOM     13  N   UNL     1       1.717   7.816  19.811  0.00  0.00    +0.000 N 
ATOM     14  C   UNL     1      -0.558   9.797  19.616  0.00  0.00    +0.000 C 
ATOM     15  H   UNL     1       0.876   7.669  20.354  0.00  0.00    +0.000 HD
ENDROOT
BRANCH  13  16
ATOM     16  C   UNL     1       2.741   6.793  19.837  0.00  0.00    +0.000 C 
BRANCH  16  17
ATOM     17  C   UNL     1       2.183   5.434  19.510  0.00  0.00    +0.000 A 
ATOM     18  C   UNL     1       1.657   4.608  20.512  0.00  0.00    +0.000 A 
ATOM     19  C   UNL     1       1.169   3.336  20.198  0.00  0.00    +0.000 A 
ATOM     20  C   UNL     1       1.205   2.877  18.882  0.00  0.00    +0.000 A 
ATOM     21  C   UNL     1       1.714   3.695  17.875  0.00  0.00    +0.000 A 
ATOM     22  C   UNL     1       2.205   4.964  18.187  0.00  0.00    +0.000 A 
ENDBRANCH  16  17
ENDBRANCH  13  16
TORSDOF 2
ENDMDL
MODEL 5
REMARK VINA RESULT:      -6.7      5.971      8.345
REMARK  Name = 
REMARK  4 active torsions:
REMARK  status: ('A' for Active; 'I' for Inactive)
REMARK    1  A    between atoms: C_1  and  C_2
REMARK    2  A    between atoms: C_2  and  C_3
REMARK    3  A    between atoms: N_13  and  C_14
REMARK    4  A    between atoms: C_14  and  C_15
REMARK                            x       y       z     vdW  Elec       q    Type
REMARK                         _______ _______ _______ _____ _____    ______ ____
ROOT
ATOM      1  C   UNL     1      -2.131  13.614  20.966  0.00  0.00    +0.000 C 
ATOM      2  C   UNL     1      -1.592  12.407  21.748  0.00  0.00    +0.000 C 
ATOM      3  C   UNL     1      -2.397  12.296  23.048  0.00  0.00    +0.000 C 
ATOM      4  O   UNL     1      -1.778  11.172  21.056  0.00  0.00    +0.000 OA
ATOM      5  C   UNL     1      -0.989  11.060  19.872  0.00  0.00    +0.000 C 
ATOM      6  C   UNL     1       0.484  11.305  20.182  0.00  0.00    +0.000 C 
ATOM      7  C   UNL     1       0.672  12.564  21.015  0.00  0.00    +0.000 C 
ATOM      8  O   UNL     1      -0.220  12.567  22.124  0.00  0.00    +0.000 OA
ATOM      9  C   UNL     1       1.355  11.282  18.903  0.00  0.00    +0.000 C 
ATOM     10  N   UNL     1       1.635   9.898  19.236  0.00  0.00    +0.000 N 
ATOM     11  C   UNL     1       1.980   8.880  18.403  0.00  0.00    +0.000 C 
ATOM     12  O   UNL     1       2.092   9.051  17.192  0.00  0.00    +0.000 OA
ATOM     13  N   UNL     1       2.222   7.679  19.005  0.00  0.00    +0.000 N 
ATOM     14  C   UNL     1       1.286  10.047  20.635  0.00  0.00    +0.000 C 
ATOM     15  H   UNL     1       1.902   7.540  19.953  0.00  0.00    +0.000 HD
ENDROOT
BRANCH  13  16
ATOM     16  C   UNL     1       2.554   6.515  18.210  0.00  0.00    +0.000 C 
BRANCH  16  17
ATOM     17  C   UNL     1       1.985   5.254  18.802  0.00  0.00    +0.000 A 
ATOM     18  C   UNL     1       1.825   5.112  20.187  0.00  0.00    +0.000 A 
ATOM     19  C   UNL     1       1.323   3.923  20.724  0.00  0.00    +0.000 A 
ATOM     20  C   UNL     1       0.980   2.865  19.883  0.00  0.00    +0.000 A 
ATOM     21  C   UNL     1       1.123   2.998  18.504  0.00  0.00    +0.000 A 
ATOM     22  C   UNL     1       1.627   4.185  17.966  0.00  0.00    +0.000 A 
ENDBRANCH  16  17
ENDBRANCH  13  16
TORSDOF 2
ENDMDL
MODEL 6
REMARK VINA RESULT:      -6.7      5.856      8.244
REMARK  Name = 
REMARK  4 active torsions:
REMARK  status: ('A' for Active; 'I' for Inactive)
REMARK    1  A    between atoms: C_1  and  C_2
REMARK    2  A    between atoms: C_2  and  C_3
REMARK    3  A    between atoms: N_13  and  C_14
REMARK    4  A    between atoms: C_14  and  C_15
REMARK                            x       y       z     vdW  Elec       q    Type
REMARK                         _______ _______ _______ _____ _____    ______ ____
ROOT
ATOM      1  C   UNL     1      -2.006  13.493  20.946  0.00  0.00    +0.000 C 
ATOM      2  C   UNL     1      -1.421  12.310  21.731  0.00  0.00    +0.000 C 
ATOM      3  C   UNL     1      -2.172  12.220  23.064  0.00  0.00    +0.000 C 
ATOM      4  O   UNL     1      -1.621  11.058  21.075  0.00  0.00    +0.000 OA
ATOM      5  C   UNL     1      -0.880  10.928  19.861  0.00  0.00    +0.000 C 
ATOM      6  C   UNL     1       0.602  11.196  20.106  0.00  0.00    +0.000 C 
ATOM      7  C   UNL     1       0.809  12.474  20.903  0.00  0.00    +0.000 C 
ATOM      8  O   UNL     1      -0.037  12.493  22.047  0.00  0.00    +0.000 OA
ATOM      9  C   UNL     1       1.420  11.153  18.793  0.00  0.00    +0.000 C 
ATOM     10  N   UNL     1       1.729   9.780  19.144  0.00  0.00    +0.000 N 
ATOM     11  C   UNL     1       2.052   8.747  18.321  0.00  0.00    +0.000 C 
ATOM     12  O   UNL     1       2.113   8.892  17.103  0.00  0.00    +0.000 OA
ATOM     13  N   UNL     1       2.331   7.563  18.938  0.00  0.00    +0.000 N 
ATOM     14  C   UNL     1       1.436   9.956  20.553  0.00  0.00    +0.000 C 
ATOM     15  H   UNL     1       2.052   7.441  19.901  0.00  0.00    +0.000 HD
ENDROOT
BRANCH  13  16
ATOM     16  C   UNL     1       2.644   6.385  18.156  0.00  0.00    +0.000 C 
BRANCH  16  17
ATOM     17  C   UNL     1       2.032   5.143  18.746  0.00  0.00    +0.000 A 
ATOM     18  C   UNL     1       1.694   4.049  17.938  0.00  0.00    +0.000 A 
ATOM     19  C   UNL     1       1.099   2.914  18.496  0.00  0.00    +0.000 A 
ATOM     20  C   UNL     1       0.834   2.863  19.864  0.00  0.00    +0.000 A 
ATOM     21  C   UNL     1       1.177   3.939  20.679  0.00  0.00    +0.000 A 
ATOM     22  C   UNL     1       1.769   5.075  20.123  0.00  0.00    +0.000 A 
ENDBRANCH  16  17
ENDBRANCH  13  16
TORSDOF 2
ENDMDL
MODEL 7
REMARK VINA RESULT:      -6.5      4.017      6.635
REMARK  Name = 
REMARK  4 active torsions:
REMARK  status: ('A' for Active; 'I' for Inactive)
REMARK    1  A    between atoms: C_1  and  C_2
REMARK    2  A    between atoms: C_2  and  C_3
REMARK    3  A    between atoms: N_13  and  C_14
REMARK    4  A    between atoms: C_14  and  C_15
REMARK                            x       y       z     vdW  Elec       q    Type
REMARK                         _______ _______ _______ _____ _____    ______ ____
ROOT
ATOM      1  C   UNL     1       2.139   2.353  19.053  0.00  0.00    +0.000 C 
ATOM      2  C   UNL     1       2.457   3.657  19.797  0.00  0.00    +0.000 C 
ATOM      3  C   UNL     1       1.813   3.570  21.185  0.00  0.00    +0.000 C 
ATOM      4  O   UNL     1       3.855   3.842  20.017  0.00  0.00    +0.000 OA
ATOM      5  C   UNL     1       4.594   4.067  18.816  0.00  0.00    +0.000 C 
ATOM      6  C   UNL     1       3.998   5.230  18.029  0.00  0.00    +0.000 C 
ATOM      7  C   UNL     1       2.490   5.089  17.890  0.00  0.00    +0.000 C 
ATOM      8  O   UNL     1       1.896   4.806  19.153  0.00  0.00    +0.000 OA
ATOM      9  C   UNL     1       4.719   5.441  16.677  0.00  0.00    +0.000 C 
ATOM     10  N   UNL     1       5.499   6.456  17.361  0.00  0.00    +0.000 N 
ATOM     11  C   UNL     1       6.750   6.901  17.072  0.00  0.00    +0.000 C 
ATOM     12  O   UNL     1       7.391   6.447  16.128  0.00  0.00    +0.000 OA
ATOM     13  N   UNL     1       7.223   7.899  17.872  0.00  0.00    +0.000 N 
ATOM     14  C   UNL     1       4.530   6.642  18.423  0.00  0.00    +0.000 C 
ATOM     15  H   UNL     1       6.758   8.076  18.752  0.00  0.00    +0.000 HD
ENDROOT
BRANCH  13  16
ATOM     16  C   UNL     1       8.561   8.420  17.682  0.00  0.00    +0.000 C 
BRANCH  16  17
ATOM     17  C   UNL     1       8.729   9.775  18.314  0.00  0.00    +0.000 A 
ATOM     18  C   UNL     1       8.497  10.948  17.583  0.00  0.00    +0.000 A 
ATOM     19  C   UNL     1       8.685  12.200  18.175  0.00  0.00    +0.000 A 
ATOM     20  C   UNL     1       9.110  12.292  19.500  0.00  0.00    +0.000 A 
ATOM     21  C   UNL     1       9.332  11.133  20.241  0.00  0.00    +0.000 A 
ATOM     22  C   UNL     1       9.147   9.881  19.650  0.00  0.00    +0.000 A 
ENDBRANCH  16  17
ENDBRANCH  13  16
TORSDOF 2
ENDMDL
MODEL 8
REMARK VINA RESULT:      -6.5      1.155      1.664
REMARK  Name = 
REMARK  4 active torsions:
REMARK  status: ('A' for Active; 'I' for Inactive)
REMARK    1  A    between atoms: C_1  and  C_2
REMARK    2  A    between atoms: C_2  and  C_3
REMARK    3  A    between atoms: N_13  and  C_14
REMARK    4  A    between atoms: C_14  and  C_15
REMARK                            x       y       z     vdW  Elec       q    Type
REMARK                         _______ _______ _______ _____ _____    ______ ____
ROOT
ATOM      1  C   UNL     1       2.035   6.474  20.652  0.00  0.00    +0.000 C 
ATOM      2  C   UNL     1       2.093   5.159  19.862  0.00  0.00    +0.000 C 
ATOM      3  C   UNL     1       0.795   4.392  20.138  0.00  0.00    +0.000 C 
ATOM      4  O   UNL     1       2.143   5.363  18.450  0.00  0.00    +0.000 OA
ATOM      5  C   UNL     1       3.362   5.961  18.005  0.00  0.00    +0.000 C 
ATOM      6  C   UNL     1       4.563   5.158  18.493  0.00  0.00    +0.000 C 
ATOM      7  C   UNL     1       4.454   4.845  19.977  0.00  0.00    +0.000 C 
ATOM      8  O   UNL     1       3.170   4.314  20.283  0.00  0.00    +0.000 OA
ATOM      9  C   UNL     1       5.902   5.831  18.106  0.00  0.00    +0.000 C 
ATOM     10  N   UNL     1       5.912   4.934  16.966  0.00  0.00    +0.000 N 
ATOM     11  C   UNL     1       6.515   5.104  15.759  0.00  0.00    +0.000 C 
ATOM     12  O   UNL     1       7.157   6.118  15.500  0.00  0.00    +0.000 OA
ATOM     13  N   UNL     1       6.385   4.068  14.881  0.00  0.00    +0.000 N 
ATOM     14  C   UNL     1       4.997   3.982  17.566  0.00  0.00    +0.000 C 
ATOM     15  H   UNL     1       5.674   3.372  15.056  0.00  0.00    +0.000 HD
ENDROOT
BRANCH  13  16
ATOM     16  C   UNL     1       6.950   4.160  13.552  0.00  0.00    +0.000 C 
BRANCH  16  17
ATOM     17  C   UNL     1       6.140   3.387  12.545  0.00  0.00    +0.000 A 
ATOM     18  C   UNL     1       6.675   2.269  11.891  0.00  0.00    +0.000 A 
ATOM     19  C   UNL     1       5.921   1.580  10.937  0.00  0.00    +0.000 A 
ATOM     20  C   UNL     1       4.629   2.001  10.627  0.00  0.00    +0.000 A 
ATOM     21  C   UNL     1       4.082   3.104  11.280  0.00  0.00    +0.000 A 
ATOM     22  C   UNL     1       4.835   3.796  12.231  0.00  0.00    +0.000 A 
ENDBRANCH  16  17
ENDBRANCH  13  16
TORSDOF 2
ENDMDL
MODEL 9
REMARK VINA RESULT:      -6.5      6.161      9.085
REMARK  Name = 
REMARK  4 active torsions:
REMARK  status: ('A' for Active; 'I' for Inactive)
REMARK    1  A    between atoms: C_1  and  C_2
REMARK    2  A    between atoms: C_2  and  C_3
REMARK    3  A    between atoms: N_13  and  C_14
REMARK    4  A    between atoms: C_14  and  C_15
REMARK                            x       y       z     vdW  Elec       q    Type
REMARK                         _______ _______ _______ _____ _____    ______ ____
ROOT
ATOM      1  C   UNL     1       0.296  15.127  19.955  0.00  0.00    +0.000 C 
ATOM      2  C   UNL     1       1.259  14.238  19.155  0.00  0.00    +0.000 C 
ATOM      3  C   UNL     1       2.267  15.156  18.454  0.00  0.00    +0.000 C 
ATOM      4  O   UNL     1       2.024  13.364  19.985  0.00  0.00    +0.000 OA
ATOM      5  C   UNL     1       1.241  12.354  20.621  0.00  0.00    +0.000 C 
ATOM      6  C   UNL     1       0.432  11.573  19.590  0.00  0.00    +0.000 C 
ATOM      7  C   UNL     1      -0.297  12.507  18.635  0.00  0.00    +0.000 C 
ATOM      8  O   UNL     1       0.592  13.496  18.128  0.00  0.00    +0.000 OA
ATOM      9  C   UNL     1      -0.499  10.532  20.256  0.00  0.00    +0.000 C 
ATOM     10  N   UNL     1       0.552   9.567  19.991  0.00  0.00    +0.000 N 
ATOM     11  C   UNL     1       0.827   8.411  20.651  0.00  0.00    +0.000 C 
ATOM     12  O   UNL     1       0.158   8.047  21.615  0.00  0.00    +0.000 OA
ATOM     13  N   UNL     1       1.863   7.677  20.153  0.00  0.00    +0.000 N 
ATOM     14  C   UNL     1       1.170  10.360  18.946  0.00  0.00    +0.000 C 
ATOM     15  H   UNL     1       2.509   8.120  19.515  0.00  0.00    +0.000 HD
ENDROOT
BRANCH  13  16
ATOM     16  C   UNL     1       2.272   6.449  20.804  0.00  0.00    +0.000 C 
BRANCH  16  17
ATOM     17  C   UNL     1       1.857   5.235  20.019  0.00  0.00    +0.000 A 
ATOM     18  C   UNL     1       1.246   4.141  20.647  0.00  0.00    +0.000 A 
ATOM     19  C   UNL     1       0.894   3.007  19.909  0.00  0.00    +0.000 A 
ATOM     20  C   UNL     1       1.150   2.955  18.539  0.00  0.00    +0.000 A 
ATOM     21  C   UNL     1       1.745   4.041  17.901  0.00  0.00    +0.000 A 
ATOM     22  C   UNL     1       2.101   5.173  18.638  0.00  0.00    +0.000 A 
ENDBRANCH  16  17
ENDBRANCH  13  16
TORSDOF 2
ENDMDL
