MODEL 1
REMARK VINA RESULT:      -6.8      0.000      0.000
REMARK  Name = 
REMARK  8 active torsions:
REMARK  status: ('A' for Active; 'I' for Inactive)
REMARK    1  A    between atoms: C_2  and  C_3
REMARK    2  A    between atoms: C_2  and  C_5
REMARK    3  A    between atoms: C_3  and  O_4
REMARK    4  A    between atoms: C_19  and  O_20
REMARK    5  A    between atoms: O_20  and  C_21
REMARK    6  A    between atoms: C_22  and  O_23
REMARK    7  A    between atoms: O_23  and  C_24
REMARK    8  A    between atoms: C_28  and  O_29
REMARK                            x       y       z     vdW  Elec       q    Type
REMARK                         _______ _______ _______ _____ _____    ______ ____
ROOT
ATOM      1  C   UNL     1       3.769  15.166  18.703  0.00  0.00    +0.000 C 
ATOM      2  C   UNL     1       3.037  13.810  18.786  0.00  0.00    +0.000 C 
ATOM      3  C   UNL     1       1.679  14.304  19.120  0.00  0.00    +0.000 A 
ATOM      4  C   UNL     1       1.597  15.642  18.764  0.00  0.00    +0.000 A 
ATOM      5  C   UNL     1       0.443  16.374  18.917  0.00  0.00    +0.000 A 
ATOM      6  C   UNL     1      -0.654  15.724  19.480  0.00  0.00    +0.000 A 
ATOM      7  C   UNL     1      -0.590  14.357  19.851  0.00  0.00    +0.000 A 
ATOM      8  C   UNL     1       0.602  13.649  19.683  0.00  0.00    +0.000 A 
ATOM      9  O   UNL     1       0.780  12.354  20.053  0.00  0.00    +0.000 OA
ATOM     10  C   UNL     1      -0.254  11.750  20.853  0.00  0.00    +0.000 C 
ATOM     11  C   UNL     1      -0.108  10.237  20.701  0.00  0.00    +0.000 C 
ATOM     12  O   UNL     1      -0.264   9.815  19.339  0.00  0.00    +0.000 OA
ATOM     13  C   UNL     1      -1.328  10.370  18.682  0.00  0.00    +0.000 A 
ATOM     14  C   UNL     1      -1.648   9.815  17.442  0.00  0.00    +0.000 A 
ATOM     15  C   UNL     1      -2.745  10.249  16.660  0.00  0.00    +0.000 A 
ATOM     16  C   UNL     1      -3.571  11.236  17.189  0.00  0.00    +0.000 A 
ATOM     17  C   UNL     1      -3.221  11.769  18.454  0.00  0.00    +0.000 A 
ATOM     18  C   UNL     1      -2.069  11.435  19.171  0.00  0.00    +0.000 A 
ATOM     19  C   UNL     1      -1.687  12.141  20.456  0.00  0.00    +0.000 C 
ATOM     20  C   UNL     1      -1.762  13.688  20.514  0.00  0.00    +0.000 C 
ATOM     21  O   UNL     1       2.781  16.162  18.301  0.00  0.00    +0.000 OA
ENDROOT
BRANCH   1  23
ATOM     22  C   UNL     1       4.748  14.894  21.028  0.00  0.00    +0.000 C 
ATOM     23  C   UNL     1       4.467  15.667  19.975  0.00  0.00    +0.000 C 
BRANCH  23  24
ATOM     24  C   UNL     1       4.831  17.139  19.924  0.00  0.00    +0.000 C 
BRANCH  24  25
ATOM     25  O   UNL     1       5.422  17.492  18.678  0.00  0.00    +0.000 OA
ATOM     26  H   UNL     1       5.651  16.657  18.235  0.00  0.00    +0.000 HD
ENDBRANCH  24  25
ENDBRANCH  23  24
ENDBRANCH   1  23
BRANCH  15  27
ATOM     27  O   UNL     1      -2.690   9.648  15.437  0.00  0.00    +0.000 OA
ATOM     28  C   UNL     1      -3.299  10.208  14.297  0.00  0.00    +0.000 C 
ENDBRANCH  15  27
BRANCH  16  29
ATOM     29  O   UNL     1      -4.656  11.934  16.776  0.00  0.00    +0.000 OA
ATOM     30  C   UNL     1      -5.851  12.139  17.480  0.00  0.00    +0.000 C 
ENDBRANCH  16  29
BRANCH  20  31
ATOM     31  O   UNL     1      -2.993  14.208  20.027  0.00  0.00    +0.000 OA
ATOM     32  H   UNL     1      -2.834  14.497  19.106  0.00  0.00    +0.000 HD
ENDBRANCH  20  31
TORSDOF 6
ENDMDL
MODEL 2
REMARK VINA RESULT:      -6.4      0.910      1.224
REMARK  Name = 
REMARK  8 active torsions:
REMARK  status: ('A' for Active; 'I' for Inactive)
REMARK    1  A    between atoms: C_2  and  C_3
REMARK    2  A    between atoms: C_2  and  C_5
REMARK    3  A    between atoms: C_3  and  O_4
REMARK    4  A    between atoms: C_19  and  O_20
REMARK    5  A    between atoms: O_20  and  C_21
REMARK    6  A    between atoms: C_22  and  O_23
REMARK    7  A    between atoms: O_23  and  C_24
REMARK    8  A    between atoms: C_28  and  O_29
REMARK                            x       y       z     vdW  Elec       q    Type
REMARK                         _______ _______ _______ _____ _____    ______ ____
ROOT
ATOM      1  C   UNL     1       3.466  15.459  19.234  0.00  0.00    +0.000 C 
ATOM      2  C   UNL     1       2.809  14.064  19.175  0.00  0.00    +0.000 C 
ATOM      3  C   UNL     1       1.413  14.457  19.484  0.00  0.00    +0.000 A 
ATOM      4  C   UNL     1       1.270  15.813  19.233  0.00  0.00    +0.000 A 
ATOM      5  C   UNL     1       0.071  16.468  19.389  0.00  0.00    +0.000 A 
ATOM      6  C   UNL     1      -1.010  15.717  19.847  0.00  0.00    +0.000 A 
ATOM      7  C   UNL     1      -0.884  14.330  20.112  0.00  0.00    +0.000 A 
ATOM      8  C   UNL     1       0.352  13.701  19.943  0.00  0.00    +0.000 A 
ATOM      9  O   UNL     1       0.587  12.392  20.217  0.00  0.00    +0.000 OA
ATOM     10  C   UNL     1      -0.444  11.671  20.918  0.00  0.00    +0.000 C 
ATOM     11  C   UNL     1      -0.207  10.185  20.654  0.00  0.00    +0.000 C 
ATOM     12  O   UNL     1      -0.282   9.868  19.256  0.00  0.00    +0.000 OA
ATOM     13  C   UNL     1      -1.347  10.418  18.598  0.00  0.00    +0.000 A 
ATOM     14  C   UNL     1      -1.584   9.950  17.304  0.00  0.00    +0.000 A 
ATOM     15  C   UNL     1      -2.669  10.388  16.508  0.00  0.00    +0.000 A 
ATOM     16  C   UNL     1      -3.571  11.284  17.075  0.00  0.00    +0.000 A 
ATOM     17  C   UNL     1      -3.305  11.729  18.394  0.00  0.00    +0.000 A 
ATOM     18  C   UNL     1      -2.167  11.399  19.135  0.00  0.00    +0.000 A 
ATOM     19  C   UNL     1      -1.879  12.017  20.487  0.00  0.00    +0.000 C 
ATOM     20  C   UNL     1      -2.043  13.547  20.664  0.00  0.00    +0.000 C 
ATOM     21  O   UNL     1       2.441  16.431  18.867  0.00  0.00    +0.000 OA
ENDROOT
BRANCH   1  23
ATOM     22  C   UNL     1       4.325  17.160  20.909  0.00  0.00    +0.000 C 
ATOM     23  C   UNL     1       4.081  15.890  20.572  0.00  0.00    +0.000 C 
BRANCH  23  24
ATOM     24  C   UNL     1       4.378  14.728  21.502  0.00  0.00    +0.000 C 
BRANCH  24  25
ATOM     25  O   UNL     1       3.473  14.687  22.599  0.00  0.00    +0.000 OA
ATOM     26  H   UNL     1       2.700  15.217  22.339  0.00  0.00    +0.000 HD
ENDBRANCH  24  25
ENDBRANCH  23  24
ENDBRANCH   1  23
BRANCH  15  27
ATOM     27  O   UNL     1      -2.529   9.893  15.246  0.00  0.00    +0.000 OA
ATOM     28  C   UNL     1      -3.496  10.107  14.244  0.00  0.00    +0.000 C 
ENDBRANCH  15  27
BRANCH  16  29
ATOM     29  O   UNL     1      -4.676  11.954  16.669  0.00  0.00    +0.000 OA
ATOM     30  C   UNL     1      -5.851  12.177  17.402  0.00  0.00    +0.000 C 
ENDBRANCH  16  29
BRANCH  20  31
ATOM     31  O   UNL     1      -3.281  14.040  20.164  0.00  0.00    +0.000 OA
ATOM     32  H   UNL     1      -3.754  14.437  20.924  0.00  0.00    +0.000 HD
ENDBRANCH  20  31
TORSDOF 6
ENDMDL
MODEL 3
REMARK VINA RESULT:      -6.2      1.037      1.093
REMARK  Name = 
REMARK  8 active torsions:
REMARK  status: ('A' for Active; 'I' for Inactive)
REMARK    1  A    between atoms: C_2  and  C_3
REMARK    2  A    between atoms: C_2  and  C_5
REMARK    3  A    between atoms: C_3  and  O_4
REMARK    4  A    between atoms: C_19  and  O_20
REMARK    5  A    between atoms: O_20  and  C_21
REMARK    6  A    between atoms: C_22  and  O_23
REMARK    7  A    between atoms: O_23  and  C_24
REMARK    8  A    between atoms: C_28  and  O_29
REMARK                            x       y       z     vdW  Elec       q    Type
REMARK                         _______ _______ _______ _____ _____    ______ ____
ROOT
ATOM      1  C   UNL     1       3.715  15.461  17.785  0.00  0.00    +0.000 C 
ATOM      2  C   UNL     1       3.011  14.092  17.673  0.00  0.00    +0.000 C 
ATOM      3  C   UNL     1       1.906  14.325  18.634  0.00  0.00    +0.000 A 
ATOM      4  C   UNL     1       1.754  15.693  18.808  0.00  0.00    +0.000 A 
ATOM      5  C   UNL     1       0.778  16.227  19.616  0.00  0.00    +0.000 A 
ATOM      6  C   UNL     1      -0.049  15.333  20.293  0.00  0.00    +0.000 A 
ATOM      7  C   UNL     1       0.092  13.931  20.130  0.00  0.00    +0.000 A 
ATOM      8  C   UNL     1       1.098  13.427  19.302  0.00  0.00    +0.000 A 
ATOM      9  O   UNL     1       1.346  12.105  19.120  0.00  0.00    +0.000 OA
ATOM     10  C   UNL     1       0.669  11.181  19.994  0.00  0.00    +0.000 C 
ATOM     11  C   UNL     1       0.680   9.821  19.299  0.00  0.00    +0.000 C 
ATOM     12  O   UNL     1      -0.002   9.856  18.037  0.00  0.00    +0.000 OA
ATOM     13  C   UNL     1      -1.210  10.496  18.053  0.00  0.00    +0.000 A 
ATOM     14  C   UNL     1      -2.004  10.351  16.914  0.00  0.00    +0.000 A 
ATOM     15  C   UNL     1      -3.295  10.916  16.792  0.00  0.00    +0.000 A 
ATOM     16  C   UNL     1      -3.813  11.597  17.890  0.00  0.00    +0.000 A 
ATOM     17  C   UNL     1      -2.984  11.716  19.033  0.00  0.00    +0.000 A 
ATOM     18  C   UNL     1      -1.662  11.271  19.111  0.00  0.00    +0.000 A 
ATOM     19  C   UNL     1      -0.788  11.550  20.317  0.00  0.00    +0.000 C 
ATOM     20  C   UNL     1      -0.767  12.979  20.915  0.00  0.00    +0.000 C 
ATOM     21  O   UNL     1       2.693  16.440  18.140  0.00  0.00    +0.000 OA
ENDROOT
BRANCH   1  23
ATOM     22  C   UNL     1       5.958  14.810  18.773  0.00  0.00    +0.000 C 
ATOM     23  C   UNL     1       4.866  15.579  18.792  0.00  0.00    +0.000 C 
BRANCH  23  24
ATOM     24  C   UNL     1       4.658  16.676  19.820  0.00  0.00    +0.000 C 
BRANCH  24  25
ATOM     25  O   UNL     1       5.178  17.923  19.371  0.00  0.00    +0.000 OA
ATOM     26  H   UNL     1       5.099  18.540  20.119  0.00  0.00    +0.000 HD
ENDBRANCH  24  25
ENDBRANCH  23  24
ENDBRANCH   1  23
BRANCH  15  27
ATOM     27  O   UNL     1      -3.737  10.756  15.512  0.00  0.00    +0.000 OA
ATOM     28  C   UNL     1      -2.995  10.051  14.544  0.00  0.00    +0.000 C 
ENDBRANCH  15  27
BRANCH  16  29
ATOM     29  O   UNL     1      -4.942  12.291  18.172  0.00  0.00    +0.000 OA
ATOM     30  C   UNL     1      -6.027  12.531  17.317  0.00  0.00    +0.000 C 
ENDBRANCH  16  29
BRANCH  20  31
ATOM     31  O   UNL     1      -2.067  13.517  21.129  0.00  0.00    +0.000 OA
ATOM     32  H   UNL     1      -2.622  12.787  21.472  0.00  0.00    +0.000 HD
ENDBRANCH  20  31
TORSDOF 6
ENDMDL
MODEL 4
REMARK VINA RESULT:      -6.0      1.871      7.848
REMARK  Name = 
REMARK  8 active torsions:
REMARK  status: ('A' for Active; 'I' for Inactive)
REMARK    1  A    between atoms: C_2  and  C_3
REMARK    2  A    between atoms: C_2  and  C_5
REMARK    3  A    between atoms: C_3  and  O_4
REMARK    4  A    between atoms: C_19  and  O_20
REMARK    5  A    between atoms: O_20  and  C_21
REMARK    6  A    between atoms: C_22  and  O_23
REMARK    7  A    between atoms: O_23  and  C_24
REMARK    8  A    between atoms: C_28  and  O_29
REMARK                            x       y       z     vdW  Elec       q    Type
REMARK                         _______ _______ _______ _____ _____    ______ ____
ROOT
ATOM      1  C   UNL     1      -6.086  11.634  18.276  0.00  0.00    +0.000 C 
ATOM      2  C   UNL     1      -5.246  12.726  18.972  0.00  0.00    +0.000 C 
ATOM      3  C   UNL     1      -3.935  12.033  18.982  0.00  0.00    +0.000 A 
ATOM      4  C   UNL     1      -3.960  11.027  18.026  0.00  0.00    +0.000 A 
ATOM      5  C   UNL     1      -2.871  10.229  17.771  0.00  0.00    +0.000 A 
ATOM      6  C   UNL     1      -1.727  10.445  18.537  0.00  0.00    +0.000 A 
ATOM      7  C   UNL     1      -1.682  11.467  19.519  0.00  0.00    +0.000 A 
ATOM      8  C   UNL     1      -2.811  12.255  19.752  0.00  0.00    +0.000 A 
ATOM      9  O   UNL     1      -2.884  13.223  20.703  0.00  0.00    +0.000 OA
ATOM     10  C   UNL     1      -1.809  13.291  21.658  0.00  0.00    +0.000 C 
ATOM     11  C   UNL     1      -1.830  14.697  22.253  0.00  0.00    +0.000 C 
ATOM     12  O   UNL     1      -1.632  15.708  21.255  0.00  0.00    +0.000 OA
ATOM     13  C   UNL     1      -0.614  15.459  20.377  0.00  0.00    +0.000 A 
ATOM     14  C   UNL     1      -0.242  16.515  19.543  0.00  0.00    +0.000 A 
ATOM     15  C   UNL     1       0.819  16.430  18.611  0.00  0.00    +0.000 A 
ATOM     16  C   UNL     1       1.560  15.251  18.574  0.00  0.00    +0.000 A 
ATOM     17  C   UNL     1       1.160  14.204  19.442  0.00  0.00    +0.000 A 
ATOM     18  C   UNL     1       0.035  14.238  20.270  0.00  0.00    +0.000 A 
ATOM     19  C   UNL     1      -0.410  13.032  21.073  0.00  0.00    +0.000 C 
ATOM     20  C   UNL     1      -0.463  11.647  20.381  0.00  0.00    +0.000 C 
ATOM     21  O   UNL     1      -5.180  10.883  17.412  0.00  0.00    +0.000 OA
ENDROOT
BRANCH   1  23
ATOM     22  C   UNL     1      -6.793   9.313  19.015  0.00  0.00    +0.000 C 
ATOM     23  C   UNL     1      -6.829  10.639  19.176  0.00  0.00    +0.000 C 
BRANCH  23  24
ATOM     24  C   UNL     1      -7.611  11.304  20.294  0.00  0.00    +0.000 C 
BRANCH  24  25
ATOM     25  O   UNL     1      -7.165  10.872  21.575  0.00  0.00    +0.000 OA
ATOM     26  H   UNL     1      -7.800  11.225  22.222  0.00  0.00    +0.000 HD
ENDBRANCH  24  25
ENDBRANCH  23  24
ENDBRANCH   1  23
BRANCH  15  27
ATOM     27  O   UNL     1       0.820  17.545  17.828  0.00  0.00    +0.000 OA
ATOM     28  C   UNL     1      -0.370  18.145  17.373  0.00  0.00    +0.000 C 
ENDBRANCH  15  27
BRANCH  16  29
ATOM     29  O   UNL     1       2.586  14.759  17.841  0.00  0.00    +0.000 OA
ATOM     30  C   UNL     1       3.750  15.435  17.449  0.00  0.00    +0.000 C 
ENDBRANCH  16  29
BRANCH  20  31
ATOM     31  O   UNL     1       0.725  11.334  19.662  0.00  0.00    +0.000 OA
ATOM     32  H   UNL     1       1.453  11.828  20.091  0.00  0.00    +0.000 HD
ENDBRANCH  20  31
TORSDOF 6
ENDMDL
MODEL 5
REMARK VINA RESULT:      -5.8      2.086      7.906
REMARK  Name = 
REMARK  8 active torsions:
REMARK  status: ('A' for Active; 'I' for Inactive)
REMARK    1  A    between atoms: C_2  and  C_3
REMARK    2  A    between atoms: C_2  and  C_5
REMARK    3  A    between atoms: C_3  and  O_4
REMARK    4  A    between atoms: C_19  and  O_20
REMARK    5  A    between atoms: O_20  and  C_21
REMARK    6  A    between atoms: C_22  and  O_23
REMARK    7  A    between atoms: O_23  and  C_24
REMARK    8  A    between atoms: C_28  and  O_29
REMARK                            x       y       z     vdW  Elec       q    Type
REMARK                         _______ _______ _______ _____ _____    ______ ____
ROOT
ATOM      1  C   UNL     1      -5.997  12.392  19.100  0.00  0.00    +0.000 C 
ATOM      2  C   UNL     1      -5.001  13.148  20.005  0.00  0.00    +0.000 C 
ATOM      3  C   UNL     1      -3.774  12.378  19.687  0.00  0.00    +0.000 A 
ATOM      4  C   UNL     1      -3.970  11.715  18.484  0.00  0.00    +0.000 A 
ATOM      5  C   UNL     1      -2.991  10.943  17.903  0.00  0.00    +0.000 A 
ATOM      6  C   UNL     1      -1.784  10.822  18.589  0.00  0.00    +0.000 A 
ATOM      7  C   UNL     1      -1.565  11.491  19.820  0.00  0.00    +0.000 A 
ATOM      8  C   UNL     1      -2.586  12.263  20.380  0.00  0.00    +0.000 A 
ATOM      9  O   UNL     1      -2.493  12.900  21.576  0.00  0.00    +0.000 OA
ATOM     10  C   UNL     1      -1.357  12.586  22.403  0.00  0.00    +0.000 C 
ATOM     11  C   UNL     1      -1.188  13.742  23.386  0.00  0.00    +0.000 C 
ATOM     12  O   UNL     1      -0.948  14.989  22.716  0.00  0.00    +0.000 OA
ATOM     13  C   UNL     1      -0.021  14.933  21.712  0.00  0.00    +0.000 A 
ATOM     14  C   UNL     1       0.407  16.157  21.196  0.00  0.00    +0.000 A 
ATOM     15  C   UNL     1       1.391  16.270  20.185  0.00  0.00    +0.000 A 
ATOM     16  C   UNL     1       1.996  15.101  19.733  0.00  0.00    +0.000 A 
ATOM     17  C   UNL     1       1.544  13.877  20.286  0.00  0.00    +0.000 A 
ATOM     18  C   UNL     1       0.485  13.752  21.190  0.00  0.00    +0.000 A 
ATOM     19  C   UNL     1      -0.035  12.401  21.639  0.00  0.00    +0.000 C 
ATOM     20  C   UNL     1      -0.281  11.300  20.578  0.00  0.00    +0.000 C 
ATOM     21  O   UNL     1      -5.235  11.865  17.973  0.00  0.00    +0.000 OA
ENDROOT
BRANCH   1  23
ATOM     22  C   UNL     1      -7.408  11.313  20.910  0.00  0.00    +0.000 C 
ATOM     23  C   UNL     1      -6.783  11.236  19.732  0.00  0.00    +0.000 C 
BRANCH  23  24
ATOM     24  C   UNL     1      -6.802   9.981  18.878  0.00  0.00    +0.000 C 
BRANCH  24  25
ATOM     25  O   UNL     1      -7.551   8.939  19.493  0.00  0.00    +0.000 OA
ATOM     26  H   UNL     1      -7.925   9.312  20.309  0.00  0.00    +0.000 HD
ENDBRANCH  24  25
ENDBRANCH  23  24
ENDBRANCH   1  23
BRANCH  15  27
ATOM     27  O   UNL     1       1.461  17.566  19.769  0.00  0.00    +0.000 OA
ATOM     28  C   UNL     1       0.748  18.035  18.648  0.00  0.00    +0.000 C 
ENDBRANCH  15  27
BRANCH  16  29
ATOM     29  O   UNL     1       2.914  14.770  18.794  0.00  0.00    +0.000 OA
ATOM     30  C   UNL     1       3.102  13.515  18.196  0.00  0.00    +0.000 C 
ENDBRANCH  16  29
BRANCH  20  31
ATOM     31  O   UNL     1       0.817  11.121  19.691  0.00  0.00    +0.000 OA
ATOM     32  H   UNL     1       0.442  11.030  18.791  0.00  0.00    +0.000 HD
ENDBRANCH  20  31
TORSDOF 6
ENDMDL
MODEL 6
REMARK VINA RESULT:      -5.7      3.697      6.251
REMARK  Name = 
REMARK  8 active torsions:
REMARK  status: ('A' for Active; 'I' for Inactive)
REMARK    1  A    between atoms: C_2  and  C_3
REMARK    2  A    between atoms: C_2  and  C_5
REMARK    3  A    between atoms: C_3  and  O_4
REMARK    4  A    between atoms: C_19  and  O_20
REMARK    5  A    between atoms: O_20  and  C_21
REMARK    6  A    between atoms: C_22  and  O_23
REMARK    7  A    between atoms: O_23  and  C_24
REMARK    8  A    between atoms: C_28  and  O_29
REMARK                            x       y       z     vdW  Elec       q    Type
REMARK                         _______ _______ _______ _____ _____    ______ ____
ROOT
ATOM      1  C   UNL     1      -0.151  11.701  18.725  0.00  0.00    +0.000 C 
ATOM      2  C   UNL     1      -1.568  11.913  18.149  0.00  0.00    +0.000 C 
ATOM      3  C   UNL     1      -2.265  12.301  19.399  0.00  0.00    +0.000 A 
ATOM      4  C   UNL     1      -1.318  12.720  20.322  0.00  0.00    +0.000 A 
ATOM      5  C   UNL     1      -1.661  13.180  21.571  0.00  0.00    +0.000 A 
ATOM      6  C   UNL     1      -3.016  13.185  21.898  0.00  0.00    +0.000 A 
ATOM      7  C   UNL     1      -4.000  12.759  20.970  0.00  0.00    +0.000 A 
ATOM      8  C   UNL     1      -3.610  12.295  19.712  0.00  0.00    +0.000 A 
ATOM      9  O   UNL     1      -4.470  11.820  18.773  0.00  0.00    +0.000 OA
ATOM     10  C   UNL     1      -5.831  11.589  19.184  0.00  0.00    +0.000 C 
ATOM     11  C   UNL     1      -6.682  11.574  17.916  0.00  0.00    +0.000 C 
ATOM     12  O   UNL     1      -6.613  12.819  17.206  0.00  0.00    +0.000 OA
ATOM     13  C   UNL     1      -6.743  13.935  17.987  0.00  0.00    +0.000 A 
ATOM     14  C   UNL     1      -6.913  15.146  17.313  0.00  0.00    +0.000 A 
ATOM     15  C   UNL     1      -7.103  16.381  17.977  0.00  0.00    +0.000 A 
ATOM     16  C   UNL     1      -7.182  16.367  19.367  0.00  0.00    +0.000 A 
ATOM     17  C   UNL     1      -7.016  15.119  20.016  0.00  0.00    +0.000 A 
ATOM     18  C   UNL     1      -6.700  13.919  19.372  0.00  0.00    +0.000 A 
ATOM     19  C   UNL     1      -6.403  12.647  20.141  0.00  0.00    +0.000 C 
ATOM     20  C   UNL     1      -5.451  12.711  21.361  0.00  0.00    +0.000 C 
ATOM     21  O   UNL     1      -0.024  12.580  19.882  0.00  0.00    +0.000 OA
ENDROOT
BRANCH   1  23
ATOM     22  C   UNL     1      -0.055   9.761  20.356  0.00  0.00    +0.000 C 
ATOM     23  C   UNL     1       0.226  10.278  19.157  0.00  0.00    +0.000 C 
BRANCH  23  24
ATOM     24  C   UNL     1       0.945   9.490  18.077  0.00  0.00    +0.000 C 
BRANCH  24  25
ATOM     25  O   UNL     1       1.915  10.285  17.404  0.00  0.00    +0.000 OA
ATOM     26  H   UNL     1       1.438  10.783  16.719  0.00  0.00    +0.000 HD
ENDBRANCH  24  25
ENDBRANCH  23  24
ENDBRANCH   1  23
BRANCH  15  27
ATOM     27  O   UNL     1      -7.057  17.393  17.065  0.00  0.00    +0.000 OA
ATOM     28  C   UNL     1      -6.284  18.553  17.268  0.00  0.00    +0.000 C 
ENDBRANCH  15  27
BRANCH  16  29
ATOM     29  O   UNL     1      -7.314  17.287  20.352  0.00  0.00    +0.000 OA
ATOM     30  C   UNL     1      -6.289  18.008  20.982  0.00  0.00    +0.000 C 
ENDBRANCH  16  29
BRANCH  20  31
ATOM     31  O   UNL     1      -5.773  13.757  22.270  0.00  0.00    +0.000 OA
ATOM     32  H   UNL     1      -4.925  14.116  22.601  0.00  0.00    +0.000 HD
ENDBRANCH  20  31
TORSDOF 6
ENDMDL
MODEL 7
REMARK VINA RESULT:      -5.6      1.517      2.088
REMARK  Name = 
REMARK  8 active torsions:
REMARK  status: ('A' for Active; 'I' for Inactive)
REMARK    1  A    between atoms: C_2  and  C_3
REMARK    2  A    between atoms: C_2  and  C_5
REMARK    3  A    between atoms: C_3  and  O_4
REMARK    4  A    between atoms: C_19  and  O_20
REMARK    5  A    between atoms: O_20  and  C_21
REMARK    6  A    between atoms: C_22  and  O_23
REMARK    7  A    between atoms: O_23  and  C_24
REMARK    8  A    between atoms: C_28  and  O_29
REMARK                            x       y       z     vdW  Elec       q    Type
REMARK                         _______ _______ _______ _____ _____    ______ ____
ROOT
ATOM      1  C   UNL     1       3.810  15.696  17.871  0.00  0.00    +0.000 C 
ATOM      2  C   UNL     1       2.985  14.393  17.784  0.00  0.00    +0.000 C 
ATOM      3  C   UNL     1       2.181  14.551  19.020  0.00  0.00    +0.000 A 
ATOM      4  C   UNL     1       2.195  15.888  19.389  0.00  0.00    +0.000 A 
ATOM      5  C   UNL     1       1.504  16.356  20.481  0.00  0.00    +0.000 A 
ATOM      6  C   UNL     1       0.799  15.422  21.238  0.00  0.00    +0.000 A 
ATOM      7  C   UNL     1       0.773  14.051  20.879  0.00  0.00    +0.000 A 
ATOM      8  C   UNL     1       1.491  13.613  19.764  0.00  0.00    +0.000 A 
ATOM      9  O   UNL     1       1.571  12.317  19.367  0.00  0.00    +0.000 OA
ATOM     10  C   UNL     1       1.058  11.319  20.271  0.00  0.00    +0.000 C 
ATOM     11  C   UNL     1       0.777  10.069  19.440  0.00  0.00    +0.000 C 
ATOM     12  O   UNL     1      -0.194  10.312  18.412  0.00  0.00    +0.000 OA
ATOM     13  C   UNL     1      -1.300  11.007  18.818  0.00  0.00    +0.000 A 
ATOM     14  C   UNL     1      -2.363  11.062  17.915  0.00  0.00    +0.000 A 
ATOM     15  C   UNL     1      -3.590  11.705  18.201  0.00  0.00    +0.000 A 
ATOM     16  C   UNL     1      -3.756  12.256  19.469  0.00  0.00    +0.000 A 
ATOM     17  C   UNL     1      -2.659  12.173  20.364  0.00  0.00    +0.000 A 
ATOM     18  C   UNL     1      -1.403  11.652  20.041  0.00  0.00    +0.000 A 
ATOM     19  C   UNL     1      -0.234  11.717  21.003  0.00  0.00    +0.000 C 
ATOM     20  C   UNL     1       0.060  13.047  21.741  0.00  0.00    +0.000 C 
ATOM     21  O   UNL     1       2.998  16.669  18.594  0.00  0.00    +0.000 OA
ENDROOT
BRANCH   1  23
ATOM     22  C   UNL     1       6.171  14.812  18.145  0.00  0.00    +0.000 C 
ATOM     23  C   UNL     1       5.182  15.613  18.551  0.00  0.00    +0.000 C 
BRANCH  23  24
ATOM     24  C   UNL     1       5.325  16.550  19.737  0.00  0.00    +0.000 C 
BRANCH  24  25
ATOM     25  O   UNL     1       5.610  17.882  19.324  0.00  0.00    +0.000 OA
ATOM     26  H   UNL     1       6.243  18.241  19.968  0.00  0.00    +0.000 HD
ENDBRANCH  24  25
ENDBRANCH  23  24
ENDBRANCH   1  23
BRANCH  15  27
ATOM     27  O   UNL     1      -4.351  11.746  17.071  0.00  0.00    +0.000 OA
ATOM     28  C   UNL     1      -5.678  12.220  17.075  0.00  0.00    +0.000 C 
ENDBRANCH  15  27
BRANCH  16  29
ATOM     29  O   UNL     1      -4.714  12.962  20.116  0.00  0.00    +0.000 OA
ATOM     30  C   UNL     1      -5.070  12.867  21.469  0.00  0.00    +0.000 C 
ENDBRANCH  16  29
BRANCH  20  31
ATOM     31  O   UNL     1      -1.094  13.618  22.348  0.00  0.00    +0.000 OA
ATOM     32  H   UNL     1      -1.187  13.200  23.228  0.00  0.00    +0.000 HD
ENDBRANCH  20  31
TORSDOF 6
ENDMDL
MODEL 8
REMARK VINA RESULT:      -5.6      1.236      1.527
REMARK  Name = 
REMARK  8 active torsions:
REMARK  status: ('A' for Active; 'I' for Inactive)
REMARK    1  A    between atoms: C_2  and  C_3
REMARK    2  A    between atoms: C_2  and  C_5
REMARK    3  A    between atoms: C_3  and  O_4
REMARK    4  A    between atoms: C_19  and  O_20
REMARK    5  A    between atoms: O_20  and  C_21
REMARK    6  A    between atoms: C_22  and  O_23
REMARK    7  A    between atoms: O_23  and  C_24
REMARK    8  A    between atoms: C_28  and  O_29
REMARK                            x       y       z     vdW  Elec       q    Type
REMARK                         _______ _______ _______ _____ _____    ______ ____
ROOT
ATOM      1  C   UNL     1       2.180  17.004  18.706  0.00  0.00    +0.000 C 
ATOM      2  C   UNL     1       1.804  15.523  18.487  0.00  0.00    +0.000 C 
ATOM      3  C   UNL     1       0.569  15.478  19.308  0.00  0.00    +0.000 A 
ATOM      4  C   UNL     1       0.108  16.775  19.482  0.00  0.00    +0.000 A 
ATOM      5  C   UNL     1      -1.047  17.057  20.173  0.00  0.00    +0.000 A 
ATOM      6  C   UNL     1      -1.737  15.982  20.728  0.00  0.00    +0.000 A 
ATOM      7  C   UNL     1      -1.281  14.650  20.563  0.00  0.00    +0.000 A 
ATOM      8  C   UNL     1      -0.101  14.404  19.857  0.00  0.00    +0.000 A 
ATOM      9  O   UNL     1       0.444  13.171  19.687  0.00  0.00    +0.000 OA
ATOM     10  C   UNL     1      -0.117  12.091  20.456  0.00  0.00    +0.000 C 
ATOM     11  C   UNL     1       0.266  10.794  19.747  0.00  0.00    +0.000 C 
ATOM     12  O   UNL     1      -0.254  10.736  18.411  0.00  0.00    +0.000 OA
ATOM     13  C   UNL     1      -1.565  11.107  18.287  0.00  0.00    +0.000 A 
ATOM     14  C   UNL     1      -2.170  10.845  17.057  0.00  0.00    +0.000 A 
ATOM     15  C   UNL     1      -3.529  11.130  16.785  0.00  0.00    +0.000 A 
ATOM     16  C   UNL     1      -4.306  11.640  17.821  0.00  0.00    +0.000 A 
ATOM     17  C   UNL     1      -3.662  11.884  19.060  0.00  0.00    +0.000 A 
ATOM     18  C   UNL     1      -2.293  11.724  19.293  0.00  0.00    +0.000 A 
ATOM     19  C   UNL     1      -1.647  12.131  20.602  0.00  0.00    +0.000 C 
ATOM     20  C   UNL     1      -2.002  13.506  21.220  0.00  0.00    +0.000 C 
ATOM     21  O   UNL     1       0.938  17.730  18.948  0.00  0.00    +0.000 OA
ENDROOT
BRANCH   1  23
ATOM     22  C   UNL     1       2.810  17.967  20.967  0.00  0.00    +0.000 C 
ATOM     23  C   UNL     1       3.153  17.320  19.849  0.00  0.00    +0.000 C 
BRANCH  23  24
ATOM     24  C   UNL     1       4.561  16.810  19.602  0.00  0.00    +0.000 C 
BRANCH  24  25
ATOM     25  O   UNL     1       5.495  17.878  19.490  0.00  0.00    +0.000 OA
ATOM     26  H   UNL     1       5.064  18.662  19.870  0.00  0.00    +0.000 HD
ENDBRANCH  24  25
ENDBRANCH  23  24
ENDBRANCH   1  23
BRANCH  15  27
ATOM     27  O   UNL     1      -3.773  10.933  15.458  0.00  0.00    +0.000 OA
ATOM     28  C   UNL     1      -3.042  10.006  14.689  0.00  0.00    +0.000 C 
ENDBRANCH  15  27
BRANCH  16  29
ATOM     29  O   UNL     1      -5.582  12.068  17.973  0.00  0.00    +0.000 OA
ATOM     30  C   UNL     1      -6.323  12.861  17.085  0.00  0.00    +0.000 C 
ENDBRANCH  16  29
BRANCH  20  31
ATOM     31  O   UNL     1      -3.403  13.749  21.280  0.00  0.00    +0.000 OA
ATOM     32  H   UNL     1      -3.719  13.811  20.356  0.00  0.00    +0.000 HD
ENDBRANCH  20  31
TORSDOF 6
ENDMDL
MODEL 9
REMARK VINA RESULT:      -5.6      3.136      6.705
REMARK  Name = 
REMARK  8 active torsions:
REMARK  status: ('A' for Active; 'I' for Inactive)
REMARK    1  A    between atoms: C_2  and  C_3
REMARK    2  A    between atoms: C_2  and  C_5
REMARK    3  A    between atoms: C_3  and  O_4
REMARK    4  A    between atoms: C_19  and  O_20
REMARK    5  A    between atoms: O_20  and  C_21
REMARK    6  A    between atoms: C_22  and  O_23
REMARK    7  A    between atoms: O_23  and  C_24
REMARK    8  A    between atoms: C_28  and  O_29
REMARK                            x       y       z     vdW  Elec       q    Type
REMARK                         _______ _______ _______ _____ _____    ______ ____
ROOT
ATOM      1  C   UNL     1      -0.357   9.770  20.843  0.00  0.00    +0.000 C 
ATOM      2  C   UNL     1      -0.584  11.229  21.296  0.00  0.00    +0.000 C 
ATOM      3  C   UNL     1       0.371  11.901  20.381  0.00  0.00    +0.000 A 
ATOM      4  C   UNL     1       0.642  11.048  19.322  0.00  0.00    +0.000 A 
ATOM      5  C   UNL     1       1.469  11.407  18.283  0.00  0.00    +0.000 A 
ATOM      6  C   UNL     1       2.062  12.666  18.345  0.00  0.00    +0.000 A 
ATOM      7  C   UNL     1       1.799  13.552  19.421  0.00  0.00    +0.000 A 
ATOM      8  C   UNL     1       0.955  13.150  20.459  0.00  0.00    +0.000 A 
ATOM      9  O   UNL     1       0.681  13.903  21.556  0.00  0.00    +0.000 OA
ATOM     10  C   UNL     1       1.471  15.091  21.753  0.00  0.00    +0.000 C 
ATOM     11  C   UNL     1       0.678  16.003  22.687  0.00  0.00    +0.000 C 
ATOM     12  O   UNL     1      -0.591  16.373  22.128  0.00  0.00    +0.000 OA
ATOM     13  C   UNL     1      -0.551  16.766  20.819  0.00  0.00    +0.000 A 
ATOM     14  C   UNL     1      -1.714  17.350  20.312  0.00  0.00    +0.000 A 
ATOM     15  C   UNL     1      -1.818  17.846  18.991  0.00  0.00    +0.000 A 
ATOM     16  C   UNL     1      -0.683  17.799  18.186  0.00  0.00    +0.000 A 
ATOM     17  C   UNL     1       0.482  17.209  18.737  0.00  0.00    +0.000 A 
ATOM     18  C   UNL     1       0.552  16.603  19.995  0.00  0.00    +0.000 A 
ATOM     19  C   UNL     1       1.792  15.872  20.468  0.00  0.00    +0.000 C 
ATOM     20  C   UNL     1       2.494  14.882  19.505  0.00  0.00    +0.000 C 
ATOM     21  O   UNL     1       0.050   9.815  19.443  0.00  0.00    +0.000 OA
ENDROOT
BRANCH   1  23
ATOM     22  C   UNL     1       1.308   7.877  21.124  0.00  0.00    +0.000 C 
ATOM     23  C   UNL     1       0.678   8.946  21.620  0.00  0.00    +0.000 C 
BRANCH  23  24
ATOM     24  C   UNL     1       0.940   9.471  23.020  0.00  0.00    +0.000 C 
BRANCH  24  25
ATOM     25  O   UNL     1      -0.214   9.363  23.846  0.00  0.00    +0.000 OA
ATOM     26  H   UNL     1      -0.975   9.273  23.247  0.00  0.00    +0.000 HD
ENDBRANCH  24  25
ENDBRANCH  23  24
ENDBRANCH   1  23
BRANCH  15  27
ATOM     27  O   UNL     1      -3.115  18.185  18.739  0.00  0.00    +0.000 OA
ATOM     28  C   UNL     1      -4.185  17.680  19.504  0.00  0.00    +0.000 C 
ENDBRANCH  15  27
BRANCH  16  29
ATOM     29  O   UNL     1      -0.372  18.116  16.907  0.00  0.00    +0.000 OA
ATOM     30  C   UNL     1       0.886  18.475  16.403  0.00  0.00    +0.000 C 
ENDBRANCH  16  29
BRANCH  20  31
ATOM     31  O   UNL     1       2.722  15.426  18.210  0.00  0.00    +0.000 OA
ATOM     32  H   UNL     1       2.736  16.399  18.311  0.00  0.00    +0.000 HD
ENDBRANCH  20  31
TORSDOF 6
ENDMDL
