MODEL 1
REMARK VINA RESULT:      -7.8      0.000      0.000
REMARK  Name = 
REMARK  8 active torsions:
REMARK  status: ('A' for Active; 'I' for Inactive)
REMARK    1  A    between atoms: C_1  and  O_2
REMARK    2  A    between atoms: O_2  and  C_3
REMARK    3  A    between atoms: C_5  and  C_6
REMARK    4  A    between atoms: C_6  and  O_8
REMARK    5  A    between atoms: C_11  and  N_12
REMARK    6  A    between atoms: C_17  and  O_18
REMARK    7  A    between atoms: O_18  and  C_19
REMARK    8  A    between atoms: N_27  and  C_28
REMARK                            x       y       z     vdW  Elec       q    Type
REMARK                         _______ _______ _______ _____ _____    ______ ____
ROOT
ATOM      1  N   UNL     1       3.013   5.401  19.126  0.00  0.00    +0.000 N 
ATOM      2  C   UNL     1       2.247   6.536  19.476  0.00  0.00    +0.000 A 
ATOM      3  N   UNL     1       2.043   6.726  20.789  0.00  0.00    +0.000 NA
ATOM      4  C   UNL     1       1.585   7.937  21.167  0.00  0.00    +0.000 A 
ATOM      5  C   UNL     1       1.295   8.967  20.307  0.00  0.00    +0.000 A 
ATOM      6  C   UNL     1       1.488   8.671  18.974  0.00  0.00    +0.000 A 
ATOM      7  N   UNL     1       1.927   7.465  18.571  0.00  0.00    +0.000 NA
ATOM      8  H   UNL     1       3.463   5.117  19.989  0.00  0.00    +0.000 HD
ENDROOT
BRANCH   1  14
ATOM      9  C   UNL     1       3.820   4.188  17.095  0.00  0.00    +0.000 A 
ATOM     10  C   UNL     1       4.793   4.082  16.081  0.00  0.00    +0.000 A 
ATOM     11  C   UNL     1       5.783   5.024  15.896  0.00  0.00    +0.000 A 
ATOM     12  C   UNL     1       5.755   6.154  16.687  0.00  0.00    +0.000 A 
ATOM     13  C   UNL     1       4.793   6.278  17.703  0.00  0.00    +0.000 A 
ATOM     14  C   UNL     1       3.868   5.270  17.995  0.00  0.00    +0.000 A 
BRANCH   9  16
ATOM     15  C   UNL     1       3.436   2.030  17.938  0.00  0.00    +0.000 C 
ATOM     16  O   UNL     1       2.897   3.171  17.222  0.00  0.00    +0.000 OA
ENDBRANCH   9  16
BRANCH  11  17
ATOM     17  C   UNL     1       6.785   4.732  14.841  0.00  0.00    +0.000 C 
ATOM     18  O   UNL     1       7.731   5.464  14.617  0.00  0.00    +0.000 OA
BRANCH  17  19
ATOM     19  O   UNL     1       6.507   3.634  14.099  0.00  0.00    +0.000 OA
ATOM     20  H   UNL     1       6.817   3.644  13.180  0.00  0.00    +0.000 HD
ENDBRANCH  17  19
ENDBRANCH  11  17
ENDBRANCH   1  14
BRANCH   6  21
ATOM     21  O   UNL     1       1.338   9.670  18.004  0.00  0.00    +0.000 OA
BRANCH  21  22
ATOM     22  C   UNL     1       0.175  10.426  18.076  0.00  0.00    +0.000 A 
ATOM     23  C   UNL     1      -1.049   9.851  17.706  0.00  0.00    +0.000 A 
ATOM     24  C   UNL     1      -2.245  10.577  17.730  0.00  0.00    +0.000 A 
ATOM     25  C   UNL     1      -2.260  11.895  18.176  0.00  0.00    +0.000 A 
ATOM     26  C   UNL     1      -1.068  12.463  18.586  0.00  0.00    +0.000 A 
ATOM     27  C   UNL     1       0.137  11.737  18.539  0.00  0.00    +0.000 A 
ATOM     28  C   UNL     1       1.198  12.660  19.012  0.00  0.00    +0.000 C 
ATOM     29  O   UNL     1       2.362  12.403  19.094  0.00  0.00    +0.000 OA
ATOM     30  N   UNL     1       0.579  13.871  19.304  0.00  0.00    +0.000 N 
ATOM     31  C   UNL     1       1.258  15.048  19.805  0.00  0.00    +0.000 C 
ATOM     32  C   UNL     1      -0.849  13.847  19.105  0.00  0.00    +0.000 C 
ENDBRANCH  21  22
ENDBRANCH   6  21
TORSDOF 6
ENDMDL
MODEL 2
REMARK VINA RESULT:      -7.8      2.588      3.542
REMARK  Name = 
REMARK  8 active torsions:
REMARK  status: ('A' for Active; 'I' for Inactive)
REMARK    1  A    between atoms: C_1  and  O_2
REMARK    2  A    between atoms: O_2  and  C_3
REMARK    3  A    between atoms: C_5  and  C_6
REMARK    4  A    between atoms: C_6  and  O_8
REMARK    5  A    between atoms: C_11  and  N_12
REMARK    6  A    between atoms: C_17  and  O_18
REMARK    7  A    between atoms: O_18  and  C_19
REMARK    8  A    between atoms: N_27  and  C_28
REMARK                            x       y       z     vdW  Elec       q    Type
REMARK                         _______ _______ _______ _____ _____    ______ ____
ROOT
ATOM      1  N   UNL     1       1.327   7.358  21.099  0.00  0.00    +0.000 N 
ATOM      2  C   UNL     1       0.591   8.548  21.292  0.00  0.00    +0.000 A 
ATOM      3  N   UNL     1       0.475   8.971  22.561  0.00  0.00    +0.000 NA
ATOM      4  C   UNL     1       0.048  10.236  22.747  0.00  0.00    +0.000 A 
ATOM      5  C   UNL     1      -0.294  11.103  21.739  0.00  0.00    +0.000 A 
ATOM      6  C   UNL     1      -0.192  10.574  20.470  0.00  0.00    +0.000 A 
ATOM      7  N   UNL     1       0.215   9.308  20.259  0.00  0.00    +0.000 NA
ATOM      8  H   UNL     1       1.832   7.224  21.968  0.00  0.00    +0.000 HD
ENDROOT
BRANCH   1  14
ATOM      9  C   UNL     1       2.714   5.761  19.767  0.00  0.00    +0.000 A 
ATOM     10  C   UNL     1       3.571   5.561  18.667  0.00  0.00    +0.000 A 
ATOM     11  C   UNL     1       3.816   6.539  17.725  0.00  0.00    +0.000 A 
ATOM     12  C   UNL     1       3.118   7.725  17.830  0.00  0.00    +0.000 A 
ATOM     13  C   UNL     1       2.259   7.942  18.919  0.00  0.00    +0.000 A 
ATOM     14  C   UNL     1       2.105   7.017  19.956  0.00  0.00    +0.000 A 
BRANCH   9  16
ATOM     15  C   UNL     1       1.428   3.891  20.370  0.00  0.00    +0.000 C 
ATOM     16  O   UNL     1       2.569   4.733  20.675  0.00  0.00    +0.000 OA
ENDBRANCH   9  16
BRANCH  11  17
ATOM     17  C   UNL     1       4.807   6.208  16.671  0.00  0.00    +0.000 C 
ATOM     18  O   UNL     1       5.559   7.039  16.197  0.00  0.00    +0.000 OA
BRANCH  17  19
ATOM     19  O   UNL     1       4.740   4.932  16.227  0.00  0.00    +0.000 OA
ATOM     20  H   UNL     1       5.510   4.370  16.410  0.00  0.00    +0.000 HD
ENDBRANCH  17  19
ENDBRANCH  11  17
ENDBRANCH   1  14
BRANCH   6  21
ATOM     21  O   UNL     1      -0.402  11.388  19.350  0.00  0.00    +0.000 OA
BRANCH  21  22
ATOM     22  C   UNL     1      -1.485  11.058  18.546  0.00  0.00    +0.000 A 
ATOM     23  C   UNL     1      -1.310  10.162  17.481  0.00  0.00    +0.000 A 
ATOM     24  C   UNL     1      -2.361   9.820  16.622  0.00  0.00    +0.000 A 
ATOM     25  C   UNL     1      -3.638  10.328  16.833  0.00  0.00    +0.000 A 
ATOM     26  C   UNL     1      -3.837  11.179  17.906  0.00  0.00    +0.000 A 
ATOM     27  C   UNL     1      -2.774  11.539  18.754  0.00  0.00    +0.000 A 
ATOM     28  C   UNL     1      -3.339  12.477  19.755  0.00  0.00    +0.000 C 
ATOM     29  O   UNL     1      -2.730  13.011  20.633  0.00  0.00    +0.000 OA
ATOM     30  N   UNL     1      -4.687  12.630  19.449  0.00  0.00    +0.000 N 
ATOM     31  C   UNL     1      -5.615  13.461  20.188  0.00  0.00    +0.000 C 
ATOM     32  C   UNL     1      -5.113  11.833  18.326  0.00  0.00    +0.000 C 
ENDBRANCH  21  22
ENDBRANCH   6  21
TORSDOF 6
ENDMDL
MODEL 3
REMARK VINA RESULT:      -7.7      5.880      8.814
REMARK  Name = 
REMARK  8 active torsions:
REMARK  status: ('A' for Active; 'I' for Inactive)
REMARK    1  A    between atoms: C_1  and  O_2
REMARK    2  A    between atoms: O_2  and  C_3
REMARK    3  A    between atoms: C_5  and  C_6
REMARK    4  A    between atoms: C_6  and  O_8
REMARK    5  A    between atoms: C_11  and  N_12
REMARK    6  A    between atoms: C_17  and  O_18
REMARK    7  A    between atoms: O_18  and  C_19
REMARK    8  A    between atoms: N_27  and  C_28
REMARK                            x       y       z     vdW  Elec       q    Type
REMARK                         _______ _______ _______ _____ _____    ______ ____
ROOT
ATOM      1  N   UNL     1      -5.460  12.717  20.578  0.00  0.00    +0.000 N 
ATOM      2  C   UNL     1      -4.916  12.864  21.874  0.00  0.00    +0.000 A 
ATOM      3  N   UNL     1      -5.763  12.656  22.895  0.00  0.00    +0.000 NA
ATOM      4  C   UNL     1      -5.218  12.493  24.118  0.00  0.00    +0.000 A 
ATOM      5  C   UNL     1      -3.873  12.548  24.389  0.00  0.00    +0.000 A 
ATOM      6  C   UNL     1      -3.079  12.812  23.292  0.00  0.00    +0.000 A 
ATOM      7  N   UNL     1      -3.600  12.997  22.066  0.00  0.00    +0.000 NA
ATOM      8  H   UNL     1      -6.334  12.225  20.720  0.00  0.00    +0.000 HD
ENDROOT
BRANCH   1  14
ATOM      9  C   UNL     1      -5.402  11.967  18.195  0.00  0.00    +0.000 A 
ATOM     10  C   UNL     1      -4.649  11.418  17.138  0.00  0.00    +0.000 A 
ATOM     11  C   UNL     1      -3.289  11.208  17.223  0.00  0.00    +0.000 A 
ATOM     12  C   UNL     1      -2.639  11.639  18.362  0.00  0.00    +0.000 A 
ATOM     13  C   UNL     1      -3.373  12.187  19.426  0.00  0.00    +0.000 A 
ATOM     14  C   UNL     1      -4.769  12.280  19.413  0.00  0.00    +0.000 A 
BRANCH   9  16
ATOM     15  C   UNL     1      -7.109  13.283  17.262  0.00  0.00    +0.000 C 
ATOM     16  O   UNL     1      -6.765  12.098  18.025  0.00  0.00    +0.000 OA
ENDBRANCH   9  16
BRANCH  11  17
ATOM     17  C   UNL     1      -2.648  10.546  16.060  0.00  0.00    +0.000 C 
ATOM     18  O   UNL     1      -3.061  10.680  14.923  0.00  0.00    +0.000 OA
BRANCH  17  19
ATOM     19  O   UNL     1      -1.626   9.720  16.384  0.00  0.00    +0.000 OA
ATOM     20  H   UNL     1      -1.141   9.323  15.643  0.00  0.00    +0.000 HD
ENDBRANCH  17  19
ENDBRANCH  11  17
ENDBRANCH   1  14
BRANCH   6  21
ATOM     21  O   UNL     1      -1.683  12.782  23.412  0.00  0.00    +0.000 OA
BRANCH  21  22
ATOM     22  C   UNL     1      -1.032  11.760  22.733  0.00  0.00    +0.000 A 
ATOM     23  C   UNL     1      -1.088  10.451  23.233  0.00  0.00    +0.000 A 
ATOM     24  C   UNL     1      -0.423   9.391  22.605  0.00  0.00    +0.000 A 
ATOM     25  C   UNL     1       0.280   9.601  21.424  0.00  0.00    +0.000 A 
ATOM     26  C   UNL     1       0.308  10.878  20.895  0.00  0.00    +0.000 A 
ATOM     27  C   UNL     1      -0.342  11.946  21.540  0.00  0.00    +0.000 A 
ATOM     28  C   UNL     1      -0.074  13.153  20.720  0.00  0.00    +0.000 C 
ATOM     29  O   UNL     1      -0.451  14.261  20.963  0.00  0.00    +0.000 OA
ATOM     30  N   UNL     1       0.717  12.747  19.650  0.00  0.00    +0.000 N 
ATOM     31  C   UNL     1       1.201  13.620  18.600  0.00  0.00    +0.000 C 
ATOM     32  C   UNL     1       0.988  11.331  19.643  0.00  0.00    +0.000 C 
ENDBRANCH  21  22
ENDBRANCH   6  21
TORSDOF 6
ENDMDL
MODEL 4
REMARK VINA RESULT:      -7.7      3.158      7.546
REMARK  Name = 
REMARK  8 active torsions:
REMARK  status: ('A' for Active; 'I' for Inactive)
REMARK    1  A    between atoms: C_1  and  O_2
REMARK    2  A    between atoms: O_2  and  C_3
REMARK    3  A    between atoms: C_5  and  C_6
REMARK    4  A    between atoms: C_6  and  O_8
REMARK    5  A    between atoms: C_11  and  N_12
REMARK    6  A    between atoms: C_17  and  O_18
REMARK    7  A    between atoms: O_18  and  C_19
REMARK    8  A    between atoms: N_27  and  C_28
REMARK                            x       y       z     vdW  Elec       q    Type
REMARK                         _______ _______ _______ _____ _____    ______ ____
ROOT
ATOM      1  N   UNL     1       1.539   5.339  20.694  0.00  0.00    +0.000 N 
ATOM      2  C   UNL     1       2.358   4.198  20.540  0.00  0.00    +0.000 A 
ATOM      3  N   UNL     1       1.742   3.011  20.657  0.00  0.00    +0.000 NA
ATOM      4  C   UNL     1       2.416   1.926  20.225  0.00  0.00    +0.000 A 
ATOM      5  C   UNL     1       3.685   1.952  19.700  0.00  0.00    +0.000 A 
ATOM      6  C   UNL     1       4.262   3.203  19.660  0.00  0.00    +0.000 A 
ATOM      7  N   UNL     1       3.617   4.298  20.102  0.00  0.00    +0.000 NA
ATOM      8  H   UNL     1       0.592   4.990  20.605  0.00  0.00    +0.000 HD
ENDROOT
BRANCH   1  14
ATOM      9  C   UNL     1       1.420   7.836  20.675  0.00  0.00    +0.000 A 
ATOM     10  C   UNL     1       1.508   9.026  19.926  0.00  0.00    +0.000 A 
ATOM     11  C   UNL     1       1.920   9.048  18.609  0.00  0.00    +0.000 A 
ATOM     12  C   UNL     1       2.343   7.863  18.045  0.00  0.00    +0.000 A 
ATOM     13  C   UNL     1       2.263   6.667  18.776  0.00  0.00    +0.000 A 
ATOM     14  C   UNL     1       1.719   6.603  20.063  0.00  0.00    +0.000 A 
BRANCH   9  16
ATOM     15  C   UNL     1       0.603   9.272  22.344  0.00  0.00    +0.000 C 
ATOM     16  O   UNL     1       0.957   7.915  21.972  0.00  0.00    +0.000 OA
ENDBRANCH   9  16
BRANCH  11  17
ATOM     17  C   UNL     1       1.881  10.366  17.928  0.00  0.00    +0.000 C 
ATOM     18  O   UNL     1       2.881  10.907  17.493  0.00  0.00    +0.000 OA
BRANCH  17  19
ATOM     19  O   UNL     1       0.658  10.946  17.909  0.00  0.00    +0.000 OA
ATOM     20  H   UNL     1       0.068  10.732  18.649  0.00  0.00    +0.000 HD
ENDBRANCH  17  19
ENDBRANCH  11  17
ENDBRANCH   1  14
BRANCH   6  21
ATOM     21  O   UNL     1       5.508   3.383  19.045  0.00  0.00    +0.000 OA
BRANCH  21  22
ATOM     22  C   UNL     1       5.529   4.217  17.934  0.00  0.00    +0.000 A 
ATOM     23  C   UNL     1       4.739   3.905  16.819  0.00  0.00    +0.000 A 
ATOM     24  C   UNL     1       4.747   4.694  15.662  0.00  0.00    +0.000 A 
ATOM     25  C   UNL     1       5.512   5.854  15.607  0.00  0.00    +0.000 A 
ATOM     26  C   UNL     1       6.263   6.199  16.715  0.00  0.00    +0.000 A 
ATOM     27  C   UNL     1       6.270   5.392  17.868  0.00  0.00    +0.000 A 
ATOM     28  C   UNL     1       7.199   6.041  18.825  0.00  0.00    +0.000 C 
ATOM     29  O   UNL     1       7.478   5.634  19.913  0.00  0.00    +0.000 OA
ATOM     30  N   UNL     1       7.695   7.180  18.198  0.00  0.00    +0.000 N 
ATOM     31  C   UNL     1       8.633   8.110  18.792  0.00  0.00    +0.000 C 
ATOM     32  C   UNL     1       7.146   7.394  16.882  0.00  0.00    +0.000 C 
ENDBRANCH  21  22
ENDBRANCH   6  21
TORSDOF 6
ENDMDL
MODEL 5
REMARK VINA RESULT:      -7.6      1.064      2.130
REMARK  Name = 
REMARK  8 active torsions:
REMARK  status: ('A' for Active; 'I' for Inactive)
REMARK    1  A    between atoms: C_1  and  O_2
REMARK    2  A    between atoms: O_2  and  C_3
REMARK    3  A    between atoms: C_5  and  C_6
REMARK    4  A    between atoms: C_6  and  O_8
REMARK    5  A    between atoms: C_11  and  N_12
REMARK    6  A    between atoms: C_17  and  O_18
REMARK    7  A    between atoms: O_18  and  C_19
REMARK    8  A    between atoms: N_27  and  C_28
REMARK                            x       y       z     vdW  Elec       q    Type
REMARK                         _______ _______ _______ _____ _____    ______ ____
ROOT
ATOM      1  N   UNL     1       2.929   5.532  19.113  0.00  0.00    +0.000 N 
ATOM      2  C   UNL     1       2.174   6.686  19.423  0.00  0.00    +0.000 A 
ATOM      3  N   UNL     1       1.968   6.921  20.729  0.00  0.00    +0.000 NA
ATOM      4  C   UNL     1       1.520   8.148  21.066  0.00  0.00    +0.000 A 
ATOM      5  C   UNL     1       1.244   9.153  20.172  0.00  0.00    +0.000 A 
ATOM      6  C   UNL     1       1.438   8.812  18.850  0.00  0.00    +0.000 A 
ATOM      7  N   UNL     1       1.866   7.588  18.487  0.00  0.00    +0.000 NA
ATOM      8  H   UNL     1       3.373   5.273  19.986  0.00  0.00    +0.000 HD
ENDROOT
BRANCH   1  14
ATOM      9  C   UNL     1       3.765   4.222  17.156  0.00  0.00    +0.000 A 
ATOM     10  C   UNL     1       4.740   4.080  16.147  0.00  0.00    +0.000 A 
ATOM     11  C   UNL     1       5.705   5.035  15.905  0.00  0.00    +0.000 A 
ATOM     12  C   UNL     1       5.649   6.209  16.627  0.00  0.00    +0.000 A 
ATOM     13  C   UNL     1       4.685   6.368  17.636  0.00  0.00    +0.000 A 
ATOM     14  C   UNL     1       3.786   5.357  17.990  0.00  0.00    +0.000 A 
BRANCH   9  16
ATOM     15  C   UNL     1       3.475   2.056  18.016  0.00  0.00    +0.000 C 
ATOM     16  O   UNL     1       2.869   3.191  17.346  0.00  0.00    +0.000 OA
ENDBRANCH   9  16
BRANCH  11  17
ATOM     17  C   UNL     1       6.713   4.706  14.866  0.00  0.00    +0.000 C 
ATOM     18  O   UNL     1       7.663   5.427  14.626  0.00  0.00    +0.000 OA
BRANCH  17  19
ATOM     19  O   UNL     1       6.436   3.586  14.158  0.00  0.00    +0.000 OA
ATOM     20  H   UNL     1       5.498   3.399  13.996  0.00  0.00    +0.000 HD
ENDBRANCH  17  19
ENDBRANCH  11  17
ENDBRANCH   1  14
BRANCH   6  21
ATOM     21  O   UNL     1       1.301   9.780  17.847  0.00  0.00    +0.000 OA
BRANCH  21  22
ATOM     22  C   UNL     1       1.292  11.103  18.268  0.00  0.00    +0.000 A 
ATOM     23  C   UNL     1       2.476  11.852  18.225  0.00  0.00    +0.000 A 
ATOM     24  C   UNL     1       2.529  13.180  18.667  0.00  0.00    +0.000 A 
ATOM     25  C   UNL     1       1.379  13.817  19.122  0.00  0.00    +0.000 A 
ATOM     26  C   UNL     1       0.194  13.105  19.129  0.00  0.00    +0.000 A 
ATOM     27  C   UNL     1       0.149  11.764  18.706  0.00  0.00    +0.000 A 
ATOM     28  C   UNL     1      -1.255  11.318  18.882  0.00  0.00    +0.000 C 
ATOM     29  O   UNL     1      -1.677  10.226  18.644  0.00  0.00    +0.000 OA
ATOM     30  N   UNL     1      -1.960  12.399  19.402  0.00  0.00    +0.000 N 
ATOM     31  C   UNL     1      -3.373  12.392  19.718  0.00  0.00    +0.000 C 
ATOM     32  C   UNL     1      -1.154  13.583  19.564  0.00  0.00    +0.000 C 
ENDBRANCH  21  22
ENDBRANCH   6  21
TORSDOF 6
ENDMDL
MODEL 6
REMARK VINA RESULT:      -7.5      1.956      2.606
REMARK  Name = 
REMARK  8 active torsions:
REMARK  status: ('A' for Active; 'I' for Inactive)
REMARK    1  A    between atoms: C_1  and  O_2
REMARK    2  A    between atoms: O_2  and  C_3
REMARK    3  A    between atoms: C_5  and  C_6
REMARK    4  A    between atoms: C_6  and  O_8
REMARK    5  A    between atoms: C_11  and  N_12
REMARK    6  A    between atoms: C_17  and  O_18
REMARK    7  A    between atoms: O_18  and  C_19
REMARK    8  A    between atoms: N_27  and  C_28
REMARK                            x       y       z     vdW  Elec       q    Type
REMARK                         _______ _______ _______ _____ _____    ______ ____
ROOT
ATOM      1  N   UNL     1       2.078   6.755  20.472  0.00  0.00    +0.000 N 
ATOM      2  C   UNL     1       1.384   7.958  20.734  0.00  0.00    +0.000 A 
ATOM      3  N   UNL     1       1.397   8.379  22.009  0.00  0.00    +0.000 NA
ATOM      4  C   UNL     1       1.011   9.651  22.236  0.00  0.00    +0.000 A 
ATOM      5  C   UNL     1       0.591  10.526  21.266  0.00  0.00    +0.000 A 
ATOM      6  C   UNL     1       0.563   9.998  19.992  0.00  0.00    +0.000 A 
ATOM      7  N   UNL     1       0.925   8.727  19.742  0.00  0.00    +0.000 NA
ATOM      8  H   UNL     1       2.660   6.610  21.288  0.00  0.00    +0.000 HD
ENDROOT
BRANCH   1  14
ATOM      9  C   UNL     1       2.810   5.089  18.757  0.00  0.00    +0.000 A 
ATOM     10  C   UNL     1       3.595   4.821  17.618  0.00  0.00    +0.000 A 
ATOM     11  C   UNL     1       4.276   5.806  16.934  0.00  0.00    +0.000 A 
ATOM     12  C   UNL     1       4.101   7.113  17.339  0.00  0.00    +0.000 A 
ATOM     13  C   UNL     1       3.322   7.400  18.471  0.00  0.00    +0.000 A 
ATOM     14  C   UNL     1       2.738   6.403  19.260  0.00  0.00    +0.000 A 
BRANCH   9  16
ATOM     15  C   UNL     1       3.167   3.132  20.005  0.00  0.00    +0.000 C 
ATOM     16  O   UNL     1       2.203   4.028  19.396  0.00  0.00    +0.000 OA
ENDBRANCH   9  16
BRANCH  11  17
ATOM     17  C   UNL     1       5.128   5.357  15.804  0.00  0.00    +0.000 C 
ATOM     18  O   UNL     1       5.362   4.182  15.589  0.00  0.00    +0.000 OA
BRANCH  17  19
ATOM     19  O   UNL     1       5.685   6.365  15.094  0.00  0.00    +0.000 OA
ATOM     20  H   UNL     1       5.854   7.190  15.575  0.00  0.00    +0.000 HD
ENDBRANCH  17  19
ENDBRANCH  11  17
ENDBRANCH   1  14
BRANCH   6  21
ATOM     21  O   UNL     1       0.262  10.819  18.898  0.00  0.00    +0.000 OA
BRANCH  21  22
ATOM     22  C   UNL     1      -1.029  10.722  18.395  0.00  0.00    +0.000 A 
ATOM     23  C   UNL     1      -1.303   9.816  17.361  0.00  0.00    +0.000 A 
ATOM     24  C   UNL     1      -2.579   9.701  16.796  0.00  0.00    +0.000 A 
ATOM     25  C   UNL     1      -3.637  10.458  17.288  0.00  0.00    +0.000 A 
ATOM     26  C   UNL     1      -3.393  11.325  18.337  0.00  0.00    +0.000 A 
ATOM     27  C   UNL     1      -2.104  11.454  18.887  0.00  0.00    +0.000 A 
ATOM     28  C   UNL     1      -2.207  12.482  19.952  0.00  0.00    +0.000 C 
ATOM     29  O   UNL     1      -1.308  12.875  20.633  0.00  0.00    +0.000 OA
ATOM     30  N   UNL     1      -3.531  12.909  19.974  0.00  0.00    +0.000 N 
ATOM     31  C   UNL     1      -4.064  13.907  20.878  0.00  0.00    +0.000 C 
ATOM     32  C   UNL     1      -4.370  12.222  19.025  0.00  0.00    +0.000 C 
ENDBRANCH  21  22
ENDBRANCH   6  21
TORSDOF 6
ENDMDL
MODEL 7
REMARK VINA RESULT:      -7.4      1.205      1.649
REMARK  Name = 
REMARK  8 active torsions:
REMARK  status: ('A' for Active; 'I' for Inactive)
REMARK    1  A    between atoms: C_1  and  O_2
REMARK    2  A    between atoms: O_2  and  C_3
REMARK    3  A    between atoms: C_5  and  C_6
REMARK    4  A    between atoms: C_6  and  O_8
REMARK    5  A    between atoms: C_11  and  N_12
REMARK    6  A    between atoms: C_17  and  O_18
REMARK    7  A    between atoms: O_18  and  C_19
REMARK    8  A    between atoms: N_27  and  C_28
REMARK                            x       y       z     vdW  Elec       q    Type
REMARK                         _______ _______ _______ _____ _____    ______ ____
ROOT
ATOM      1  N   UNL     1       3.178   5.049  19.430  0.00  0.00    +0.000 N 
ATOM      2  C   UNL     1       2.402   6.206  19.668  0.00  0.00    +0.000 A 
ATOM      3  N   UNL     1       2.112   6.467  20.952  0.00  0.00    +0.000 NA
ATOM      4  C   UNL     1       1.641   7.699  21.235  0.00  0.00    +0.000 A 
ATOM      5  C   UNL     1       1.420   8.684  20.304  0.00  0.00    +0.000 A 
ATOM      6  C   UNL     1       1.699   8.317  19.005  0.00  0.00    +0.000 A 
ATOM      7  N   UNL     1       2.152   7.088  18.695  0.00  0.00    +0.000 NA
ATOM      8  H   UNL     1       3.566   4.809  20.335  0.00  0.00    +0.000 HD
ENDROOT
BRANCH   1  14
ATOM      9  C   UNL     1       5.489   5.098  18.478  0.00  0.00    +0.000 A 
ATOM     10  C   UNL     1       6.307   5.000  17.335  0.00  0.00    +0.000 A 
ATOM     11  C   UNL     1       5.819   4.630  16.100  0.00  0.00    +0.000 A 
ATOM     12  C   UNL     1       4.494   4.258  16.013  0.00  0.00    +0.000 A 
ATOM     13  C   UNL     1       3.663   4.349  17.141  0.00  0.00    +0.000 A 
ATOM     14  C   UNL     1       4.106   4.854  18.368  0.00  0.00    +0.000 A 
BRANCH   9  16
ATOM     15  C   UNL     1       7.497   5.712  19.529  0.00  0.00    +0.000 C 
ATOM     16  O   UNL     1       6.066   5.517  19.659  0.00  0.00    +0.000 OA
ENDBRANCH   9  16
BRANCH  11  17
ATOM     17  C   UNL     1       6.787   4.653  14.974  0.00  0.00    +0.000 C 
ATOM     18  O   UNL     1       7.662   5.493  14.882  0.00  0.00    +0.000 OA
BRANCH  17  19
ATOM     19  O   UNL     1       6.556   3.717  14.024  0.00  0.00    +0.000 OA
ATOM     20  H   UNL     1       6.380   2.816  14.339  0.00  0.00    +0.000 HD
ENDBRANCH  17  19
ENDBRANCH  11  17
ENDBRANCH   1  14
BRANCH   6  21
ATOM     21  O   UNL     1       1.624   9.264  17.975  0.00  0.00    +0.000 OA
BRANCH  21  22
ATOM     22  C   UNL     1       0.483  10.056  17.952  0.00  0.00    +0.000 A 
ATOM     23  C   UNL     1      -0.758   9.474  17.661  0.00  0.00    +0.000 A 
ATOM     24  C   UNL     1      -1.934  10.232  17.594  0.00  0.00    +0.000 A 
ATOM     25  C   UNL     1      -1.909  11.595  17.867  0.00  0.00    +0.000 A 
ATOM     26  C   UNL     1      -0.699  12.176  18.199  0.00  0.00    +0.000 A 
ATOM     27  C   UNL     1       0.484  11.416  18.243  0.00  0.00    +0.000 A 
ATOM     28  C   UNL     1       1.574  12.361  18.593  0.00  0.00    +0.000 C 
ATOM     29  O   UNL     1       2.730  12.083  18.705  0.00  0.00    +0.000 OA
ATOM     30  N   UNL     1       0.991  13.617  18.728  0.00  0.00    +0.000 N 
ATOM     31  C   UNL     1       1.706  14.828  19.073  0.00  0.00    +0.000 C 
ATOM     32  C   UNL     1      -0.438  13.609  18.536  0.00  0.00    +0.000 C 
ENDBRANCH  21  22
ENDBRANCH   6  21
TORSDOF 6
ENDMDL
MODEL 8
REMARK VINA RESULT:      -7.3      5.566      8.300
REMARK  Name = 
REMARK  8 active torsions:
REMARK  status: ('A' for Active; 'I' for Inactive)
REMARK    1  A    between atoms: C_1  and  O_2
REMARK    2  A    between atoms: O_2  and  C_3
REMARK    3  A    between atoms: C_5  and  C_6
REMARK    4  A    between atoms: C_6  and  O_8
REMARK    5  A    between atoms: C_11  and  N_12
REMARK    6  A    between atoms: C_17  and  O_18
REMARK    7  A    between atoms: O_18  and  C_19
REMARK    8  A    between atoms: N_27  and  C_28
REMARK                            x       y       z     vdW  Elec       q    Type
REMARK                         _______ _______ _______ _____ _____    ______ ____
ROOT
ATOM      1  N   UNL     1      -4.465  12.153  18.156  0.00  0.00    +0.000 N 
ATOM      2  C   UNL     1      -5.282  12.405  19.281  0.00  0.00    +0.000 A 
ATOM      3  N   UNL     1      -6.604  12.276  19.089  0.00  0.00    +0.000 NA
ATOM      4  C   UNL     1      -7.379  12.213  20.191  0.00  0.00    +0.000 A 
ATOM      5  C   UNL     1      -6.914  12.295  21.480  0.00  0.00    +0.000 A 
ATOM      6  C   UNL     1      -5.551  12.474  21.586  0.00  0.00    +0.000 A 
ATOM      7  N   UNL     1      -4.759  12.558  20.501  0.00  0.00    +0.000 NA
ATOM      8  H   UNL     1      -5.069  11.670  17.502  0.00  0.00    +0.000 HD
ENDROOT
BRANCH   1  14
ATOM      9  C   UNL     1      -2.680  10.638  17.280  0.00  0.00    +0.000 A 
ATOM     10  C   UNL     1      -1.394  10.088  17.455  0.00  0.00    +0.000 A 
ATOM     11  C   UNL     1      -0.533  10.508  18.447  0.00  0.00    +0.000 A 
ATOM     12  C   UNL     1      -0.926  11.569  19.237  0.00  0.00    +0.000 A 
ATOM     13  C   UNL     1      -2.203  12.130  19.077  0.00  0.00    +0.000 A 
ATOM     14  C   UNL     1      -3.141  11.627  18.170  0.00  0.00    +0.000 A 
BRANCH   9  16
ATOM     15  C   UNL     1      -2.850  10.199  14.979  0.00  0.00    +0.000 C 
ATOM     16  O   UNL     1      -3.481  10.120  16.283  0.00  0.00    +0.000 OA
ENDBRANCH   9  16
BRANCH  11  17
ATOM     17  C   UNL     1       0.753   9.776  18.558  0.00  0.00    +0.000 C 
ATOM     18  O   UNL     1       1.101   9.217  19.583  0.00  0.00    +0.000 OA
BRANCH  17  19
ATOM     19  O   UNL     1       1.536   9.858  17.458  0.00  0.00    +0.000 OA
ATOM     20  H   UNL     1       2.238   9.193  17.377  0.00  0.00    +0.000 HD
ENDBRANCH  17  19
ENDBRANCH  11  17
ENDBRANCH   1  14
BRANCH   6  21
ATOM     21  O   UNL     1      -4.936  12.460  22.844  0.00  0.00    +0.000 OA
BRANCH  21  22
ATOM     22  C   UNL     1      -3.629  12.930  22.895  0.00  0.00    +0.000 A 
ATOM     23  C   UNL     1      -2.564  12.019  22.851  0.00  0.00    +0.000 A 
ATOM     24  C   UNL     1      -1.230  12.437  22.930  0.00  0.00    +0.000 A 
ATOM     25  C   UNL     1      -0.919  13.791  23.005  0.00  0.00    +0.000 A 
ATOM     26  C   UNL     1      -1.958  14.703  23.005  0.00  0.00    +0.000 A 
ATOM     27  C   UNL     1      -3.298  14.279  22.948  0.00  0.00    +0.000 A 
ATOM     28  C   UNL     1      -4.127  15.509  23.003  0.00  0.00    +0.000 C 
ATOM     29  O   UNL     1      -5.321  15.547  22.995  0.00  0.00    +0.000 OA
ATOM     30  N   UNL     1      -3.249  16.584  23.096  0.00  0.00    +0.000 N 
ATOM     31  C   UNL     1      -3.648  17.974  23.165  0.00  0.00    +0.000 C 
ATOM     32  C   UNL     1      -1.862  16.193  23.070  0.00  0.00    +0.000 C 
ENDBRANCH  21  22
ENDBRANCH   6  21
TORSDOF 6
ENDMDL
MODEL 9
REMARK VINA RESULT:      -7.2      5.290      8.551
REMARK  Name = 
REMARK  8 active torsions:
REMARK  status: ('A' for Active; 'I' for Inactive)
REMARK    1  A    between atoms: C_1  and  O_2
REMARK    2  A    between atoms: O_2  and  C_3
REMARK    3  A    between atoms: C_5  and  C_6
REMARK    4  A    between atoms: C_6  and  O_8
REMARK    5  A    between atoms: C_11  and  N_12
REMARK    6  A    between atoms: C_17  and  O_18
REMARK    7  A    between atoms: O_18  and  C_19
REMARK    8  A    between atoms: N_27  and  C_28
REMARK                            x       y       z     vdW  Elec       q    Type
REMARK                         _______ _______ _______ _____ _____    ______ ____
ROOT
ATOM      1  N   UNL     1      -3.950  12.083  17.323  0.00  0.00    +0.000 N 
ATOM      2  C   UNL     1      -5.093  12.258  18.136  0.00  0.00    +0.000 A 
ATOM      3  N   UNL     1      -6.274  12.272  17.498  0.00  0.00    +0.000 NA
ATOM      4  C   UNL     1      -7.380  12.136  18.257  0.00  0.00    +0.000 A 
ATOM      5  C   UNL     1      -7.380  12.008  19.624  0.00  0.00    +0.000 A 
ATOM      6  C   UNL     1      -6.129  12.051  20.203  0.00  0.00    +0.000 A 
ATOM      7  N   UNL     1      -5.012  12.205  19.469  0.00  0.00    +0.000 NA
ATOM      8  H   UNL     1      -4.313  11.744  16.439  0.00  0.00    +0.000 HD
ENDROOT
BRANCH   1  14
ATOM      9  C   UNL     1      -1.755  12.038  18.517  0.00  0.00    +0.000 A 
ATOM     10  C   UNL     1      -0.527  11.380  18.724  0.00  0.00    +0.000 A 
ATOM     11  C   UNL     1      -0.245  10.142  18.186  0.00  0.00    +0.000 A 
ATOM     12  C   UNL     1      -1.247   9.495  17.493  0.00  0.00    +0.000 A 
ATOM     13  C   UNL     1      -2.478  10.135  17.276  0.00  0.00    +0.000 A 
ATOM     14  C   UNL     1      -2.733  11.445  17.695  0.00  0.00    +0.000 A 
BRANCH   9  16
ATOM     15  C   UNL     1      -0.776  13.703  19.853  0.00  0.00    +0.000 C 
ATOM     16  O   UNL     1      -1.923  13.293  19.065  0.00  0.00    +0.000 OA
ENDBRANCH   9  16
BRANCH  11  17
ATOM     17  C   UNL     1       1.123   9.614  18.422  0.00  0.00    +0.000 C 
ATOM     18  O   UNL     1       1.426   9.017  19.439  0.00  0.00    +0.000 OA
BRANCH  17  19
ATOM     19  O   UNL     1       2.015   9.928  17.455  0.00  0.00    +0.000 OA
ATOM     20  H   UNL     1       2.891   9.519  17.526  0.00  0.00    +0.000 HD
ENDBRANCH  17  19
ENDBRANCH  11  17
ENDBRANCH   1  14
BRANCH   6  21
ATOM     21  O   UNL     1      -5.983  11.819  21.576  0.00  0.00    +0.000 OA
BRANCH  21  22
ATOM     22  C   UNL     1      -5.996  12.942  22.394  0.00  0.00    +0.000 A 
ATOM     23  C   UNL     1      -7.220  13.529  22.744  0.00  0.00    +0.000 A 
ATOM     24  C   UNL     1      -7.289  14.679  23.539  0.00  0.00    +0.000 A 
ATOM     25  C   UNL     1      -6.129  15.250  24.052  0.00  0.00    +0.000 A 
ATOM     26  C   UNL     1      -4.916  14.657  23.752  0.00  0.00    +0.000 A 
ATOM     27  C   UNL     1      -4.850  13.514  22.934  0.00  0.00    +0.000 A 
ATOM     28  C   UNL     1      -3.410  13.181  22.801  0.00  0.00    +0.000 C 
ATOM     29  O   UNL     1      -2.958  12.278  22.163  0.00  0.00    +0.000 OA
ATOM     30  N   UNL     1      -2.706  14.134  23.530  0.00  0.00    +0.000 N 
ATOM     31  C   UNL     1      -1.265  14.171  23.669  0.00  0.00    +0.000 C 
ATOM     32  C   UNL     1      -3.556  15.088  24.196  0.00  0.00    +0.000 C 
ENDBRANCH  21  22
ENDBRANCH   6  21
TORSDOF 6
ENDMDL
