MODEL 1
REMARK VINA RESULT:      -8.6      0.000      0.000
REMARK  Name = 
REMARK  6 active torsions:
REMARK  status: ('A' for Active; 'I' for Inactive)
REMARK    1  A    between atoms: N_3  and  C_4
REMARK    2  A    between atoms: C_8  and  C_9
REMARK    3  A    between atoms: C_9  and  O_11
REMARK    4  A    between atoms: N_13  and  C_14
REMARK    5  A    between atoms: C_17  and  O_18
REMARK    6  A    between atoms: O_18  and  C_19
REMARK                            x       y       z     vdW  Elec       q    Type
REMARK                         _______ _______ _______ _____ _____    ______ ____
ROOT
ATOM      1  O   UNL     1       8.701   8.118  18.902  0.00  0.00    +0.000 OA
ATOM      2  C   UNL     1       8.196   8.736  17.975  0.00  0.00    +0.000 C 
ATOM      3  N   UNL     1       8.495  10.047  17.636  0.00  0.00    +0.000 N 
ATOM      4  N   UNL     1       7.187   8.222  17.183  0.00  0.00    +0.000 N 
ATOM      5  H   UNL     1       7.691  10.558  17.294  0.00  0.00    +0.000 HD
ATOM      6  H   UNL     1       7.202   8.528  16.221  0.00  0.00    +0.000 HD
ENDROOT
BRANCH   3   7
ATOM      7  C   UNL     1       9.430  10.783  18.398  0.00  0.00    +0.000 A 
ATOM      8  C   UNL     1      10.687  11.059  17.858  0.00  0.00    +0.000 A 
ATOM      9  C   UNL     1      11.581  11.879  18.551  0.00  0.00    +0.000 A 
ATOM     10  C   UNL     1      11.239  12.390  19.803  0.00  0.00    +0.000 A 
ATOM     11  C   UNL     1       9.999  12.076  20.370  0.00  0.00    +0.000 A 
ATOM     12  C   UNL     1       9.100  11.264  19.671  0.00  0.00    +0.000 A 
BRANCH  11  13
ATOM     13  C   UNL     1       9.695  12.599  21.730  0.00  0.00    +0.000 C 
ATOM     14  O   UNL     1       9.859  13.769  22.034  0.00  0.00    +0.000 OA
BRANCH  13  15
ATOM     15  O   UNL     1       9.192  11.683  22.572  0.00  0.00    +0.000 OA
ATOM     16  H   UNL     1       9.641  11.616  23.439  0.00  0.00    +0.000 HD
ENDBRANCH  13  15
ENDBRANCH  11  13
ENDBRANCH   3   7
BRANCH   4  17
ATOM     17  C   UNL     1       6.626   6.901  17.466  0.00  0.00    +0.000 C 
ATOM     18  C   UNL     1       5.091   6.954  17.468  0.00  0.00    +0.000 C 
ATOM     19  C   UNL     1       4.471   5.573  17.688  0.00  0.00    +0.000 C 
ATOM     20  C   UNL     1       4.957   4.581  16.624  0.00  0.00    +0.000 C 
ATOM     21  C   UNL     1       6.484   4.477  16.712  0.00  0.00    +0.000 C 
ATOM     22  C   UNL     1       7.148   5.836  16.487  0.00  0.00    +0.000 C 
BRANCH  20  23
ATOM     23  O   UNL     1       4.425   3.271  16.855  0.00  0.00    +0.000 OA
BRANCH  23  24
ATOM     24  C   UNL     1       3.460   3.093  17.806  0.00  0.00    +0.000 A 
ATOM     25  C   UNL     1       2.088   3.316  17.653  0.00  0.00    +0.000 A 
ATOM     26  C   UNL     1       1.223   3.155  18.742  0.00  0.00    +0.000 A 
ATOM     27  C   UNL     1       1.729   2.762  19.976  0.00  0.00    +0.000 A 
ATOM     28  F   UNL     1       0.902   2.645  21.022  0.00  0.00    +0.000 F 
ATOM     29  C   UNL     1       3.081   2.499  20.136  0.00  0.00    +0.000 A 
ATOM     30  C   UNL     1       3.943   2.661  19.048  0.00  0.00    +0.000 A 
ENDBRANCH  23  24
ENDBRANCH  20  23
ENDBRANCH   4  17
TORSDOF 6
ENDMDL
MODEL 2
REMARK VINA RESULT:      -8.4      2.077      2.430
REMARK  Name = 
REMARK  6 active torsions:
REMARK  status: ('A' for Active; 'I' for Inactive)
REMARK    1  A    between atoms: N_3  and  C_4
REMARK    2  A    between atoms: C_8  and  C_9
REMARK    3  A    between atoms: C_9  and  O_11
REMARK    4  A    between atoms: N_13  and  C_14
REMARK    5  A    between atoms: C_17  and  O_18
REMARK    6  A    between atoms: O_18  and  C_19
REMARK                            x       y       z     vdW  Elec       q    Type
REMARK                         _______ _______ _______ _____ _____    ______ ____
ROOT
ATOM      1  O   UNL     1       8.344   9.646  17.200  0.00  0.00    +0.000 OA
ATOM      2  C   UNL     1       8.745   9.368  18.322  0.00  0.00    +0.000 C 
ATOM      3  N   UNL     1       9.499  10.207  19.127  0.00  0.00    +0.000 N 
ATOM      4  N   UNL     1       8.562   8.130  18.905  0.00  0.00    +0.000 N 
ATOM      5  H   UNL     1      10.179   9.709  19.687  0.00  0.00    +0.000 HD
ATOM      6  H   UNL     1       8.444   8.144  19.908  0.00  0.00    +0.000 HD
ENDROOT
BRANCH   3   7
ATOM      7  C   UNL     1       9.883  11.485  18.662  0.00  0.00    +0.000 A 
ATOM      8  C   UNL     1      11.107  11.636  18.007  0.00  0.00    +0.000 A 
ATOM      9  C   UNL     1      11.451  12.866  17.444  0.00  0.00    +0.000 A 
ATOM     10  C   UNL     1      10.595  13.961  17.570  0.00  0.00    +0.000 A 
ATOM     11  C   UNL     1       9.389  13.827  18.268  0.00  0.00    +0.000 A 
ATOM     12  C   UNL     1       9.040  12.592  18.822  0.00  0.00    +0.000 A 
BRANCH  11  13
ATOM     13  C   UNL     1       8.530  15.032  18.423  0.00  0.00    +0.000 C 
ATOM     14  O   UNL     1       8.269  15.515  19.512  0.00  0.00    +0.000 OA
BRANCH  13  15
ATOM     15  O   UNL     1       8.105  15.558  17.263  0.00  0.00    +0.000 OA
ATOM     16  H   UNL     1       7.920  16.519  17.280  0.00  0.00    +0.000 HD
ENDBRANCH  13  15
ENDBRANCH  11  13
ENDBRANCH   3   7
BRANCH   4  17
ATOM     17  C   UNL     1       7.911   7.051  18.160  0.00  0.00    +0.000 C 
ATOM     18  C   UNL     1       7.807   5.785  19.024  0.00  0.00    +0.000 C 
ATOM     19  C   UNL     1       7.064   4.659  18.301  0.00  0.00    +0.000 C 
ATOM     20  C   UNL     1       5.663   5.116  17.873  0.00  0.00    +0.000 C 
ATOM     21  C   UNL     1       5.805   6.320  16.936  0.00  0.00    +0.000 C 
ATOM     22  C   UNL     1       6.535   7.477  17.622  0.00  0.00    +0.000 C 
BRANCH  20  23
ATOM     23  O   UNL     1       4.983   4.087  17.146  0.00  0.00    +0.000 OA
BRANCH  23  24
ATOM     24  C   UNL     1       3.728   3.706  17.530  0.00  0.00    +0.000 A 
ATOM     25  C   UNL     1       2.586   4.512  17.565  0.00  0.00    +0.000 A 
ATOM     26  C   UNL     1       1.377   3.999  18.049  0.00  0.00    +0.000 A 
ATOM     27  C   UNL     1       1.309   2.681  18.486  0.00  0.00    +0.000 A 
ATOM     28  F   UNL     1       0.159   2.208  18.981  0.00  0.00    +0.000 F 
ATOM     29  C   UNL     1       2.422   1.856  18.422  0.00  0.00    +0.000 A 
ATOM     30  C   UNL     1       3.628   2.370  17.940  0.00  0.00    +0.000 A 
ENDBRANCH  23  24
ENDBRANCH  20  23
ENDBRANCH   4  17
TORSDOF 6
ENDMDL
MODEL 3
REMARK VINA RESULT:      -8.2      2.103      2.534
REMARK  Name = 
REMARK  6 active torsions:
REMARK  status: ('A' for Active; 'I' for Inactive)
REMARK    1  A    between atoms: N_3  and  C_4
REMARK    2  A    between atoms: C_8  and  C_9
REMARK    3  A    between atoms: C_9  and  O_11
REMARK    4  A    between atoms: N_13  and  C_14
REMARK    5  A    between atoms: C_17  and  O_18
REMARK    6  A    between atoms: O_18  and  C_19
REMARK                            x       y       z     vdW  Elec       q    Type
REMARK                         _______ _______ _______ _____ _____    ______ ____
ROOT
ATOM      1  O   UNL     1       8.381   9.600  17.065  0.00  0.00    +0.000 OA
ATOM      2  C   UNL     1       8.730   9.312  18.202  0.00  0.00    +0.000 C 
ATOM      3  N   UNL     1       9.501  10.118  19.026  0.00  0.00    +0.000 N 
ATOM      4  N   UNL     1       8.462   8.091  18.789  0.00  0.00    +0.000 N 
ATOM      5  H   UNL     1      10.135   9.590  19.612  0.00  0.00    +0.000 HD
ATOM      6  H   UNL     1       8.312   8.121  19.787  0.00  0.00    +0.000 HD
ENDROOT
BRANCH   3   7
ATOM      7  C   UNL     1       9.968  11.369  18.563  0.00  0.00    +0.000 A 
ATOM      8  C   UNL     1      11.287  11.487  18.122  0.00  0.00    +0.000 A 
ATOM      9  C   UNL     1      11.731  12.685  17.559  0.00  0.00    +0.000 A 
ATOM     10  C   UNL     1      10.873  13.782  17.473  0.00  0.00    +0.000 A 
ATOM     11  C   UNL     1       9.565  13.683  17.959  0.00  0.00    +0.000 A 
ATOM     12  C   UNL     1       9.117  12.480  18.512  0.00  0.00    +0.000 A 
BRANCH  11  13
ATOM     13  C   UNL     1       8.699  14.892  17.895  0.00  0.00    +0.000 C 
ATOM     14  O   UNL     1       9.066  15.983  18.298  0.00  0.00    +0.000 OA
BRANCH  13  15
ATOM     15  O   UNL     1       7.503  14.682  17.323  0.00  0.00    +0.000 OA
ATOM     16  H   UNL     1       6.778  15.259  17.640  0.00  0.00    +0.000 HD
ENDBRANCH  13  15
ENDBRANCH  11  13
ENDBRANCH   3   7
BRANCH   4  17
ATOM     17  C   UNL     1       7.779   7.041  18.032  0.00  0.00    +0.000 C 
ATOM     18  C   UNL     1       7.610   5.779  18.891  0.00  0.00    +0.000 C 
ATOM     19  C   UNL     1       6.833   4.686  18.154  0.00  0.00    +0.000 C 
ATOM     20  C   UNL     1       5.459   5.200  17.705  0.00  0.00    +0.000 C 
ATOM     21  C   UNL     1       5.665   6.399  16.773  0.00  0.00    +0.000 C 
ATOM     22  C   UNL     1       6.430   7.524  17.473  0.00  0.00    +0.000 C 
BRANCH  20  23
ATOM     23  O   UNL     1       4.748   4.201  16.966  0.00  0.00    +0.000 OA
BRANCH  23  24
ATOM     24  C   UNL     1       3.650   3.605  17.518  0.00  0.00    +0.000 A 
ATOM     25  C   UNL     1       3.470   2.238  17.750  0.00  0.00    +0.000 A 
ATOM     26  C   UNL     1       2.257   1.765  18.263  0.00  0.00    +0.000 A 
ATOM     27  C   UNL     1       1.232   2.658  18.552  0.00  0.00    +0.000 A 
ATOM     28  F   UNL     1       0.061   2.195  19.009  0.00  0.00    +0.000 F 
ATOM     29  C   UNL     1       1.406   4.021  18.366  0.00  0.00    +0.000 A 
ATOM     30  C   UNL     1       2.618   4.491  17.852  0.00  0.00    +0.000 A 
ENDBRANCH  23  24
ENDBRANCH  20  23
ENDBRANCH   4  17
TORSDOF 6
ENDMDL
MODEL 4
REMARK VINA RESULT:      -8.0      7.496      9.974
REMARK  Name = 
REMARK  6 active torsions:
REMARK  status: ('A' for Active; 'I' for Inactive)
REMARK    1  A    between atoms: N_3  and  C_4
REMARK    2  A    between atoms: C_8  and  C_9
REMARK    3  A    between atoms: C_9  and  O_11
REMARK    4  A    between atoms: N_13  and  C_14
REMARK    5  A    between atoms: C_17  and  O_18
REMARK    6  A    between atoms: O_18  and  C_19
REMARK                            x       y       z     vdW  Elec       q    Type
REMARK                         _______ _______ _______ _____ _____    ______ ____
ROOT
ATOM      1  O   UNL     1       1.960   7.284  18.617  0.00  0.00    +0.000 OA
ATOM      2  C   UNL     1       2.417   7.037  19.725  0.00  0.00    +0.000 C 
ATOM      3  N   UNL     1       3.416   6.112  19.985  0.00  0.00    +0.000 N 
ATOM      4  N   UNL     1       1.931   7.603  20.887  0.00  0.00    +0.000 N 
ATOM      5  H   UNL     1       3.291   5.635  20.869  0.00  0.00    +0.000 HD
ATOM      6  H   UNL     1       2.622   7.761  21.607  0.00  0.00    +0.000 HD
ENDROOT
BRANCH   3   7
ATOM      7  C   UNL     1       3.971   5.349  18.933  0.00  0.00    +0.000 A 
ATOM      8  C   UNL     1       3.199   4.357  18.325  0.00  0.00    +0.000 A 
ATOM      9  C   UNL     1       3.691   3.672  17.213  0.00  0.00    +0.000 A 
ATOM     10  C   UNL     1       4.972   3.942  16.730  0.00  0.00    +0.000 A 
ATOM     11  C   UNL     1       5.769   4.901  17.367  0.00  0.00    +0.000 A 
ATOM     12  C   UNL     1       5.271   5.595  18.474  0.00  0.00    +0.000 A 
BRANCH  11  13
ATOM     13  C   UNL     1       7.147   5.122  16.853  0.00  0.00    +0.000 C 
ATOM     14  O   UNL     1       7.468   6.132  16.248  0.00  0.00    +0.000 OA
BRANCH  13  15
ATOM     15  O   UNL     1       8.009   4.136  17.148  0.00  0.00    +0.000 OA
ATOM     16  H   UNL     1       8.335   4.124  18.071  0.00  0.00    +0.000 HD
ENDBRANCH  13  15
ENDBRANCH  11  13
ENDBRANCH   3   7
BRANCH   4  17
ATOM     17  C   UNL     1       0.778   8.503  20.845  0.00  0.00    +0.000 C 
ATOM     18  C   UNL     1       0.464   9.046  22.247  0.00  0.00    +0.000 C 
ATOM     19  C   UNL     1      -0.691  10.049  22.227  0.00  0.00    +0.000 C 
ATOM     20  C   UNL     1      -0.388  11.212  21.274  0.00  0.00    +0.000 C 
ATOM     21  C   UNL     1      -0.175  10.647  19.864  0.00  0.00    +0.000 C 
ATOM     22  C   UNL     1       0.980   9.645  19.835  0.00  0.00    +0.000 C 
BRANCH  20  23
ATOM     23  O   UNL     1      -1.488  12.126  21.206  0.00  0.00    +0.000 OA
BRANCH  23  24
ATOM     24  C   UNL     1      -1.791  12.900  22.291  0.00  0.00    +0.000 A 
ATOM     25  C   UNL     1      -0.944  13.811  22.927  0.00  0.00    +0.000 A 
ATOM     26  C   UNL     1      -1.372  14.486  24.076  0.00  0.00    +0.000 A 
ATOM     27  C   UNL     1      -2.647  14.257  24.579  0.00  0.00    +0.000 A 
ATOM     28  F   UNL     1      -3.037  14.878  25.699  0.00  0.00    +0.000 F 
ATOM     29  C   UNL     1      -3.516  13.385  23.939  0.00  0.00    +0.000 A 
ATOM     30  C   UNL     1      -3.085  12.712  22.792  0.00  0.00    +0.000 A 
ENDBRANCH  23  24
ENDBRANCH  20  23
ENDBRANCH   4  17
TORSDOF 6
ENDMDL
MODEL 5
REMARK VINA RESULT:      -8.0      1.837      2.322
REMARK  Name = 
REMARK  6 active torsions:
REMARK  status: ('A' for Active; 'I' for Inactive)
REMARK    1  A    between atoms: N_3  and  C_4
REMARK    2  A    between atoms: C_8  and  C_9
REMARK    3  A    between atoms: C_9  and  O_11
REMARK    4  A    between atoms: N_13  and  C_14
REMARK    5  A    between atoms: C_17  and  O_18
REMARK    6  A    between atoms: O_18  and  C_19
REMARK                            x       y       z     vdW  Elec       q    Type
REMARK                         _______ _______ _______ _____ _____    ______ ____
ROOT
ATOM      1  O   UNL     1       8.181   9.814  17.494  0.00  0.00    +0.000 OA
ATOM      2  C   UNL     1       8.714   9.442  18.531  0.00  0.00    +0.000 C 
ATOM      3  N   UNL     1       9.507  10.234  19.346  0.00  0.00    +0.000 N 
ATOM      4  N   UNL     1       8.654   8.140  18.987  0.00  0.00    +0.000 N 
ATOM      5  H   UNL     1      10.268   9.721  19.774  0.00  0.00    +0.000 HD
ATOM      6  H   UNL     1       8.644   8.039  19.992  0.00  0.00    +0.000 HD
ENDROOT
BRANCH   3   7
ATOM      7  C   UNL     1       9.777  11.575  18.991  0.00  0.00    +0.000 A 
ATOM      8  C   UNL     1      10.595  11.842  17.892  0.00  0.00    +0.000 A 
ATOM      9  C   UNL     1      10.780  13.157  17.461  0.00  0.00    +0.000 A 
ATOM     10  C   UNL     1      10.185  14.214  18.151  0.00  0.00    +0.000 A 
ATOM     11  C   UNL     1       9.404  13.954  19.283  0.00  0.00    +0.000 A 
ATOM     12  C   UNL     1       9.209  12.636  19.707  0.00  0.00    +0.000 A 
BRANCH  11  13
ATOM     13  C   UNL     1       8.830  15.112  20.021  0.00  0.00    +0.000 C 
ATOM     14  O   UNL     1       9.049  15.310  21.204  0.00  0.00    +0.000 OA
BRANCH  13  15
ATOM     15  O   UNL     1       8.089  15.935  19.262  0.00  0.00    +0.000 OA
ATOM     16  H   UNL     1       8.587  16.473  18.613  0.00  0.00    +0.000 HD
ENDBRANCH  13  15
ENDBRANCH  11  13
ENDBRANCH   3   7
BRANCH   4  17
ATOM     17  C   UNL     1       7.981   7.110  18.195  0.00  0.00    +0.000 C 
ATOM     18  C   UNL     1       7.880   5.798  18.989  0.00  0.00    +0.000 C 
ATOM     19  C   UNL     1       7.114   4.721  18.218  0.00  0.00    +0.000 C 
ATOM     20  C   UNL     1       5.711   5.212  17.841  0.00  0.00    +0.000 C 
ATOM     21  C   UNL     1       5.848   6.466  16.970  0.00  0.00    +0.000 C 
ATOM     22  C   UNL     1       6.600   7.576  17.706  0.00  0.00    +0.000 C 
BRANCH  20  23
ATOM     23  O   UNL     1       5.008   4.231  17.070  0.00  0.00    +0.000 OA
BRANCH  23  24
ATOM     24  C   UNL     1       3.873   3.661  17.576  0.00  0.00    +0.000 A 
ATOM     25  C   UNL     1       3.734   2.350  18.039  0.00  0.00    +0.000 A 
ATOM     26  C   UNL     1       2.485   1.884  18.467  0.00  0.00    +0.000 A 
ATOM     27  C   UNL     1       1.384   2.730  18.440  0.00  0.00    +0.000 A 
ATOM     28  F   UNL     1       0.185   2.267  18.817  0.00  0.00    +0.000 F 
ATOM     29  C   UNL     1       1.511   4.046  18.020  0.00  0.00    +0.000 A 
ATOM     30  C   UNL     1       2.758   4.509  17.592  0.00  0.00    +0.000 A 
ENDBRANCH  23  24
ENDBRANCH  20  23
ENDBRANCH   4  17
TORSDOF 6
ENDMDL
MODEL 6
REMARK VINA RESULT:      -8.0      8.062      9.205
REMARK  Name = 
REMARK  6 active torsions:
REMARK  status: ('A' for Active; 'I' for Inactive)
REMARK    1  A    between atoms: N_3  and  C_4
REMARK    2  A    between atoms: C_8  and  C_9
REMARK    3  A    between atoms: C_9  and  O_11
REMARK    4  A    between atoms: N_13  and  C_14
REMARK    5  A    between atoms: C_17  and  O_18
REMARK    6  A    between atoms: O_18  and  C_19
REMARK                            x       y       z     vdW  Elec       q    Type
REMARK                         _______ _______ _______ _____ _____    ______ ____
ROOT
ATOM      1  O   UNL     1       0.655  11.314  21.653  0.00  0.00    +0.000 OA
ATOM      2  C   UNL     1      -0.203  11.229  20.784  0.00  0.00    +0.000 C 
ATOM      3  N   UNL     1      -1.458  11.813  20.847  0.00  0.00    +0.000 N 
ATOM      4  N   UNL     1      -0.053  10.461  19.646  0.00  0.00    +0.000 N 
ATOM      5  H   UNL     1      -2.178  11.247  20.416  0.00  0.00    +0.000 HD
ATOM      6  H   UNL     1      -0.506  10.827  18.821  0.00  0.00    +0.000 HD
ENDROOT
BRANCH   3   7
ATOM      7  C   UNL     1      -1.842  12.555  21.986  0.00  0.00    +0.000 A 
ATOM      8  C   UNL     1      -1.167  13.739  22.292  0.00  0.00    +0.000 A 
ATOM      9  C   UNL     1      -1.605  14.541  23.348  0.00  0.00    +0.000 A 
ATOM     10  C   UNL     1      -2.691  14.144  24.129  0.00  0.00    +0.000 A 
ATOM     11  C   UNL     1      -3.340  12.934  23.856  0.00  0.00    +0.000 A 
ATOM     12  C   UNL     1      -2.908  12.137  22.792  0.00  0.00    +0.000 A 
BRANCH  11  13
ATOM     13  C   UNL     1      -4.461  12.523  24.745  0.00  0.00    +0.000 C 
ATOM     14  O   UNL     1      -5.503  12.059  24.314  0.00  0.00    +0.000 OA
BRANCH  13  15
ATOM     15  O   UNL     1      -4.206  12.670  26.055  0.00  0.00    +0.000 OA
ATOM     16  H   UNL     1      -3.714  13.479  26.300  0.00  0.00    +0.000 HD
ENDBRANCH  13  15
ENDBRANCH  11  13
ENDBRANCH   3   7
BRANCH   4  17
ATOM     17  C   UNL     1       1.149   9.648  19.456  0.00  0.00    +0.000 C 
ATOM     18  C   UNL     1       1.033   8.323  20.226  0.00  0.00    +0.000 C 
ATOM     19  C   UNL     1       2.242   7.417  19.988  0.00  0.00    +0.000 C 
ATOM     20  C   UNL     1       2.429   7.136  18.492  0.00  0.00    +0.000 C 
ATOM     21  C   UNL     1       2.638   8.469  17.765  0.00  0.00    +0.000 C 
ATOM     22  C   UNL     1       1.446   9.406  17.967  0.00  0.00    +0.000 C 
BRANCH  20  23
ATOM     23  O   UNL     1       3.592   6.334  18.256  0.00  0.00    +0.000 OA
BRANCH  23  24
ATOM     24  C   UNL     1       3.479   4.972  18.229  0.00  0.00    +0.000 A 
ATOM     25  C   UNL     1       2.555   4.227  17.490  0.00  0.00    +0.000 A 
ATOM     26  C   UNL     1       2.514   2.834  17.616  0.00  0.00    +0.000 A 
ATOM     27  C   UNL     1       3.401   2.189  18.470  0.00  0.00    +0.000 A 
ATOM     28  F   UNL     1       3.332   0.859  18.613  0.00  0.00    +0.000 F 
ATOM     29  C   UNL     1       4.350   2.908  19.181  0.00  0.00    +0.000 A 
ATOM     30  C   UNL     1       4.388   4.300  19.055  0.00  0.00    +0.000 A 
ENDBRANCH  23  24
ENDBRANCH  20  23
ENDBRANCH   4  17
TORSDOF 6
ENDMDL
MODEL 7
REMARK VINA RESULT:      -7.8      7.975     10.413
REMARK  Name = 
REMARK  6 active torsions:
REMARK  status: ('A' for Active; 'I' for Inactive)
REMARK    1  A    between atoms: N_3  and  C_4
REMARK    2  A    between atoms: C_8  and  C_9
REMARK    3  A    between atoms: C_9  and  O_11
REMARK    4  A    between atoms: N_13  and  C_14
REMARK    5  A    between atoms: C_17  and  O_18
REMARK    6  A    between atoms: O_18  and  C_19
REMARK                            x       y       z     vdW  Elec       q    Type
REMARK                         _______ _______ _______ _____ _____    ______ ____
ROOT
ATOM      1  O   UNL     1       2.091   8.108  19.377  0.00  0.00    +0.000 OA
ATOM      2  C   UNL     1       1.981   7.446  20.400  0.00  0.00    +0.000 C 
ATOM      3  N   UNL     1       2.330   6.111  20.525  0.00  0.00    +0.000 N 
ATOM      4  N   UNL     1       1.410   7.935  21.559  0.00  0.00    +0.000 N 
ATOM      5  H   UNL     1       1.714   5.599  21.143  0.00  0.00    +0.000 HD
ATOM      6  H   UNL     1       1.803   7.570  22.415  0.00  0.00    +0.000 HD
ENDROOT
BRANCH   3   7
ATOM      7  C   UNL     1       2.835   5.400  19.413  0.00  0.00    +0.000 A 
ATOM      8  C   UNL     1       1.962   4.646  18.627  0.00  0.00    +0.000 A 
ATOM      9  C   UNL     1       2.423   4.030  17.463  0.00  0.00    +0.000 A 
ATOM     10  C   UNL     1       3.767   4.128  17.101  0.00  0.00    +0.000 A 
ATOM     11  C   UNL     1       4.657   4.843  17.911  0.00  0.00    +0.000 A 
ATOM     12  C   UNL     1       4.192   5.469  19.071  0.00  0.00    +0.000 A 
BRANCH  11  13
ATOM     13  C   UNL     1       6.091   4.880  17.516  0.00  0.00    +0.000 C 
ATOM     14  O   UNL     1       6.500   5.565  16.594  0.00  0.00    +0.000 OA
BRANCH  13  15
ATOM     15  O   UNL     1       6.893   4.129  18.288  0.00  0.00    +0.000 OA
ATOM     16  H   UNL     1       7.203   4.555  19.113  0.00  0.00    +0.000 HD
ENDBRANCH  13  15
ENDBRANCH  11  13
ENDBRANCH   3   7
BRANCH   4  17
ATOM     17  C   UNL     1       0.846   9.285  21.594  0.00  0.00    +0.000 C 
ATOM     18  C   UNL     1      -0.078   9.515  20.387  0.00  0.00    +0.000 C 
ATOM     19  C   UNL     1      -0.743  10.892  20.432  0.00  0.00    +0.000 C 
ATOM     20  C   UNL     1      -1.531  11.076  21.735  0.00  0.00    +0.000 C 
ATOM     21  C   UNL     1      -0.564  10.937  22.916  0.00  0.00    +0.000 C 
ATOM     22  C   UNL     1       0.119   9.567  22.918  0.00  0.00    +0.000 C 
BRANCH  20  23
ATOM     23  O   UNL     1      -2.110  12.384  21.809  0.00  0.00    +0.000 OA
BRANCH  23  24
ATOM     24  C   UNL     1      -3.357  12.540  22.346  0.00  0.00    +0.000 A 
ATOM     25  C   UNL     1      -4.541  12.790  21.646  0.00  0.00    +0.000 A 
ATOM     26  C   UNL     1      -5.739  12.996  22.340  0.00  0.00    +0.000 A 
ATOM     27  C   UNL     1      -5.753  12.943  23.729  0.00  0.00    +0.000 A 
ATOM     28  F   UNL     1      -6.895  13.177  24.388  0.00  0.00    +0.000 F 
ATOM     29  C   UNL     1      -4.596  12.657  24.439  0.00  0.00    +0.000 A 
ATOM     30  C   UNL     1      -3.400  12.453  23.743  0.00  0.00    +0.000 A 
ENDBRANCH  23  24
ENDBRANCH  20  23
ENDBRANCH   4  17
TORSDOF 6
ENDMDL
MODEL 8
REMARK VINA RESULT:      -7.8      7.455      9.969
REMARK  Name = 
REMARK  6 active torsions:
REMARK  status: ('A' for Active; 'I' for Inactive)
REMARK    1  A    between atoms: N_3  and  C_4
REMARK    2  A    between atoms: C_8  and  C_9
REMARK    3  A    between atoms: C_9  and  O_11
REMARK    4  A    between atoms: N_13  and  C_14
REMARK    5  A    between atoms: C_17  and  O_18
REMARK    6  A    between atoms: O_18  and  C_19
REMARK                            x       y       z     vdW  Elec       q    Type
REMARK                         _______ _______ _______ _____ _____    ______ ____
ROOT
ATOM      1  O   UNL     1       2.060   7.322  18.675  0.00  0.00    +0.000 OA
ATOM      2  C   UNL     1       2.405   6.989  19.801  0.00  0.00    +0.000 C 
ATOM      3  N   UNL     1       3.297   5.968  20.089  0.00  0.00    +0.000 N 
ATOM      4  N   UNL     1       1.878   7.546  20.949  0.00  0.00    +0.000 N 
ATOM      5  H   UNL     1       3.062   5.468  20.937  0.00  0.00    +0.000 HD
ATOM      6  H   UNL     1       2.521   7.611  21.726  0.00  0.00    +0.000 HD
ENDROOT
BRANCH   3   7
ATOM      7  C   UNL     1       3.866   5.204  19.046  0.00  0.00    +0.000 A 
ATOM      8  C   UNL     1       3.041   4.402  18.255  0.00  0.00    +0.000 A 
ATOM      9  C   UNL     1       3.569   3.729  17.152  0.00  0.00    +0.000 A 
ATOM     10  C   UNL     1       4.931   3.818  16.860  0.00  0.00    +0.000 A 
ATOM     11  C   UNL     1       5.771   4.581  17.678  0.00  0.00    +0.000 A 
ATOM     12  C   UNL     1       5.239   5.265  18.776  0.00  0.00    +0.000 A 
BRANCH  11  13
ATOM     13  C   UNL     1       7.225   4.608  17.362  0.00  0.00    +0.000 C 
ATOM     14  O   UNL     1       8.083   4.418  18.206  0.00  0.00    +0.000 OA
BRANCH  13  15
ATOM     15  O   UNL     1       7.501   4.819  16.065  0.00  0.00    +0.000 OA
ATOM     16  H   UNL     1       8.203   5.477  15.885  0.00  0.00    +0.000 HD
ENDBRANCH  13  15
ENDBRANCH  11  13
ENDBRANCH   3   7
BRANCH   4  17
ATOM     17  C   UNL     1       0.814   8.547  20.864  0.00  0.00    +0.000 C 
ATOM     18  C   UNL     1       0.506   9.127  22.253  0.00  0.00    +0.000 C 
ATOM     19  C   UNL     1      -0.552  10.231  22.189  0.00  0.00    +0.000 C 
ATOM     20  C   UNL     1      -0.115  11.353  21.239  0.00  0.00    +0.000 C 
ATOM     21  C   UNL     1       0.091  10.760  19.841  0.00  0.00    +0.000 C 
ATOM     22  C   UNL     1       1.151   9.657  19.855  0.00  0.00    +0.000 C 
BRANCH  20  23
ATOM     23  O   UNL     1      -1.125  12.363  21.131  0.00  0.00    +0.000 OA
BRANCH  23  24
ATOM     24  C   UNL     1      -1.705  12.862  22.263  0.00  0.00    +0.000 A 
ATOM     25  C   UNL     1      -2.946  12.498  22.794  0.00  0.00    +0.000 A 
ATOM     26  C   UNL     1      -3.443  13.148  23.929  0.00  0.00    +0.000 A 
ATOM     27  C   UNL     1      -2.697  14.152  24.536  0.00  0.00    +0.000 A 
ATOM     28  F   UNL     1      -3.195  14.794  25.600  0.00  0.00    +0.000 F 
ATOM     29  C   UNL     1      -1.446  14.499  24.046  0.00  0.00    +0.000 A 
ATOM     30  C   UNL     1      -0.952  13.849  22.912  0.00  0.00    +0.000 A 
ENDBRANCH  23  24
ENDBRANCH  20  23
ENDBRANCH   4  17
TORSDOF 6
ENDMDL
MODEL 9
REMARK VINA RESULT:      -7.8      7.702     10.053
REMARK  Name = 
REMARK  6 active torsions:
REMARK  status: ('A' for Active; 'I' for Inactive)
REMARK    1  A    between atoms: N_3  and  C_4
REMARK    2  A    between atoms: C_8  and  C_9
REMARK    3  A    between atoms: C_9  and  O_11
REMARK    4  A    between atoms: N_13  and  C_14
REMARK    5  A    between atoms: C_17  and  O_18
REMARK    6  A    between atoms: O_18  and  C_19
REMARK                            x       y       z     vdW  Elec       q    Type
REMARK                         _______ _______ _______ _____ _____    ______ ____
ROOT
ATOM      1  O   UNL     1       2.308   7.365  20.217  0.00  0.00    +0.000 OA
ATOM      2  C   UNL     1       2.093   7.939  19.158  0.00  0.00    +0.000 C 
ATOM      3  N   UNL     1       2.530   7.506  17.916  0.00  0.00    +0.000 N 
ATOM      4  N   UNL     1       1.443   9.155  19.076  0.00  0.00    +0.000 N 
ATOM      5  H   UNL     1       2.775   8.269  17.298  0.00  0.00    +0.000 HD
ATOM      6  H   UNL     1       0.882   9.284  18.245  0.00  0.00    +0.000 HD
ENDROOT
BRANCH   3   7
ATOM      7  C   UNL     1       3.307   6.332  17.804  0.00  0.00    +0.000 A 
ATOM      8  C   UNL     1       2.682   5.086  17.885  0.00  0.00    +0.000 A 
ATOM      9  C   UNL     1       3.417   3.919  17.666  0.00  0.00    +0.000 A 
ATOM     10  C   UNL     1       4.786   3.989  17.407  0.00  0.00    +0.000 A 
ATOM     11  C   UNL     1       5.427   5.233  17.374  0.00  0.00    +0.000 A 
ATOM     12  C   UNL     1       4.688   6.401  17.583  0.00  0.00    +0.000 A 
BRANCH  11  13
ATOM     13  C   UNL     1       6.897   5.260  17.147  0.00  0.00    +0.000 C 
ATOM     14  O   UNL     1       7.438   6.103  16.451  0.00  0.00    +0.000 OA
BRANCH  13  15
ATOM     15  O   UNL     1       7.572   4.304  17.805  0.00  0.00    +0.000 OA
ATOM     16  H   UNL     1       8.547   4.394  17.794  0.00  0.00    +0.000 HD
ENDBRANCH  13  15
ENDBRANCH  11  13
ENDBRANCH   3   7
BRANCH   4  17
ATOM     17  C   UNL     1       1.024   9.853  20.291  0.00  0.00    +0.000 C 
ATOM     18  C   UNL     1       0.737  11.333  19.993  0.00  0.00    +0.000 C 
ATOM     19  C   UNL     1       0.225  12.076  21.228  0.00  0.00    +0.000 C 
ATOM     20  C   UNL     1      -1.035  11.403  21.788  0.00  0.00    +0.000 C 
ATOM     21  C   UNL     1      -0.691   9.958  22.166  0.00  0.00    +0.000 C 
ATOM     22  C   UNL     1      -0.184   9.171  20.956  0.00  0.00    +0.000 C 
BRANCH  20  23
ATOM     23  O   UNL     1      -1.488  12.060  22.977  0.00  0.00    +0.000 OA
BRANCH  23  24
ATOM     24  C   UNL     1      -2.803  12.411  23.095  0.00  0.00    +0.000 A 
ATOM     25  C   UNL     1      -3.544  12.481  24.279  0.00  0.00    +0.000 A 
ATOM     26  C   UNL     1      -4.908  12.791  24.237  0.00  0.00    +0.000 A 
ATOM     27  C   UNL     1      -5.525  13.040  23.016  0.00  0.00    +0.000 A 
ATOM     28  F   UNL     1      -6.838  13.300  22.981  0.00  0.00    +0.000 F 
ATOM     29  C   UNL     1      -4.797  13.013  21.836  0.00  0.00    +0.000 A 
ATOM     30  C   UNL     1      -3.435  12.702  21.880  0.00  0.00    +0.000 A 
ENDBRANCH  23  24
ENDBRANCH  20  23
ENDBRANCH   4  17
TORSDOF 6
ENDMDL
