MODEL 1
REMARK VINA RESULT:      -6.8      0.000      0.000
REMARK  Name = 
REMARK  15 active torsions:
REMARK  status: ('A' for Active; 'I' for Inactive)
REMARK    1  A    between atoms: CE_1  and  SD_2
REMARK    2  A    between atoms: SD_2  and  CG_3
REMARK    3  A    between atoms: CG_3  and  CB_4
REMARK    4  A    between atoms: CB_4  and  CA_5
REMARK    5  A    between atoms: CA_5  and  C_6
REMARK    6  A    between atoms: CA_5  and  N_8
REMARK    7  A    between atoms: C_9  and  CA_11
REMARK    8  A    between atoms: CA_11  and  CB_12
REMARK    9  A    between atoms: CA_11  and  N_19
REMARK   10  A    between atoms: CB_12  and  CG_13
REMARK   11  A    between atoms: C_20  and  O_22
REMARK   12  A    between atoms: O_22  and  C_23
REMARK   13  A    between atoms: C_23  and  C_24
REMARK   14  A    between atoms: C_23  and  C_25
REMARK   15  A    between atoms: C_23  and  C_26
REMARK                            x       y       z     vdW  Elec       q    Type
REMARK                         _______ _______ _______ _____ _____    ______ ____
ROOT
ATOM      1  CA  PHE A   1       2.627   7.243  18.493  0.00  0.00    +0.000 C 
ENDROOT
BRANCH   1   3
ATOM      2  N   PHE A   1       1.214   9.072  19.337  0.00  0.00    +0.000 N 
ATOM      3  C   PHE A   1       1.956   8.610  18.272  0.00  0.00    +0.000 C 
ATOM      4  O   PHE A   1       2.058   9.238  17.218  0.00  0.00    +0.000 OA
ATOM      5  H   PHE A   1       1.060   8.496  20.160  0.00  0.00    +0.000 HD
BRANCH   2   6
ATOM      6  CA  PHE A   1       0.636  10.409  19.344  0.00  0.00    +0.000 C 
BRANCH   6   7
ATOM      7  C   PHE A   1       1.019  11.077  20.655  0.00  0.00    +0.000 C 
ATOM      8  O   PHE A   1       0.393  10.925  21.702  0.00  0.00    +0.000 OA
ENDBRANCH   6   7
BRANCH   6   9
ATOM      9  CB  PHE A   1      -0.883  10.327  19.196  0.00  0.00    +0.000 C 
BRANCH   9  10
ATOM     10  CG  PHE A   1      -1.372  10.081  17.770  0.00  0.00    +0.000 C 
BRANCH  10  12
ATOM     11  CE  PHE A   1      -3.499  11.683  18.567  0.00  0.00    +0.000 C 
ATOM     12  SD  PHE A   1      -3.176  10.216  17.551  0.00  0.00    +0.000 S 
ENDBRANCH  10  12
ENDBRANCH   9  10
ENDBRANCH   6   9
ENDBRANCH   2   6
ENDBRANCH   1   3
BRANCH   1  13
ATOM     13  N   PHE A   1       4.036   7.314  18.131  0.00  0.00    +0.000 N 
ATOM     14  C   UNK A   0       4.601   6.340  17.369  0.00  0.00    +0.000 C 
ATOM     15  O   UNK A   0       3.948   5.398  16.929  0.00  0.00    +0.000 OA
ATOM     16  H   PHE A   1       4.614   8.066  18.499  0.00  0.00    +0.000 HD
BRANCH  14  17
ATOM     17  O   UNK A   0       5.932   6.526  17.201  0.00  0.00    +0.000 OA
BRANCH  17  18
ATOM     18  C   UNK A   0       6.833   5.811  18.095  0.00  0.00    +0.000 C 
ATOM     19  C   UNK A   0       6.086   5.213  19.297  0.00  0.00    +0.000 C 
ATOM     20  C   UNK A   0       7.430   4.646  17.288  0.00  0.00    +0.000 C 
ATOM     21  C   UNK A   0       7.992   6.723  18.525  0.00  0.00    +0.000 C 
ENDBRANCH  17  18
ENDBRANCH  14  17
ENDBRANCH   1  13
BRANCH   1  22
ATOM     22  CB  PHE A   1       2.380   6.700  19.925  0.00  0.00    +0.000 C 
BRANCH  22  23
ATOM     23  CG  PHE A   1       2.043   5.229  19.974  0.00  0.00    +0.000 A 
ATOM     24  CD1 PHE A   1       1.559   4.574  18.833  0.00  0.00    +0.000 A 
ATOM     25  CE1 PHE A   1       1.149   3.243  18.903  0.00  0.00    +0.000 A 
ATOM     26  CZ  PHE A   1       1.243   2.548  20.106  0.00  0.00    +0.000 A 
ATOM     27  CE2 PHE A   1       1.766   3.176  21.235  0.00  0.00    +0.000 A 
ATOM     28  CD2 PHE A   1       2.165   4.511  21.170  0.00  0.00    +0.000 A 
ENDBRANCH  22  23
ENDBRANCH   1  22
TORSDOF 11
ENDMDL
MODEL 2
REMARK VINA RESULT:      -6.6      0.679      1.237
REMARK  Name = 
REMARK  15 active torsions:
REMARK  status: ('A' for Active; 'I' for Inactive)
REMARK    1  A    between atoms: CE_1  and  SD_2
REMARK    2  A    between atoms: SD_2  and  CG_3
REMARK    3  A    between atoms: CG_3  and  CB_4
REMARK    4  A    between atoms: CB_4  and  CA_5
REMARK    5  A    between atoms: CA_5  and  C_6
REMARK    6  A    between atoms: CA_5  and  N_8
REMARK    7  A    between atoms: C_9  and  CA_11
REMARK    8  A    between atoms: CA_11  and  CB_12
REMARK    9  A    between atoms: CA_11  and  N_19
REMARK   10  A    between atoms: CB_12  and  CG_13
REMARK   11  A    between atoms: C_20  and  O_22
REMARK   12  A    between atoms: O_22  and  C_23
REMARK   13  A    between atoms: C_23  and  C_24
REMARK   14  A    between atoms: C_23  and  C_25
REMARK   15  A    between atoms: C_23  and  C_26
REMARK                            x       y       z     vdW  Elec       q    Type
REMARK                         _______ _______ _______ _____ _____    ______ ____
ROOT
ATOM      1  CA  PHE A   1       2.652   7.207  18.381  0.00  0.00    +0.000 C 
ENDROOT
BRANCH   1   3
ATOM      2  N   PHE A   1       0.965   8.917  18.912  0.00  0.00    +0.000 N 
ATOM      3  C   PHE A   1       1.986   8.557  18.061  0.00  0.00    +0.000 C 
ATOM      4  O   PHE A   1       2.327   9.256  17.107  0.00  0.00    +0.000 OA
ATOM      5  H   PHE A   1       0.631   8.283  19.633  0.00  0.00    +0.000 HD
BRANCH   2   6
ATOM      6  CA  PHE A   1       0.331  10.226  18.835  0.00  0.00    +0.000 C 
BRANCH   6   7
ATOM      7  C   PHE A   1      -0.015  10.663  20.250  0.00  0.00    +0.000 C 
ATOM      8  O   PHE A   1       0.821  10.794  21.143  0.00  0.00    +0.000 OA
ENDBRANCH   6   7
BRANCH   6   9
ATOM      9  CB  PHE A   1      -0.923  10.154  17.964  0.00  0.00    +0.000 C 
BRANCH   9  10
ATOM     10  CG  PHE A   1      -2.176  10.751  18.602  0.00  0.00    +0.000 C 
BRANCH  10  12
ATOM     11  CE  PHE A   1      -2.729  10.658  15.879  0.00  0.00    +0.000 C 
ATOM     12  SD  PHE A   1      -3.439  11.313  17.414  0.00  0.00    +0.000 S 
ENDBRANCH  10  12
ENDBRANCH   9  10
ENDBRANCH   6   9
ENDBRANCH   2   6
ENDBRANCH   1   3
BRANCH   1  13
ATOM     13  N   PHE A   1       4.078   7.272  18.095  0.00  0.00    +0.000 N 
ATOM     14  C   UNK A   0       4.671   6.321  17.326  0.00  0.00    +0.000 C 
ATOM     15  O   UNK A   0       4.031   5.404  16.817  0.00  0.00    +0.000 OA
ATOM     16  H   PHE A   1       4.645   8.002  18.521  0.00  0.00    +0.000 HD
BRANCH  14  17
ATOM     17  O   UNK A   0       6.011   6.495  17.234  0.00  0.00    +0.000 OA
BRANCH  17  18
ATOM     18  C   UNK A   0       6.855   5.745  18.153  0.00  0.00    +0.000 C 
ATOM     19  C   UNK A   0       6.041   5.131  19.303  0.00  0.00    +0.000 C 
ATOM     20  C   UNK A   0       7.473   4.588  17.349  0.00  0.00    +0.000 C 
ATOM     21  C   UNK A   0       8.006   6.627  18.661  0.00  0.00    +0.000 C 
ENDBRANCH  17  18
ENDBRANCH  14  17
ENDBRANCH   1  13
BRANCH   1  22
ATOM     22  CB  PHE A   1       2.328   6.727  19.820  0.00  0.00    +0.000 C 
BRANCH  22  23
ATOM     23  CG  PHE A   1       1.986   5.259  19.916  0.00  0.00    +0.000 A 
ATOM     24  CD1 PHE A   1       2.195   4.560  21.112  0.00  0.00    +0.000 A 
ATOM     25  CE1 PHE A   1       1.980   3.184  21.173  0.00  0.00    +0.000 A 
ATOM     26  CZ  PHE A   1       1.529   2.499  20.048  0.00  0.00    +0.000 A 
ATOM     27  CE2 PHE A   1       1.274   3.192  18.866  0.00  0.00    +0.000 A 
ATOM     28  CD2 PHE A   1       1.501   4.567  18.799  0.00  0.00    +0.000 A 
ENDBRANCH  22  23
ENDBRANCH   1  22
TORSDOF 11
ENDMDL
MODEL 3
REMARK VINA RESULT:      -6.6      1.118      1.483
REMARK  Name = 
REMARK  15 active torsions:
REMARK  status: ('A' for Active; 'I' for Inactive)
REMARK    1  A    between atoms: CE_1  and  SD_2
REMARK    2  A    between atoms: SD_2  and  CG_3
REMARK    3  A    between atoms: CG_3  and  CB_4
REMARK    4  A    between atoms: CB_4  and  CA_5
REMARK    5  A    between atoms: CA_5  and  C_6
REMARK    6  A    between atoms: CA_5  and  N_8
REMARK    7  A    between atoms: C_9  and  CA_11
REMARK    8  A    between atoms: CA_11  and  CB_12
REMARK    9  A    between atoms: CA_11  and  N_19
REMARK   10  A    between atoms: CB_12  and  CG_13
REMARK   11  A    between atoms: C_20  and  O_22
REMARK   12  A    between atoms: O_22  and  C_23
REMARK   13  A    between atoms: C_23  and  C_24
REMARK   14  A    between atoms: C_23  and  C_25
REMARK   15  A    between atoms: C_23  and  C_26
REMARK                            x       y       z     vdW  Elec       q    Type
REMARK                         _______ _______ _______ _____ _____    ______ ____
ROOT
ATOM      1  CA  PHE A   1       2.658   7.126  18.560  0.00  0.00    +0.000 C 
ENDROOT
BRANCH   1   3
ATOM      2  N   PHE A   1       1.333   8.952  19.542  0.00  0.00    +0.000 N 
ATOM      3  C   PHE A   1       1.990   8.505  18.417  0.00  0.00    +0.000 C 
ATOM      4  O   PHE A   1       2.024   9.154  17.371  0.00  0.00    +0.000 OA
ATOM      5  H   PHE A   1       1.232   8.361  20.362  0.00  0.00    +0.000 HD
BRANCH   2   6
ATOM      6  CA  PHE A   1       0.775  10.296  19.618  0.00  0.00    +0.000 C 
BRANCH   6   7
ATOM      7  C   PHE A   1       0.813  10.736  21.073  0.00  0.00    +0.000 C 
ATOM      8  O   PHE A   1       1.181  10.008  21.993  0.00  0.00    +0.000 OA
ENDBRANCH   6   7
BRANCH   6   9
ATOM      9  CB  PHE A   1      -0.657  10.302  19.083  0.00  0.00    +0.000 C 
BRANCH   9  10
ATOM     10  CG  PHE A   1      -1.407  11.617  19.286  0.00  0.00    +0.000 C 
BRANCH  10  12
ATOM     11  CE  PHE A   1      -0.555  14.223  19.745  0.00  0.00    +0.000 C 
ATOM     12  SD  PHE A   1      -0.710  13.037  18.381  0.00  0.00    +0.000 S 
ENDBRANCH  10  12
ENDBRANCH   9  10
ENDBRANCH   6   9
ENDBRANCH   2   6
ENDBRANCH   1   3
BRANCH   1  13
ATOM     13  N   PHE A   1       4.035   7.186  18.091  0.00  0.00    +0.000 N 
ATOM     14  C   UNK A   0       4.554   6.174  17.346  0.00  0.00    +0.000 C 
ATOM     15  O   UNK A   0       3.880   5.203  17.010  0.00  0.00    +0.000 OA
ATOM     16  H   PHE A   1       4.630   7.962  18.370  0.00  0.00    +0.000 HD
BRANCH  14  17
ATOM     17  O   UNK A   0       5.866   6.360  17.068  0.00  0.00    +0.000 OA
BRANCH  17  18
ATOM     18  C   UNK A   0       6.839   5.736  17.954  0.00  0.00    +0.000 C 
ATOM     19  C   UNK A   0       7.884   6.746  18.455  0.00  0.00    +0.000 C 
ATOM     20  C   UNK A   0       6.063   5.221  19.178  0.00  0.00    +0.000 C 
ATOM     21  C   UNK A   0       7.485   4.524  17.267  0.00  0.00    +0.000 C 
ENDBRANCH  17  18
ENDBRANCH  14  17
ENDBRANCH   1  13
BRANCH   1  22
ATOM     22  CB  PHE A   1       2.515   6.559  19.997  0.00  0.00    +0.000 C 
BRANCH  22  23
ATOM     23  CG  PHE A   1       2.139   5.097  20.047  0.00  0.00    +0.000 A 
ATOM     24  CD1 PHE A   1       1.601   4.466  18.917  0.00  0.00    +0.000 A 
ATOM     25  CE1 PHE A   1       1.157   3.146  18.990  0.00  0.00    +0.000 A 
ATOM     26  CZ  PHE A   1       1.269   2.439  20.184  0.00  0.00    +0.000 A 
ATOM     27  CE2 PHE A   1       1.845   3.043  21.301  0.00  0.00    +0.000 A 
ATOM     28  CD2 PHE A   1       2.278   4.367  21.233  0.00  0.00    +0.000 A 
ENDBRANCH  22  23
ENDBRANCH   1  22
TORSDOF 11
ENDMDL
MODEL 4
REMARK VINA RESULT:      -6.6      1.071      1.652
REMARK  Name = 
REMARK  15 active torsions:
REMARK  status: ('A' for Active; 'I' for Inactive)
REMARK    1  A    between atoms: CE_1  and  SD_2
REMARK    2  A    between atoms: SD_2  and  CG_3
REMARK    3  A    between atoms: CG_3  and  CB_4
REMARK    4  A    between atoms: CB_4  and  CA_5
REMARK    5  A    between atoms: CA_5  and  C_6
REMARK    6  A    between atoms: CA_5  and  N_8
REMARK    7  A    between atoms: C_9  and  CA_11
REMARK    8  A    between atoms: CA_11  and  CB_12
REMARK    9  A    between atoms: CA_11  and  N_19
REMARK   10  A    between atoms: CB_12  and  CG_13
REMARK   11  A    between atoms: C_20  and  O_22
REMARK   12  A    between atoms: O_22  and  C_23
REMARK   13  A    between atoms: C_23  and  C_24
REMARK   14  A    between atoms: C_23  and  C_25
REMARK   15  A    between atoms: C_23  and  C_26
REMARK                            x       y       z     vdW  Elec       q    Type
REMARK                         _______ _______ _______ _____ _____    ______ ____
ROOT
ATOM      1  CA  PHE A   1       2.667   7.143  18.502  0.00  0.00    +0.000 C 
ENDROOT
BRANCH   1   3
ATOM      2  N   PHE A   1       1.309   8.984  19.407  0.00  0.00    +0.000 N 
ATOM      3  C   PHE A   1       2.022   8.527  18.320  0.00  0.00    +0.000 C 
ATOM      4  O   PHE A   1       2.119   9.174  17.276  0.00  0.00    +0.000 OA
ATOM      5  H   PHE A   1       1.158   8.396  20.222  0.00  0.00    +0.000 HD
BRANCH   2   6
ATOM      6  CA  PHE A   1       0.761  10.333  19.449  0.00  0.00    +0.000 C 
BRANCH   6   7
ATOM      7  C   PHE A   1       0.889  10.845  20.875  0.00  0.00    +0.000 C 
ATOM      8  O   PHE A   1       1.305  11.967  21.160  0.00  0.00    +0.000 OA
ENDBRANCH   6   7
BRANCH   6   9
ATOM      9  CB  PHE A   1      -0.701  10.322  19.002  0.00  0.00    +0.000 C 
BRANCH   9  10
ATOM     10  CG  PHE A   1      -1.267  11.694  18.643  0.00  0.00    +0.000 C 
BRANCH  10  12
ATOM     11  CE  PHE A   1      -1.573  13.895  20.314  0.00  0.00    +0.000 C 
ATOM     12  SD  PHE A   1      -2.446  12.371  19.857  0.00  0.00    +0.000 S 
ENDBRANCH  10  12
ENDBRANCH   9  10
ENDBRANCH   6   9
ENDBRANCH   2   6
ENDBRANCH   1   3
BRANCH   1  13
ATOM     13  N   PHE A   1       4.108   7.234  18.313  0.00  0.00    +0.000 N 
ATOM     14  C   UNK A   0       4.737   6.432  17.413  0.00  0.00    +0.000 C 
ATOM     15  O   UNK A   0       4.120   5.640  16.706  0.00  0.00    +0.000 OA
ATOM     16  H   PHE A   1       4.655   7.860  18.899  0.00  0.00    +0.000 HD
BRANCH  14  17
ATOM     17  O   UNK A   0       6.082   6.596  17.430  0.00  0.00    +0.000 OA
BRANCH  17  18
ATOM     18  C   UNK A   0       6.874   5.609  18.149  0.00  0.00    +0.000 C 
ATOM     19  C   UNK A   0       8.031   6.260  18.922  0.00  0.00    +0.000 C 
ATOM     20  C   UNK A   0       5.938   4.948  19.177  0.00  0.00    +0.000 C 
ATOM     21  C   UNK A   0       7.359   4.512  17.189  0.00  0.00    +0.000 C 
ENDBRANCH  17  18
ENDBRANCH  14  17
ENDBRANCH   1  13
BRANCH   1  22
ATOM     22  CB  PHE A   1       2.257   6.484  19.845  0.00  0.00    +0.000 C 
BRANCH  22  23
ATOM     23  CG  PHE A   1       1.857   5.033  19.721  0.00  0.00    +0.000 A 
ATOM     24  CD1 PHE A   1       1.710   4.238  20.867  0.00  0.00    +0.000 A 
ATOM     25  CE1 PHE A   1       1.444   2.875  20.751  0.00  0.00    +0.000 A 
ATOM     26  CZ  PHE A   1       1.295   2.299  19.492  0.00  0.00    +0.000 A 
ATOM     27  CE2 PHE A   1       1.393   3.089  18.348  0.00  0.00    +0.000 A 
ATOM     28  CD2 PHE A   1       1.673   4.451  18.461  0.00  0.00    +0.000 A 
ENDBRANCH  22  23
ENDBRANCH   1  22
TORSDOF 11
ENDMDL
MODEL 5
REMARK VINA RESULT:      -6.5      1.029      1.676
REMARK  Name = 
REMARK  15 active torsions:
REMARK  status: ('A' for Active; 'I' for Inactive)
REMARK    1  A    between atoms: CE_1  and  SD_2
REMARK    2  A    between atoms: SD_2  and  CG_3
REMARK    3  A    between atoms: CG_3  and  CB_4
REMARK    4  A    between atoms: CB_4  and  CA_5
REMARK    5  A    between atoms: CA_5  and  C_6
REMARK    6  A    between atoms: CA_5  and  N_8
REMARK    7  A    between atoms: C_9  and  CA_11
REMARK    8  A    between atoms: CA_11  and  CB_12
REMARK    9  A    between atoms: CA_11  and  N_19
REMARK   10  A    between atoms: CB_12  and  CG_13
REMARK   11  A    between atoms: C_20  and  O_22
REMARK   12  A    between atoms: O_22  and  C_23
REMARK   13  A    between atoms: C_23  and  C_24
REMARK   14  A    between atoms: C_23  and  C_25
REMARK   15  A    between atoms: C_23  and  C_26
REMARK                            x       y       z     vdW  Elec       q    Type
REMARK                         _______ _______ _______ _____ _____    ______ ____
ROOT
ATOM      1  CA  PHE A   1       2.728   7.081  18.349  0.00  0.00    +0.000 C 
ENDROOT
BRANCH   1   3
ATOM      2  N   PHE A   1       1.398   8.893  19.350  0.00  0.00    +0.000 N 
ATOM      3  C   PHE A   1       2.095   8.479  18.237  0.00  0.00    +0.000 C 
ATOM      4  O   PHE A   1       2.189   9.171  17.222  0.00  0.00    +0.000 OA
ATOM      5  H   PHE A   1       1.248   8.269  20.139  0.00  0.00    +0.000 HD
BRANCH   2   6
ATOM      6  CA  PHE A   1       0.864  10.243  19.459  0.00  0.00    +0.000 C 
BRANCH   6   7
ATOM      7  C   PHE A   1       0.597  10.523  20.930  0.00  0.00    +0.000 C 
ATOM      8  O   PHE A   1       1.120  11.446  21.551  0.00  0.00    +0.000 OA
ENDBRANCH   6   7
BRANCH   6   9
ATOM      9  CB  PHE A   1      -0.419  10.371  18.639  0.00  0.00    +0.000 C 
BRANCH   9  10
ATOM     10  CG  PHE A   1      -1.615  10.926  19.409  0.00  0.00    +0.000 C 
BRANCH  10  12
ATOM     11  CE  PHE A   1      -0.607  13.189  18.146  0.00  0.00    +0.000 C 
ATOM     12  SD  PHE A   1      -1.640  12.741  19.569  0.00  0.00    +0.000 S 
ENDBRANCH  10  12
ENDBRANCH   9  10
ENDBRANCH   6   9
ENDBRANCH   2   6
ENDBRANCH   1   3
BRANCH   1  13
ATOM     13  N   PHE A   1       4.137   7.139  17.988  0.00  0.00    +0.000 N 
ATOM     14  C   UNK A   0       4.696   6.155  17.235  0.00  0.00    +0.000 C 
ATOM     15  O   UNK A   0       4.037   5.212  16.803  0.00  0.00    +0.000 OA
ATOM     16  H   PHE A   1       4.720   7.890  18.349  0.00  0.00    +0.000 HD
BRANCH  14  17
ATOM     17  O   UNK A   0       6.029   6.330  17.066  0.00  0.00    +0.000 OA
BRANCH  17  18
ATOM     18  C   UNK A   0       6.921   5.702  18.030  0.00  0.00    +0.000 C 
ATOM     19  C   UNK A   0       7.686   4.521  17.413  0.00  0.00    +0.000 C 
ATOM     20  C   UNK A   0       7.955   6.765  18.441  0.00  0.00    +0.000 C 
ATOM     21  C   UNK A   0       6.143   5.296  19.291  0.00  0.00    +0.000 C 
ENDBRANCH  17  18
ENDBRANCH  14  17
ENDBRANCH   1  13
BRANCH   1  22
ATOM     22  CB  PHE A   1       2.468   6.437  19.737  0.00  0.00    +0.000 C 
BRANCH  22  23
ATOM     23  CG  PHE A   1       1.927   5.028  19.669  0.00  0.00    +0.000 A 
ATOM     24  CD1 PHE A   1       1.790   4.266  20.837  0.00  0.00    +0.000 A 
ATOM     25  CE1 PHE A   1       1.391   2.932  20.766  0.00  0.00    +0.000 A 
ATOM     26  CZ  PHE A   1       1.100   2.357  19.532  0.00  0.00    +0.000 A 
ATOM     27  CE2 PHE A   1       1.189   3.119  18.369  0.00  0.00    +0.000 A 
ATOM     28  CD2 PHE A   1       1.601   4.450  18.436  0.00  0.00    +0.000 A 
ENDBRANCH  22  23
ENDBRANCH   1  22
TORSDOF 11
ENDMDL
MODEL 6
REMARK VINA RESULT:      -6.4      0.693      1.449
REMARK  Name = 
REMARK  15 active torsions:
REMARK  status: ('A' for Active; 'I' for Inactive)
REMARK    1  A    between atoms: CE_1  and  SD_2
REMARK    2  A    between atoms: SD_2  and  CG_3
REMARK    3  A    between atoms: CG_3  and  CB_4
REMARK    4  A    between atoms: CB_4  and  CA_5
REMARK    5  A    between atoms: CA_5  and  C_6
REMARK    6  A    between atoms: CA_5  and  N_8
REMARK    7  A    between atoms: C_9  and  CA_11
REMARK    8  A    between atoms: CA_11  and  CB_12
REMARK    9  A    between atoms: CA_11  and  N_19
REMARK   10  A    between atoms: CB_12  and  CG_13
REMARK   11  A    between atoms: C_20  and  O_22
REMARK   12  A    between atoms: O_22  and  C_23
REMARK   13  A    between atoms: C_23  and  C_24
REMARK   14  A    between atoms: C_23  and  C_25
REMARK   15  A    between atoms: C_23  and  C_26
REMARK                            x       y       z     vdW  Elec       q    Type
REMARK                         _______ _______ _______ _____ _____    ______ ____
ROOT
ATOM      1  CA  PHE A   1       2.615   7.376  18.226  0.00  0.00    +0.000 C 
ENDROOT
BRANCH   1   3
ATOM      2  N   PHE A   1       0.848   9.026  18.687  0.00  0.00    +0.000 N 
ATOM      3  C   PHE A   1       1.986   8.754  17.958  0.00  0.00    +0.000 C 
ATOM      4  O   PHE A   1       2.451   9.550  17.141  0.00  0.00    +0.000 OA
ATOM      5  H   PHE A   1       0.424   8.320  19.282  0.00  0.00    +0.000 HD
BRANCH   2   6
ATOM      6  CA  PHE A   1       0.216  10.337  18.656  0.00  0.00    +0.000 C 
BRANCH   6   7
ATOM      7  C   PHE A   1       0.766  11.148  19.819  0.00  0.00    +0.000 C 
ATOM      8  O   PHE A   1       0.144  12.053  20.371  0.00  0.00    +0.000 OA
ENDBRANCH   6   7
BRANCH   6   9
ATOM      9  CB  PHE A   1      -1.302  10.193  18.761  0.00  0.00    +0.000 C 
BRANCH   9  10
ATOM     10  CG  PHE A   1      -1.996   9.800  17.459  0.00  0.00    +0.000 C 
BRANCH  10  12
ATOM     11  CE  PHE A   1      -4.323  11.298  17.200  0.00  0.00    +0.000 C 
ATOM     12  SD  PHE A   1      -2.654  11.200  16.495  0.00  0.00    +0.000 S 
ENDBRANCH  10  12
ENDBRANCH   9  10
ENDBRANCH   6   9
ENDBRANCH   2   6
ENDBRANCH   1   3
BRANCH   1  13
ATOM     13  N   PHE A   1       4.039   7.410  17.925  0.00  0.00    +0.000 N 
ATOM     14  C   UNK A   0       4.626   6.383  17.254  0.00  0.00    +0.000 C 
ATOM     15  O   UNK A   0       3.981   5.420  16.847  0.00  0.00    +0.000 OA
ATOM     16  H   PHE A   1       4.609   8.179  18.267  0.00  0.00    +0.000 HD
BRANCH  14  17
ATOM     17  O   UNK A   0       5.965   6.545  17.134  0.00  0.00    +0.000 OA
BRANCH  17  18
ATOM     18  C   UNK A   0       6.822   5.777  18.026  0.00  0.00    +0.000 C 
ATOM     19  C   UNK A   0       7.503   4.609  17.295  0.00  0.00    +0.000 C 
ATOM     20  C   UNK A   0       7.926   6.729  18.516  0.00  0.00    +0.000 C 
ATOM     21  C   UNK A   0       6.028   5.310  19.256  0.00  0.00    +0.000 C 
ENDBRANCH  17  18
ENDBRANCH  14  17
ENDBRANCH   1  13
BRANCH   1  22
ATOM     22  CB  PHE A   1       2.294   6.860  19.653  0.00  0.00    +0.000 C 
BRANCH  22  23
ATOM     23  CG  PHE A   1       1.926   5.396  19.709  0.00  0.00    +0.000 A 
ATOM     24  CD1 PHE A   1       1.985   4.697  20.923  0.00  0.00    +0.000 A 
ATOM     25  CE1 PHE A   1       1.747   3.324  20.959  0.00  0.00    +0.000 A 
ATOM     26  CZ  PHE A   1       1.423   2.643  19.788  0.00  0.00    +0.000 A 
ATOM     27  CE2 PHE A   1       1.317   3.336  18.584  0.00  0.00    +0.000 A 
ATOM     28  CD2 PHE A   1       1.567   4.708  18.544  0.00  0.00    +0.000 A 
ENDBRANCH  22  23
ENDBRANCH   1  22
TORSDOF 11
ENDMDL
MODEL 7
REMARK VINA RESULT:      -6.4      1.105      1.649
REMARK  Name = 
REMARK  15 active torsions:
REMARK  status: ('A' for Active; 'I' for Inactive)
REMARK    1  A    between atoms: CE_1  and  SD_2
REMARK    2  A    between atoms: SD_2  and  CG_3
REMARK    3  A    between atoms: CG_3  and  CB_4
REMARK    4  A    between atoms: CB_4  and  CA_5
REMARK    5  A    between atoms: CA_5  and  C_6
REMARK    6  A    between atoms: CA_5  and  N_8
REMARK    7  A    between atoms: C_9  and  CA_11
REMARK    8  A    between atoms: CA_11  and  CB_12
REMARK    9  A    between atoms: CA_11  and  N_19
REMARK   10  A    between atoms: CB_12  and  CG_13
REMARK   11  A    between atoms: C_20  and  O_22
REMARK   12  A    between atoms: O_22  and  C_23
REMARK   13  A    between atoms: C_23  and  C_24
REMARK   14  A    between atoms: C_23  and  C_25
REMARK   15  A    between atoms: C_23  and  C_26
REMARK                            x       y       z     vdW  Elec       q    Type
REMARK                         _______ _______ _______ _____ _____    ______ ____
ROOT
ATOM      1  CA  PHE A   1       2.429   6.815  18.758  0.00  0.00    +0.000 C 
ENDROOT
BRANCH   1   3
ATOM      2  N   PHE A   1       1.357   8.973  19.258  0.00  0.00    +0.000 N 
ATOM      3  C   PHE A   1       2.137   8.273  18.363  0.00  0.00    +0.000 C 
ATOM      4  O   PHE A   1       2.552   8.775  17.318  0.00  0.00    +0.000 OA
ATOM      5  H   PHE A   1       0.942   8.515  20.065  0.00  0.00    +0.000 HD
BRANCH   2   6
ATOM      6  CA  PHE A   1       1.111  10.400  19.105  0.00  0.00    +0.000 C 
BRANCH   6   7
ATOM      7  C   PHE A   1       0.958  11.000  20.494  0.00  0.00    +0.000 C 
ATOM      8  O   PHE A   1       1.088  10.352  21.531  0.00  0.00    +0.000 OA
ENDBRANCH   6   7
BRANCH   6   9
ATOM      9  CB  PHE A   1      -0.148  10.631  18.269  0.00  0.00    +0.000 C 
BRANCH   9  10
ATOM     10  CG  PHE A   1      -1.459  10.475  19.037  0.00  0.00    +0.000 C 
BRANCH  10  12
ATOM     11  CE  PHE A   1      -3.881  10.562  17.674  0.00  0.00    +0.000 C 
ATOM     12  SD  PHE A   1      -2.757  11.667  18.573  0.00  0.00    +0.000 S 
ENDBRANCH  10  12
ENDBRANCH   9  10
ENDBRANCH   6   9
ENDBRANCH   2   6
ENDBRANCH   1   3
BRANCH   1  13
ATOM     13  N   PHE A   1       3.830   6.502  18.514  0.00  0.00    +0.000 N 
ATOM     14  C   UNK A   0       4.176   5.391  17.812  0.00  0.00    +0.000 C 
ATOM     15  O   UNK A   0       3.333   4.639  17.328  0.00  0.00    +0.000 OA
ATOM     16  H   PHE A   1       4.556   7.088  18.921  0.00  0.00    +0.000 HD
BRANCH  14  17
ATOM     17  O   UNK A   0       5.518   5.216  17.753  0.00  0.00    +0.000 OA
BRANCH  17  18
ATOM     18  C   UNK A   0       6.238   5.876  16.674  0.00  0.00    +0.000 C 
ATOM     19  C   UNK A   0       7.234   6.919  17.208  0.00  0.00    +0.000 C 
ATOM     20  C   UNK A   0       7.047   4.789  15.945  0.00  0.00    +0.000 C 
ATOM     21  C   UNK A   0       5.251   6.479  15.663  0.00  0.00    +0.000 C 
ENDBRANCH  17  18
ENDBRANCH  14  17
ENDBRANCH   1  13
BRANCH   1  22
ATOM     22  CB  PHE A   1       1.965   6.502  20.204  0.00  0.00    +0.000 C 
BRANCH  22  23
ATOM     23  CG  PHE A   1       1.753   5.032  20.477  0.00  0.00    +0.000 A 
ATOM     24  CD1 PHE A   1       2.433   4.401  21.528  0.00  0.00    +0.000 A 
ATOM     25  CE1 PHE A   1       2.320   3.025  21.717  0.00  0.00    +0.000 A 
ATOM     26  CZ  PHE A   1       1.507   2.271  20.875  0.00  0.00    +0.000 A 
ATOM     27  CE2 PHE A   1       0.791   2.894  19.856  0.00  0.00    +0.000 A 
ATOM     28  CD2 PHE A   1       0.912   4.270  19.657  0.00  0.00    +0.000 A 
ENDBRANCH  22  23
ENDBRANCH   1  22
TORSDOF 11
ENDMDL
MODEL 8
REMARK VINA RESULT:      -6.4      1.128      1.504
REMARK  Name = 
REMARK  15 active torsions:
REMARK  status: ('A' for Active; 'I' for Inactive)
REMARK    1  A    between atoms: CE_1  and  SD_2
REMARK    2  A    between atoms: SD_2  and  CG_3
REMARK    3  A    between atoms: CG_3  and  CB_4
REMARK    4  A    between atoms: CB_4  and  CA_5
REMARK    5  A    between atoms: CA_5  and  C_6
REMARK    6  A    between atoms: CA_5  and  N_8
REMARK    7  A    between atoms: C_9  and  CA_11
REMARK    8  A    between atoms: CA_11  and  CB_12
REMARK    9  A    between atoms: CA_11  and  N_19
REMARK   10  A    between atoms: CB_12  and  CG_13
REMARK   11  A    between atoms: C_20  and  O_22
REMARK   12  A    between atoms: O_22  and  C_23
REMARK   13  A    between atoms: C_23  and  C_24
REMARK   14  A    between atoms: C_23  and  C_25
REMARK   15  A    between atoms: C_23  and  C_26
REMARK                            x       y       z     vdW  Elec       q    Type
REMARK                         _______ _______ _______ _____ _____    ______ ____
ROOT
ATOM      1  CA  PHE A   1       2.402   6.859  18.754  0.00  0.00    +0.000 C 
ENDROOT
BRANCH   1   3
ATOM      2  N   PHE A   1       1.321   8.996  19.315  0.00  0.00    +0.000 N 
ATOM      3  C   PHE A   1       2.076   8.317  18.385  0.00  0.00    +0.000 C 
ATOM      4  O   PHE A   1       2.446   8.834  17.331  0.00  0.00    +0.000 OA
ATOM      5  H   PHE A   1       0.942   8.525  20.132  0.00  0.00    +0.000 HD
BRANCH   2   6
ATOM      6  CA  PHE A   1       1.049  10.422  19.186  0.00  0.00    +0.000 C 
BRANCH   6   7
ATOM      7  C   PHE A   1       1.066  11.029  20.580  0.00  0.00    +0.000 C 
ATOM      8  O   PHE A   1       1.104  10.360  21.611  0.00  0.00    +0.000 OA
ENDBRANCH   6   7
BRANCH   6   9
ATOM      9  CB  PHE A   1      -0.304  10.641  18.510  0.00  0.00    +0.000 C 
BRANCH   9  10
ATOM     10  CG  PHE A   1      -0.874  12.049  18.668  0.00  0.00    +0.000 C 
BRANCH  10  12
ATOM     11  CE  PHE A   1      -3.461  11.323  17.956  0.00  0.00    +0.000 C 
ATOM     12  SD  PHE A   1      -2.572  12.113  19.326  0.00  0.00    +0.000 S 
ENDBRANCH  10  12
ENDBRANCH   9  10
ENDBRANCH   6   9
ENDBRANCH   2   6
ENDBRANCH   1   3
BRANCH   1  13
ATOM     13  N   PHE A   1       3.820   6.596  18.548  0.00  0.00    +0.000 N 
ATOM     14  C   UNK A   0       4.223   5.510  17.838  0.00  0.00    +0.000 C 
ATOM     15  O   UNK A   0       3.420   4.740  17.316  0.00  0.00    +0.000 OA
ATOM     16  H   PHE A   1       4.513   7.198  18.986  0.00  0.00    +0.000 HD
BRANCH  14  17
ATOM     17  O   UNK A   0       5.571   5.379  17.817  0.00  0.00    +0.000 OA
BRANCH  17  18
ATOM     18  C   UNK A   0       6.279   5.865  16.641  0.00  0.00    +0.000 C 
ATOM     19  C   UNK A   0       5.331   6.564  15.654  0.00  0.00    +0.000 C 
ATOM     20  C   UNK A   0       7.295   6.911  17.132  0.00  0.00    +0.000 C 
ATOM     21  C   UNK A   0       7.066   4.722  15.983  0.00  0.00    +0.000 C 
ENDBRANCH  17  18
ENDBRANCH  14  17
ENDBRANCH   1  13
BRANCH   1  22
ATOM     22  CB  PHE A   1       1.903   6.495  20.177  0.00  0.00    +0.000 C 
BRANCH  22  23
ATOM     23  CG  PHE A   1       1.786   5.010  20.426  0.00  0.00    +0.000 A 
ATOM     24  CD1 PHE A   1       0.996   4.211  19.588  0.00  0.00    +0.000 A 
ATOM     25  CE1 PHE A   1       0.802   2.861  19.876  0.00  0.00    +0.000 A 
ATOM     26  CZ  PHE A   1       1.416   2.292  20.989  0.00  0.00    +0.000 A 
ATOM     27  CE2 PHE A   1       2.240   3.066  21.803  0.00  0.00    +0.000 A 
ATOM     28  CD2 PHE A   1       2.425   4.420  21.524  0.00  0.00    +0.000 A 
ENDBRANCH  22  23
ENDBRANCH   1  22
TORSDOF 11
ENDMDL
MODEL 9
REMARK VINA RESULT:      -6.3      0.842      1.231
REMARK  Name = 
REMARK  15 active torsions:
REMARK  status: ('A' for Active; 'I' for Inactive)
REMARK    1  A    between atoms: CE_1  and  SD_2
REMARK    2  A    between atoms: SD_2  and  CG_3
REMARK    3  A    between atoms: CG_3  and  CB_4
REMARK    4  A    between atoms: CB_4  and  CA_5
REMARK    5  A    between atoms: CA_5  and  C_6
REMARK    6  A    between atoms: CA_5  and  N_8
REMARK    7  A    between atoms: C_9  and  CA_11
REMARK    8  A    between atoms: CA_11  and  CB_12
REMARK    9  A    between atoms: CA_11  and  N_19
REMARK   10  A    between atoms: CB_12  and  CG_13
REMARK   11  A    between atoms: C_20  and  O_22
REMARK   12  A    between atoms: O_22  and  C_23
REMARK   13  A    between atoms: C_23  and  C_24
REMARK   14  A    between atoms: C_23  and  C_25
REMARK   15  A    between atoms: C_23  and  C_26
REMARK                            x       y       z     vdW  Elec       q    Type
REMARK                         _______ _______ _______ _____ _____    ______ ____
ROOT
ATOM      1  CA  PHE A   1       2.669   7.103  18.545  0.00  0.00    +0.000 C 
ENDROOT
BRANCH   1   3
ATOM      2  N   PHE A   1       1.303   8.881  19.558  0.00  0.00    +0.000 N 
ATOM      3  C   PHE A   1       1.969   8.467  18.425  0.00  0.00    +0.000 C 
ATOM      4  O   PHE A   1       1.987   9.134  17.390  0.00  0.00    +0.000 OA
ATOM      5  H   PHE A   1       1.216   8.274  20.369  0.00  0.00    +0.000 HD
BRANCH   2   6
ATOM      6  CA  PHE A   1       0.713  10.209  19.656  0.00  0.00    +0.000 C 
BRANCH   6   7
ATOM      7  C   PHE A   1       0.980  10.737  21.057  0.00  0.00    +0.000 C 
ATOM      8  O   PHE A   1       0.639  11.854  21.439  0.00  0.00    +0.000 OA
ENDBRANCH   6   7
BRANCH   6   9
ATOM      9  CB  PHE A   1      -0.787  10.142  19.375  0.00  0.00    +0.000 C 
BRANCH   9  10
ATOM     10  CG  PHE A   1      -1.197  10.620  17.984  0.00  0.00    +0.000 C 
BRANCH  10  12
ATOM     11  CE  PHE A   1      -3.280  10.945  16.171  0.00  0.00    +0.000 C 
ATOM     12  SD  PHE A   1      -2.865  11.349  17.891  0.00  0.00    +0.000 S 
ENDBRANCH  10  12
ENDBRANCH   9  10
ENDBRANCH   6   9
ENDBRANCH   2   6
ENDBRANCH   1   3
BRANCH   1  13
ATOM     13  N   PHE A   1       4.006   7.174  17.974  0.00  0.00    +0.000 N 
ATOM     14  C   UNK A   0       4.507   6.131  17.261  0.00  0.00    +0.000 C 
ATOM     15  O   UNK A   0       3.848   5.119  17.039  0.00  0.00    +0.000 OA
ATOM     16  H   PHE A   1       4.591   7.986  18.158  0.00  0.00    +0.000 HD
BRANCH  14  17
ATOM     17  O   UNK A   0       5.789   6.339  16.876  0.00  0.00    +0.000 OA
BRANCH  17  18
ATOM     18  C   UNK A   0       6.845   5.847  17.750  0.00  0.00    +0.000 C 
ATOM     19  C   UNK A   0       7.867   6.945  18.084  0.00  0.00    +0.000 C 
ATOM     20  C   UNK A   0       6.173   5.418  19.065  0.00  0.00    +0.000 C 
ATOM     21  C   UNK A   0       7.507   4.603  17.137  0.00  0.00    +0.000 C 
ENDBRANCH  17  18
ENDBRANCH  14  17
ENDBRANCH   1  13
BRANCH   1  22
ATOM     22  CB  PHE A   1       2.643   6.564  20.000  0.00  0.00    +0.000 C 
BRANCH  22  23
ATOM     23  CG  PHE A   1       2.318   5.092  20.105  0.00  0.00    +0.000 A 
ATOM     24  CD1 PHE A   1       0.985   4.659  20.093  0.00  0.00    +0.000 A 
ATOM     25  CE1 PHE A   1       0.678   3.314  20.294  0.00  0.00    +0.000 A 
ATOM     26  CZ  PHE A   1       1.700   2.387  20.482  0.00  0.00    +0.000 A 
ATOM     27  CE2 PHE A   1       3.031   2.800  20.450  0.00  0.00    +0.000 A 
ATOM     28  CD2 PHE A   1       3.339   4.148  20.262  0.00  0.00    +0.000 A 
ENDBRANCH  22  23
ENDBRANCH   1  22
TORSDOF 11
ENDMDL
