MODEL 1
REMARK VINA RESULT:      -7.3      0.000      0.000
REMARK  Name = 
REMARK  4 active torsions:
REMARK  status: ('A' for Active; 'I' for Inactive)
REMARK    1  A    between atoms: C_1  and  N_2
REMARK    2  A    between atoms: C_3  and  C_5
REMARK    3  A    between atoms: C_8  and  C_9
REMARK    4  A    between atoms: C_18  and  N_19
REMARK                            x       y       z     vdW  Elec       q    Type
REMARK                         _______ _______ _______ _____ _____    ______ ____
ROOT
ATOM      1  C   UNL     1       1.261   9.458  19.091  0.00  0.00    +0.000 A 
ATOM      2  C   UNL     1       1.857   9.338  17.853  0.00  0.00    +0.000 A 
ATOM      3  C   UNL     1       2.586   8.180  17.587  0.00  0.00    +0.000 A 
ATOM      4  C   UNL     1       2.769   7.184  18.566  0.00  0.00    +0.000 A 
ATOM      5  C   UNL     1       2.105   7.423  19.795  0.00  0.00    +0.000 A 
ATOM      6  N   UNL     1       1.357   8.515  20.064  0.00  0.00    +0.000 NA
ENDROOT
BRANCH   4   7
ATOM      7  C   UNL     1       3.576   5.949  18.273  0.00  0.00    +0.000 A 
ATOM      8  C   UNL     1       4.986   6.051  18.202  0.00  0.00    +0.000 A 
ATOM      9  C   UNL     1       5.800   4.961  17.888  0.00  0.00    +0.000 A 
ATOM     10 CL   UNL     1       7.495   5.187  17.696  0.00  0.00    +0.000 Cl
ATOM     11  C   UNL     1       5.253   3.702  17.717  0.00  0.00    +0.000 A 
ATOM     12  C   UNL     1       3.874   3.541  17.823  0.00  0.00    +0.000 A 
ATOM     13 CL   UNL     1       3.271   1.924  17.647  0.00  0.00    +0.000 Cl
ATOM     14  C   UNL     1       3.029   4.651  18.057  0.00  0.00    +0.000 A 
ATOM     15 CL   UNL     1       1.307   4.392  17.984  0.00  0.00    +0.000 Cl
ENDBRANCH   4   7
BRANCH   1  18
ATOM     16  C   UNL     1      -0.585  12.693  18.443  0.00  0.00    +0.000 C 
ATOM     17  N   UNL     1       0.130  11.458  18.306  0.00  0.00    +0.000 N 
ATOM     18  C   UNL     1       0.427  10.664  19.399  0.00  0.00    +0.000 C 
ATOM     19  O   UNL     1       0.062  10.915  20.537  0.00  0.00    +0.000 OA
ATOM     20  H   UNL     1       0.526  11.173  17.414  0.00  0.00    +0.000 HD
ENDBRANCH   1  18
BRANCH   5  21
ATOM     21  N   UNL     1       2.119   6.510  20.851  0.00  0.00    +0.000 N 
ATOM     22  H   UNL     1       2.950   5.934  20.844  0.00  0.00    +0.000 HD
ATOM     23  H   UNL     1       2.029   7.036  21.715  0.00  0.00    +0.000 HD
ENDBRANCH   5  21
TORSDOF 3
ENDMDL
MODEL 2
REMARK VINA RESULT:      -7.2      1.054      2.388
REMARK  Name = 
REMARK  4 active torsions:
REMARK  status: ('A' for Active; 'I' for Inactive)
REMARK    1  A    between atoms: C_1  and  N_2
REMARK    2  A    between atoms: C_3  and  C_5
REMARK    3  A    between atoms: C_8  and  C_9
REMARK    4  A    between atoms: C_18  and  N_19
REMARK                            x       y       z     vdW  Elec       q    Type
REMARK                         _______ _______ _______ _____ _____    ______ ____
ROOT
ATOM      1  C   UNL     1       1.335   9.732  19.156  0.00  0.00    +0.000 A 
ATOM      2  C   UNL     1       1.717   9.532  17.846  0.00  0.00    +0.000 A 
ATOM      3  C   UNL     1       2.227   8.283  17.497  0.00  0.00    +0.000 A 
ATOM      4  C   UNL     1       2.412   7.268  18.456  0.00  0.00    +0.000 A 
ATOM      5  C   UNL     1       1.979   7.596  19.766  0.00  0.00    +0.000 A 
ATOM      6  N   UNL     1       1.441   8.783  20.121  0.00  0.00    +0.000 NA
ENDROOT
BRANCH   4   7
ATOM      7  C   UNL     1       2.983   5.931  18.071  0.00  0.00    +0.000 A 
ATOM      8  C   UNL     1       2.192   4.771  18.245  0.00  0.00    +0.000 A 
ATOM      9  C   UNL     1       2.668   3.490  17.956  0.00  0.00    +0.000 A 
ATOM     10 CL   UNL     1       1.695   2.116  18.310  0.00  0.00    +0.000 Cl
ATOM     11  C   UNL     1       3.921   3.316  17.397  0.00  0.00    +0.000 A 
ATOM     12  C   UNL     1       4.721   4.432  17.163  0.00  0.00    +0.000 A 
ATOM     13 CL   UNL     1       6.256   4.137  16.414  0.00  0.00    +0.000 Cl
ATOM     14  C   UNL     1       4.285   5.728  17.530  0.00  0.00    +0.000 A 
ATOM     15 CL   UNL     1       5.421   7.040  17.378  0.00  0.00    +0.000 Cl
ENDBRANCH   4   7
BRANCH   1  18
ATOM     16  C   UNL     1      -0.422  13.053  18.738  0.00  0.00    +0.000 C 
ATOM     17  N   UNL     1       0.125  11.743  18.536  0.00  0.00    +0.000 N 
ATOM     18  C   UNL     1       0.735  11.043  19.562  0.00  0.00    +0.000 C 
ATOM     19  O   UNL     1       0.805  11.451  20.711  0.00  0.00    +0.000 OA
ATOM     20  H   UNL     1       0.167  11.326  17.610  0.00  0.00    +0.000 HD
ENDBRANCH   1  18
BRANCH   5  21
ATOM     21  N   UNL     1       2.021   6.688  20.825  0.00  0.00    +0.000 N 
ATOM     22  H   UNL     1       1.691   5.771  20.552  0.00  0.00    +0.000 HD
ATOM     23  H   UNL     1       2.976   6.661  21.170  0.00  0.00    +0.000 HD
ENDBRANCH   5  21
TORSDOF 3
ENDMDL
MODEL 3
REMARK VINA RESULT:      -7.1      1.180      1.326
REMARK  Name = 
REMARK  4 active torsions:
REMARK  status: ('A' for Active; 'I' for Inactive)
REMARK    1  A    between atoms: C_1  and  N_2
REMARK    2  A    between atoms: C_3  and  C_5
REMARK    3  A    between atoms: C_8  and  C_9
REMARK    4  A    between atoms: C_18  and  N_19
REMARK                            x       y       z     vdW  Elec       q    Type
REMARK                         _______ _______ _______ _____ _____    ______ ____
ROOT
ATOM      1  C   UNL     1       1.070   9.348  19.568  0.00  0.00    +0.000 A 
ATOM      2  C   UNL     1       1.505   9.413  18.260  0.00  0.00    +0.000 A 
ATOM      3  C   UNL     1       2.237   8.337  17.760  0.00  0.00    +0.000 A 
ATOM      4  C   UNL     1       2.582   7.239  18.572  0.00  0.00    +0.000 A 
ATOM      5  C   UNL     1       2.073   7.290  19.895  0.00  0.00    +0.000 A 
ATOM      6  N   UNL     1       1.325   8.299  20.391  0.00  0.00    +0.000 NA
ENDROOT
BRANCH   4   7
ATOM      7  C   UNL     1       3.389   6.095  18.026  0.00  0.00    +0.000 A 
ATOM      8  C   UNL     1       4.718   6.335  17.598  0.00  0.00    +0.000 A 
ATOM      9  C   UNL     1       5.515   5.335  17.036  0.00  0.00    +0.000 A 
ATOM     10 CL   UNL     1       7.074   5.728  16.425  0.00  0.00    +0.000 Cl
ATOM     11  C   UNL     1       5.055   4.033  16.955  0.00  0.00    +0.000 A 
ATOM     12  C   UNL     1       3.771   3.737  17.405  0.00  0.00    +0.000 A 
ATOM     13 CL   UNL     1       3.288   2.074  17.318  0.00  0.00    +0.000 Cl
ATOM     14  C   UNL     1       2.921   4.755  17.899  0.00  0.00    +0.000 A 
ATOM     15 CL   UNL     1       1.270   4.331  18.261  0.00  0.00    +0.000 Cl
ENDBRANCH   4   7
BRANCH   1  18
ATOM     16  C   UNL     1      -0.773  11.362  22.184  0.00  0.00    +0.000 C 
ATOM     17  N   UNL     1       0.067  10.421  21.501  0.00  0.00    +0.000 N 
ATOM     18  C   UNL     1       0.238  10.460  20.129  0.00  0.00    +0.000 C 
ATOM     19  O   UNL     1      -0.255  11.315  19.409  0.00  0.00    +0.000 OA
ATOM     20  H   UNL     1       0.487   9.636  21.991  0.00  0.00    +0.000 HD
ENDBRANCH   1  18
BRANCH   5  21
ATOM     21  N   UNL     1       2.258   6.256  20.814  0.00  0.00    +0.000 N 
ATOM     22  H   UNL     1       3.120   6.358  21.332  0.00  0.00    +0.000 HD
ATOM     23  H   UNL     1       1.447   6.239  21.426  0.00  0.00    +0.000 HD
ENDBRANCH   5  21
TORSDOF 3
ENDMDL
MODEL 4
REMARK VINA RESULT:      -7.1      1.304      2.606
REMARK  Name = 
REMARK  4 active torsions:
REMARK  status: ('A' for Active; 'I' for Inactive)
REMARK    1  A    between atoms: C_1  and  N_2
REMARK    2  A    between atoms: C_3  and  C_5
REMARK    3  A    between atoms: C_8  and  C_9
REMARK    4  A    between atoms: C_18  and  N_19
REMARK                            x       y       z     vdW  Elec       q    Type
REMARK                         _______ _______ _______ _____ _____    ______ ____
ROOT
ATOM      1  C   UNL     1       1.347   9.461  19.263  0.00  0.00    +0.000 A 
ATOM      2  C   UNL     1       1.736   9.387  17.941  0.00  0.00    +0.000 A 
ATOM      3  C   UNL     1       2.351   8.215  17.505  0.00  0.00    +0.000 A 
ATOM      4  C   UNL     1       2.630   7.155  18.390  0.00  0.00    +0.000 A 
ATOM      5  C   UNL     1       2.179   7.352  19.720  0.00  0.00    +0.000 A 
ATOM      6  N   UNL     1       1.542   8.459  20.158  0.00  0.00    +0.000 NA
ENDROOT
BRANCH   4   7
ATOM      7  C   UNL     1       3.313   5.904  17.911  0.00  0.00    +0.000 A 
ATOM      8  C   UNL     1       2.596   4.684  17.922  0.00  0.00    +0.000 A 
ATOM      9  C   UNL     1       3.175   3.472  17.538  0.00  0.00    +0.000 A 
ATOM     10 CL   UNL     1       2.282   2.010  17.695  0.00  0.00    +0.000 Cl
ATOM     11  C   UNL     1       4.466   3.436  17.043  0.00  0.00    +0.000 A 
ATOM     12  C   UNL     1       5.197   4.619  16.970  0.00  0.00    +0.000 A 
ATOM     13 CL   UNL     1       6.789   4.500  16.291  0.00  0.00    +0.000 Cl
ATOM     14  C   UNL     1       4.654   5.840  17.434  0.00  0.00    +0.000 A 
ATOM     15 CL   UNL     1       5.703   7.231  17.482  0.00  0.00    +0.000 Cl
ENDBRANCH   4   7
BRANCH   1  18
ATOM     16  C   UNL     1      -0.293  11.783  21.755  0.00  0.00    +0.000 C 
ATOM     17  N   UNL     1       0.445  10.725  21.129  0.00  0.00    +0.000 N 
ATOM     18  C   UNL     1       0.638  10.683  19.760  0.00  0.00    +0.000 C 
ATOM     19  O   UNL     1       0.254  11.555  18.995  0.00  0.00    +0.000 OA
ATOM     20  H   UNL     1       0.767   9.921  21.660  0.00  0.00    +0.000 HD
ENDBRANCH   1  18
BRANCH   5  21
ATOM     21  N   UNL     1       2.308   6.379  20.712  0.00  0.00    +0.000 N 
ATOM     22  H   UNL     1       2.577   5.482  20.332  0.00  0.00    +0.000 HD
ATOM     23  H   UNL     1       2.979   6.720  21.393  0.00  0.00    +0.000 HD
ENDBRANCH   5  21
TORSDOF 3
ENDMDL
MODEL 5
REMARK VINA RESULT:      -7.1      4.653      6.779
REMARK  Name = 
REMARK  4 active torsions:
REMARK  status: ('A' for Active; 'I' for Inactive)
REMARK    1  A    between atoms: C_1  and  N_2
REMARK    2  A    between atoms: C_3  and  C_5
REMARK    3  A    between atoms: C_8  and  C_9
REMARK    4  A    between atoms: C_18  and  N_19
REMARK                            x       y       z     vdW  Elec       q    Type
REMARK                         _______ _______ _______ _____ _____    ______ ____
ROOT
ATOM      1  C   UNL     1       6.093   4.777  15.433  0.00  0.00    +0.000 A 
ATOM      2  C   UNL     1       4.814   4.275  15.311  0.00  0.00    +0.000 A 
ATOM      3  C   UNL     1       3.991   4.301  16.436  0.00  0.00    +0.000 A 
ATOM      4  C   UNL     1       4.459   4.765  17.681  0.00  0.00    +0.000 A 
ATOM      5  C   UNL     1       5.789   5.257  17.675  0.00  0.00    +0.000 A 
ATOM      6  N   UNL     1       6.592   5.284  16.589  0.00  0.00    +0.000 NA
ENDROOT
BRANCH   4   7
ATOM      7  C   UNL     1       3.568   4.767  18.892  0.00  0.00    +0.000 A 
ATOM      8  C   UNL     1       2.904   5.965  19.252  0.00  0.00    +0.000 A 
ATOM      9  C   UNL     1       2.097   6.060  20.389  0.00  0.00    +0.000 A 
ATOM     10 CL   UNL     1       1.424   7.579  20.833  0.00  0.00    +0.000 Cl
ATOM     11  C   UNL     1       1.847   4.945  21.168  0.00  0.00    +0.000 A 
ATOM     12  C   UNL     1       2.441   3.732  20.828  0.00  0.00    +0.000 A 
ATOM     13 CL   UNL     1       2.037   2.371  21.823  0.00  0.00    +0.000 Cl
ATOM     14  C   UNL     1       3.327   3.640  19.728  0.00  0.00    +0.000 A 
ATOM     15 CL   UNL     1       4.172   2.134  19.490  0.00  0.00    +0.000 Cl
ENDBRANCH   4   7
BRANCH   1  18
ATOM     16  C   UNL     1       7.326   3.945  11.957  0.00  0.00    +0.000 C 
ATOM     17  N   UNL     1       6.543   4.084  13.150  0.00  0.00    +0.000 N 
ATOM     18  C   UNL     1       6.992   4.815  14.235  0.00  0.00    +0.000 C 
ATOM     19  O   UNL     1       8.044   5.436  14.244  0.00  0.00    +0.000 OA
ATOM     20  H   UNL     1       5.674   3.570  13.273  0.00  0.00    +0.000 HD
ENDBRANCH   1  18
BRANCH   5  21
ATOM     21  N   UNL     1       6.391   5.818  18.802  0.00  0.00    +0.000 N 
ATOM     22  H   UNL     1       6.818   6.712  18.598  0.00  0.00    +0.000 HD
ATOM     23  H   UNL     1       5.683   5.892  19.525  0.00  0.00    +0.000 HD
ENDBRANCH   5  21
TORSDOF 3
ENDMDL
MODEL 6
REMARK VINA RESULT:      -6.9      4.826      6.920
REMARK  Name = 
REMARK  4 active torsions:
REMARK  status: ('A' for Active; 'I' for Inactive)
REMARK    1  A    between atoms: C_1  and  N_2
REMARK    2  A    between atoms: C_3  and  C_5
REMARK    3  A    between atoms: C_8  and  C_9
REMARK    4  A    between atoms: C_18  and  N_19
REMARK                            x       y       z     vdW  Elec       q    Type
REMARK                         _______ _______ _______ _____ _____    ______ ____
ROOT
ATOM      1  C   UNL     1       5.834   4.904  15.270  0.00  0.00    +0.000 A 
ATOM      2  C   UNL     1       5.528   6.185  15.678  0.00  0.00    +0.000 A 
ATOM      3  C   UNL     1       4.740   6.339  16.817  0.00  0.00    +0.000 A 
ATOM      4  C   UNL     1       4.214   5.228  17.505  0.00  0.00    +0.000 A 
ATOM      5  C   UNL     1       4.602   3.966  16.989  0.00  0.00    +0.000 A 
ATOM      6  N   UNL     1       5.400   3.789  15.913  0.00  0.00    +0.000 NA
ENDROOT
BRANCH   4   7
ATOM      7  C   UNL     1       3.347   5.408  18.721  0.00  0.00    +0.000 A 
ATOM      8  C   UNL     1       3.177   4.319  19.609  0.00  0.00    +0.000 A 
ATOM      9  C   UNL     1       2.352   4.392  20.733  0.00  0.00    +0.000 A 
ATOM     10 CL   UNL     1       2.094   2.991  21.698  0.00  0.00    +0.000 Cl
ATOM     11  C   UNL     1       1.729   5.580  21.071  0.00  0.00    +0.000 A 
ATOM     12  C   UNL     1       1.903   6.694  20.253  0.00  0.00    +0.000 A 
ATOM     13 CL   UNL     1       1.131   8.158  20.771  0.00  0.00    +0.000 Cl
ATOM     14  C   UNL     1       2.667   6.611  19.065  0.00  0.00    +0.000 A 
ATOM     15 CL   UNL     1       2.675   7.994  18.005  0.00  0.00    +0.000 Cl
ENDBRANCH   4   7
BRANCH   1  18
ATOM     16  C   UNL     1       7.043   3.362  12.037  0.00  0.00    +0.000 C 
ATOM     17  N   UNL     1       6.270   3.743  13.183  0.00  0.00    +0.000 N 
ATOM     18  C   UNL     1       6.719   4.695  14.080  0.00  0.00    +0.000 C 
ATOM     19  O   UNL     1       7.761   5.318  13.941  0.00  0.00    +0.000 OA
ATOM     20  H   UNL     1       5.411   3.256  13.426  0.00  0.00    +0.000 HD
ENDBRANCH   1  18
BRANCH   5  21
ATOM     21  N   UNL     1       4.232   2.760  17.585  0.00  0.00    +0.000 N 
ATOM     22  H   UNL     1       3.661   2.192  16.973  0.00  0.00    +0.000 HD
ATOM     23  H   UNL     1       5.081   2.280  17.866  0.00  0.00    +0.000 HD
ENDBRANCH   5  21
TORSDOF 3
ENDMDL
MODEL 7
REMARK VINA RESULT:      -6.8      4.666      6.960
REMARK  Name = 
REMARK  4 active torsions:
REMARK  status: ('A' for Active; 'I' for Inactive)
REMARK    1  A    between atoms: C_1  and  N_2
REMARK    2  A    between atoms: C_3  and  C_5
REMARK    3  A    between atoms: C_8  and  C_9
REMARK    4  A    between atoms: C_18  and  N_19
REMARK                            x       y       z     vdW  Elec       q    Type
REMARK                         _______ _______ _______ _____ _____    ______ ____
ROOT
ATOM      1  C   UNL     1       6.028   4.722  15.262  0.00  0.00    +0.000 A 
ATOM      2  C   UNL     1       4.775   4.147  15.242  0.00  0.00    +0.000 A 
ATOM      3  C   UNL     1       3.975   4.281  16.376  0.00  0.00    +0.000 A 
ATOM      4  C   UNL     1       4.444   4.927  17.536  0.00  0.00    +0.000 A 
ATOM      5  C   UNL     1       5.747   5.477  17.430  0.00  0.00    +0.000 A 
ATOM      6  N   UNL     1       6.525   5.400  16.329  0.00  0.00    +0.000 NA
ENDROOT
BRANCH   4   7
ATOM      7  C   UNL     1       3.579   5.046  18.761  0.00  0.00    +0.000 A 
ATOM      8  C   UNL     1       3.433   3.922  19.609  0.00  0.00    +0.000 A 
ATOM      9  C   UNL     1       2.610   3.939  20.738  0.00  0.00    +0.000 A 
ATOM     10 CL   UNL     1       2.383   2.500  21.652  0.00  0.00    +0.000 Cl
ATOM     11  C   UNL     1       1.965   5.102  21.120  0.00  0.00    +0.000 A 
ATOM     12  C   UNL     1       2.115   6.247  20.342  0.00  0.00    +0.000 A 
ATOM     13 CL   UNL     1       1.317   7.677  20.915  0.00  0.00    +0.000 Cl
ATOM     14  C   UNL     1       2.877   6.223  19.150  0.00  0.00    +0.000 A 
ATOM     15 CL   UNL     1       2.854   7.643  18.141  0.00  0.00    +0.000 Cl
ENDBRANCH   4   7
BRANCH   1  18
ATOM     16  C   UNL     1       7.237   3.492  11.898  0.00  0.00    +0.000 C 
ATOM     17  N   UNL     1       6.471   3.749  13.083  0.00  0.00    +0.000 N 
ATOM     18  C   UNL     1       6.899   4.645  14.046  0.00  0.00    +0.000 C 
ATOM     19  O   UNL     1       7.913   5.318  13.941  0.00  0.00    +0.000 OA
ATOM     20  H   UNL     1       5.637   3.210  13.298  0.00  0.00    +0.000 HD
ENDBRANCH   1  18
BRANCH   5  21
ATOM     21  N   UNL     1       6.342   6.211  18.457  0.00  0.00    +0.000 N 
ATOM     22  H   UNL     1       7.349   6.243  18.367  0.00  0.00    +0.000 HD
ATOM     23  H   UNL     1       5.930   7.139  18.452  0.00  0.00    +0.000 HD
ENDBRANCH   5  21
TORSDOF 3
ENDMDL
MODEL 8
REMARK VINA RESULT:      -6.8      4.616      6.780
REMARK  Name = 
REMARK  4 active torsions:
REMARK  status: ('A' for Active; 'I' for Inactive)
REMARK    1  A    between atoms: C_1  and  N_2
REMARK    2  A    between atoms: C_3  and  C_5
REMARK    3  A    between atoms: C_8  and  C_9
REMARK    4  A    between atoms: C_18  and  N_19
REMARK                            x       y       z     vdW  Elec       q    Type
REMARK                         _______ _______ _______ _____ _____    ______ ____
ROOT
ATOM      1  C   UNL     1       5.989   4.955  15.442  0.00  0.00    +0.000 A 
ATOM      2  C   UNL     1       6.320   5.858  16.431  0.00  0.00    +0.000 A 
ATOM      3  C   UNL     1       5.504   5.920  17.560  0.00  0.00    +0.000 A 
ATOM      4  C   UNL     1       4.340   5.135  17.672  0.00  0.00    +0.000 A 
ATOM      5  C   UNL     1       4.111   4.246  16.591  0.00  0.00    +0.000 A 
ATOM      6  N   UNL     1       4.909   4.135  15.507  0.00  0.00    +0.000 NA
ENDROOT
BRANCH   4   7
ATOM      7  C   UNL     1       3.457   5.226  18.886  0.00  0.00    +0.000 A 
ATOM      8  C   UNL     1       2.775   6.438  19.148  0.00  0.00    +0.000 A 
ATOM      9  C   UNL     1       1.975   6.617  20.279  0.00  0.00    +0.000 A 
ATOM     10 CL   UNL     1       1.277   8.156  20.598  0.00  0.00    +0.000 Cl
ATOM     11  C   UNL     1       1.750   5.568  21.153  0.00  0.00    +0.000 A 
ATOM     12  C   UNL     1       2.363   4.341  20.913  0.00  0.00    +0.000 A 
ATOM     13 CL   UNL     1       1.991   3.063  22.025  0.00  0.00    +0.000 Cl
ATOM     14  C   UNL     1       3.243   4.170  19.818  0.00  0.00    +0.000 A 
ATOM     15 CL   UNL     1       4.113   2.665  19.702  0.00  0.00    +0.000 Cl
ENDBRANCH   4   7
BRANCH   1  18
ATOM     16  C   UNL     1       7.127   3.689  12.066  0.00  0.00    +0.000 C 
ATOM     17  N   UNL     1       6.371   3.992  13.247  0.00  0.00    +0.000 N 
ATOM     18  C   UNL     1       6.867   4.822  14.236  0.00  0.00    +0.000 C 
ATOM     19  O   UNL     1       7.941   5.398  14.160  0.00  0.00    +0.000 OA
ATOM     20  H   UNL     1       5.486   3.530  13.439  0.00  0.00    +0.000 HD
ENDBRANCH   1  18
BRANCH   5  21
ATOM     21  N   UNL     1       3.045   3.345  16.567  0.00  0.00    +0.000 N 
ATOM     22  H   UNL     1       3.222   2.533  17.143  0.00  0.00    +0.000 HD
ATOM     23  H   UNL     1       2.212   3.846  16.861  0.00  0.00    +0.000 HD
ENDBRANCH   5  21
TORSDOF 3
ENDMDL
MODEL 9
REMARK VINA RESULT:      -6.4      1.886      2.464
REMARK  Name = 
REMARK  4 active torsions:
REMARK  status: ('A' for Active; 'I' for Inactive)
REMARK    1  A    between atoms: C_1  and  N_2
REMARK    2  A    between atoms: C_3  and  C_5
REMARK    3  A    between atoms: C_8  and  C_9
REMARK    4  A    between atoms: C_18  and  N_19
REMARK                            x       y       z     vdW  Elec       q    Type
REMARK                         _______ _______ _______ _____ _____    ______ ____
ROOT
ATOM      1  C   UNL     1       1.013   9.305  20.814  0.00  0.00    +0.000 A 
ATOM      2  C   UNL     1       1.309   8.129  21.471  0.00  0.00    +0.000 A 
ATOM      3  C   UNL     1       1.915   7.107  20.742  0.00  0.00    +0.000 A 
ATOM      4  C   UNL     1       2.165   7.235  19.361  0.00  0.00    +0.000 A 
ATOM      5  C   UNL     1       1.817   8.492  18.804  0.00  0.00    +0.000 A 
ATOM      6  N   UNL     1       1.270   9.513  19.498  0.00  0.00    +0.000 NA
ENDROOT
BRANCH   4   7
ATOM      7  C   UNL     1       2.800   6.117  18.582  0.00  0.00    +0.000 A 
ATOM      8  C   UNL     1       3.862   6.416  17.695  0.00  0.00    +0.000 A 
ATOM      9  C   UNL     1       4.471   5.442  16.901  0.00  0.00    +0.000 A 
ATOM     10 CL   UNL     1       5.671   5.899  15.756  0.00  0.00    +0.000 Cl
ATOM     11  C   UNL     1       4.109   4.112  17.020  0.00  0.00    +0.000 A 
ATOM     12  C   UNL     1       3.100   3.761  17.913  0.00  0.00    +0.000 A 
ATOM     13 CL   UNL     1       2.738   2.069  18.041  0.00  0.00    +0.000 Cl
ATOM     14  C   UNL     1       2.415   4.748  18.662  0.00  0.00    +0.000 A 
ATOM     15 CL   UNL     1       1.043   4.243  19.609  0.00  0.00    +0.000 Cl
ENDBRANCH   4   7
BRANCH   1  18
ATOM     16  C   UNL     1      -1.384  11.082  23.136  0.00  0.00    +0.000 C 
ATOM     17  N   UNL     1      -0.640  10.097  22.406  0.00  0.00    +0.000 N 
ATOM     18  C   UNL     1       0.407  10.446  21.574  0.00  0.00    +0.000 C 
ATOM     19  O   UNL     1       0.813  11.590  21.440  0.00  0.00    +0.000 OA
ATOM     20  H   UNL     1      -0.921   9.120  22.403  0.00  0.00    +0.000 HD
ENDBRANCH   1  18
BRANCH   5  21
ATOM     21  N   UNL     1       2.058   8.818  17.469  0.00  0.00    +0.000 N 
ATOM     22  H   UNL     1       1.738   9.750  17.242  0.00  0.00    +0.000 HD
ATOM     23  H   UNL     1       3.053   8.706  17.299  0.00  0.00    +0.000 HD
ENDBRANCH   5  21
TORSDOF 3
ENDMDL
