MODEL 1
REMARK VINA RESULT:      -7.4      0.000      0.000
REMARK  Name = 
REMARK  12 active torsions:
REMARK  status: ('A' for Active; 'I' for Inactive)
REMARK    1  A    between atoms: C_1  and  C_2
REMARK    2  A    between atoms: C_2  and  N_3
REMARK    3  A    between atoms: N_3  and  C_4
REMARK    4  A    between atoms: N_3  and  C_6
REMARK    5  A    between atoms: C_4  and  C_5
REMARK    6  A    between atoms: C_6  and  C_7
REMARK    7  A    between atoms: C_7  and  N_8
REMARK    8  A    between atoms: C_12  and  O_13
REMARK    9  A    between atoms: O_13  and  C_14
REMARK   10  A    between atoms: C_16  and  O_17
REMARK   11  A    between atoms: O_17  and  C_18
REMARK   12  A    between atoms: C_23  and  N_24
REMARK                            x       y       z     vdW  Elec       q    Type
REMARK                         _______ _______ _______ _____ _____    ______ ____
ROOT
ATOM      1  N   UNL     1       4.239   6.485  17.443  0.00  0.00    +0.000 N 
ATOM      2  N   UNL     1       3.484   7.622  17.732  0.00  0.00    +0.000 N 
ATOM      3  C   UNL     1       2.678   7.352  18.829  0.00  0.00    +0.000 A 
ATOM      4  C   UNL     1       1.828   8.175  19.550  0.00  0.00    +0.000 A 
ATOM      5  C   UNL     1       1.691   9.535  19.243  0.00  0.00    +0.000 A 
ATOM      6  C   UNL     1       0.776  10.281  19.977  0.00  0.00    +0.000 A 
ATOM      7  C   UNL     1       0.031   9.672  20.993  0.00  0.00    +0.000 A 
ATOM      8  C   UNL     1       0.221   8.313  21.295  0.00  0.00    +0.000 A 
ATOM      9  C   UNL     1       1.121   7.528  20.594  0.00  0.00    +0.000 A 
ATOM     10  N   UNL     1       1.295   6.204  20.907  0.00  0.00    +0.000 NA
ATOM     11  C   UNL     1       2.189   5.444  20.194  0.00  0.00    +0.000 A 
ATOM     12  C   UNL     1       2.563   4.109  20.349  0.00  0.00    +0.000 A 
ATOM     13  C   UNL     1       3.490   3.443  19.499  0.00  0.00    +0.000 A 
ATOM     14  C   UNL     1       4.125   4.125  18.436  0.00  0.00    +0.000 A 
ATOM     15  C   UNL     1       3.790   5.463  18.302  0.00  0.00    +0.000 A 
ATOM     16  C   UNL     1       2.849   6.028  19.157  0.00  0.00    +0.000 A 
ATOM     17  H   UNL     1       3.820   8.555  17.490  0.00  0.00    +0.000 HD
ENDROOT
BRANCH  12  18
ATOM     18  N   UNL     1       1.991   3.371  21.454  0.00  0.00    +0.000 N 
ATOM     19  O   UNL     1       0.934   2.761  21.250  0.00  0.00    +0.000 OA
ATOM     20  O   UNL     1       2.558   3.485  22.551  0.00  0.00    +0.000 OA
ENDBRANCH  12  18
BRANCH   5  21
ATOM     21  O   UNL     1       2.477  10.034  18.241  0.00  0.00    +0.000 OA
ATOM     22  C   UNL     1       2.424  11.419  17.952  0.00  0.00    +0.000 C 
ENDBRANCH   5  21
BRANCH   7  23
ATOM     23  O   UNL     1      -0.917  10.313  21.750  0.00  0.00    +0.000 OA
ATOM     24  C   UNL     1      -0.810  10.166  23.164  0.00  0.00    +0.000 C 
ENDBRANCH   7  23
BRANCH   1  25
ATOM     25  C   UNL     1       4.899   6.440  16.133  0.00  0.00    +0.000 C 
BRANCH  25  26
ATOM     26  C   UNL     1       6.440   6.388  16.314  0.00  0.00    +0.000 C 
BRANCH  26  27
ATOM     27  N   UNL     1       7.114   5.061  16.268  0.00  0.00    +0.000 NA
BRANCH  27  29
ATOM     28  C   UNL     1       7.646   5.792  18.656  0.00  0.00    +0.000 C 
ATOM     29  C   UNL     1       7.498   4.658  17.639  0.00  0.00    +0.000 C 
ENDBRANCH  27  29
BRANCH  27  30
ATOM     30  C   UNL     1       6.383   4.028  15.527  0.00  0.00    +0.000 C 
ATOM     31  C   UNL     1       6.439   4.128  14.008  0.00  0.00    +0.000 C 
ENDBRANCH  27  30
ENDBRANCH  26  27
ENDBRANCH  25  26
ENDBRANCH   1  25
TORSDOF 8
ENDMDL
MODEL 2
REMARK VINA RESULT:      -6.9      0.518      1.634
REMARK  Name = 
REMARK  12 active torsions:
REMARK  status: ('A' for Active; 'I' for Inactive)
REMARK    1  A    between atoms: C_1  and  C_2
REMARK    2  A    between atoms: C_2  and  N_3
REMARK    3  A    between atoms: N_3  and  C_4
REMARK    4  A    between atoms: N_3  and  C_6
REMARK    5  A    between atoms: C_4  and  C_5
REMARK    6  A    between atoms: C_6  and  C_7
REMARK    7  A    between atoms: C_7  and  N_8
REMARK    8  A    between atoms: C_12  and  O_13
REMARK    9  A    between atoms: O_13  and  C_14
REMARK   10  A    between atoms: C_16  and  O_17
REMARK   11  A    between atoms: O_17  and  C_18
REMARK   12  A    between atoms: C_23  and  N_24
REMARK                            x       y       z     vdW  Elec       q    Type
REMARK                         _______ _______ _______ _____ _____    ______ ____
ROOT
ATOM      1  N   UNL     1       4.035   6.747  17.471  0.00  0.00    +0.000 N 
ATOM      2  N   UNL     1       3.290   7.872  17.824  0.00  0.00    +0.000 N 
ATOM      3  C   UNL     1       2.509   7.558  18.928  0.00  0.00    +0.000 A 
ATOM      4  C   UNL     1       1.679   8.352  19.702  0.00  0.00    +0.000 A 
ATOM      5  C   UNL     1       1.538   9.725  19.455  0.00  0.00    +0.000 A 
ATOM      6  C   UNL     1       0.643  10.441  20.242  0.00  0.00    +0.000 A 
ATOM      7  C   UNL     1      -0.080   9.792  21.248  0.00  0.00    +0.000 A 
ATOM      8  C   UNL     1       0.113   8.421  21.489  0.00  0.00    +0.000 A 
ATOM      9  C   UNL     1       0.994   7.664  20.735  0.00  0.00    +0.000 A 
ATOM     10  N   UNL     1       1.171   6.328  20.988  0.00  0.00    +0.000 NA
ATOM     11  C   UNL     1       2.046   5.596  20.223  0.00  0.00    +0.000 A 
ATOM     12  C   UNL     1       2.419   4.255  20.314  0.00  0.00    +0.000 A 
ATOM     13  C   UNL     1       3.324   3.623  19.416  0.00  0.00    +0.000 A 
ATOM     14  C   UNL     1       3.936   4.348  18.367  0.00  0.00    +0.000 A 
ATOM     15  C   UNL     1       3.602   5.691  18.297  0.00  0.00    +0.000 A 
ATOM     16  C   UNL     1       2.684   6.222  19.197  0.00  0.00    +0.000 A 
ATOM     17  H   UNL     1       3.623   8.813  17.614  0.00  0.00    +0.000 HD
ENDROOT
BRANCH  12  18
ATOM     18  N   UNL     1       1.872   3.473  21.401  0.00  0.00    +0.000 N 
ATOM     19  O   UNL     1       2.550   3.369  22.431  0.00  0.00    +0.000 OA
ATOM     20  O   UNL     1       0.802   2.886  21.180  0.00  0.00    +0.000 OA
ENDBRANCH  12  18
BRANCH   5  21
ATOM     21  O   UNL     1       2.302  10.263  18.457  0.00  0.00    +0.000 OA
ATOM     22  C   UNL     1       2.205  11.650  18.190  0.00  0.00    +0.000 C 
ENDBRANCH   5  21
BRANCH   7  23
ATOM     23  O   UNL     1      -1.008  10.403  22.054  0.00  0.00    +0.000 OA
ATOM     24  C   UNL     1      -1.029  11.828  22.036  0.00  0.00    +0.000 C 
ENDBRANCH   7  23
BRANCH   1  25
ATOM     25  C   UNL     1       4.663   6.755  16.145  0.00  0.00    +0.000 C 
BRANCH  25  26
ATOM     26  C   UNL     1       6.177   6.435  16.271  0.00  0.00    +0.000 C 
BRANCH  26  27
ATOM     27  N   UNL     1       6.604   5.009  16.233  0.00  0.00    +0.000 NA
BRANCH  27  29
ATOM     28  C   UNL     1       6.014   4.011  13.959  0.00  0.00    +0.000 C 
ATOM     29  C   UNL     1       7.057   4.667  14.866  0.00  0.00    +0.000 C 
ENDBRANCH  27  29
BRANCH  27  30
ATOM     30  C   UNL     1       7.551   4.625  17.286  0.00  0.00    +0.000 C 
ATOM     31  C   UNL     1       7.542   5.489  18.540  0.00  0.00    +0.000 C 
ENDBRANCH  27  30
ENDBRANCH  26  27
ENDBRANCH  25  26
ENDBRANCH   1  25
TORSDOF 8
ENDMDL
MODEL 3
REMARK VINA RESULT:      -6.9      0.842      1.498
REMARK  Name = 
REMARK  12 active torsions:
REMARK  status: ('A' for Active; 'I' for Inactive)
REMARK    1  A    between atoms: C_1  and  C_2
REMARK    2  A    between atoms: C_2  and  N_3
REMARK    3  A    between atoms: N_3  and  C_4
REMARK    4  A    between atoms: N_3  and  C_6
REMARK    5  A    between atoms: C_4  and  C_5
REMARK    6  A    between atoms: C_6  and  C_7
REMARK    7  A    between atoms: C_7  and  N_8
REMARK    8  A    between atoms: C_12  and  O_13
REMARK    9  A    between atoms: O_13  and  C_14
REMARK   10  A    between atoms: C_16  and  O_17
REMARK   11  A    between atoms: O_17  and  C_18
REMARK   12  A    between atoms: C_23  and  N_24
REMARK                            x       y       z     vdW  Elec       q    Type
REMARK                         _______ _______ _______ _____ _____    ______ ____
ROOT
ATOM      1  N   UNL     1       4.355   6.182  17.245  0.00  0.00    +0.000 N 
ATOM      2  N   UNL     1       3.588   7.291  17.605  0.00  0.00    +0.000 N 
ATOM      3  C   UNL     1       2.818   6.957  18.710  0.00  0.00    +0.000 A 
ATOM      4  C   UNL     1       1.974   7.731  19.490  0.00  0.00    +0.000 A 
ATOM      5  C   UNL     1       1.803   9.101  19.248  0.00  0.00    +0.000 A 
ATOM      6  C   UNL     1       0.896   9.795  20.039  0.00  0.00    +0.000 A 
ATOM      7  C   UNL     1       0.190   9.129  21.046  0.00  0.00    +0.000 A 
ATOM      8  C   UNL     1       0.414   7.761  21.282  0.00  0.00    +0.000 A 
ATOM      9  C   UNL     1       1.308   7.025  20.523  0.00  0.00    +0.000 A 
ATOM     10  N   UNL     1       1.514   5.692  20.771  0.00  0.00    +0.000 NA
ATOM     11  C   UNL     1       2.402   4.981  20.001  0.00  0.00    +0.000 A 
ATOM     12  C   UNL     1       2.803   3.648  20.087  0.00  0.00    +0.000 A 
ATOM     13  C   UNL     1       3.718   3.038  19.183  0.00  0.00    +0.000 A 
ATOM     14  C   UNL     1       4.311   3.779  18.134  0.00  0.00    +0.000 A 
ATOM     15  C   UNL     1       3.948   5.115  18.069  0.00  0.00    +0.000 A 
ATOM     16  C   UNL     1       3.022   5.623  18.975  0.00  0.00    +0.000 A 
ATOM     17  H   UNL     1       3.900   8.239  17.396  0.00  0.00    +0.000 HD
ENDROOT
BRANCH  12  18
ATOM     18  N   UNL     1       2.276   2.852  21.173  0.00  0.00    +0.000 N 
ATOM     19  O   UNL     1       1.047   2.716  21.241  0.00  0.00    +0.000 OA
ATOM     20  O   UNL     1       3.094   2.443  22.011  0.00  0.00    +0.000 OA
ENDBRANCH  12  18
BRANCH   5  21
ATOM     21  O   UNL     1       2.552   9.658  18.248  0.00  0.00    +0.000 OA
ATOM     22  C   UNL     1       2.343  11.017  17.909  0.00  0.00    +0.000 C 
ENDBRANCH   5  21
BRANCH   7  23
ATOM     23  O   UNL     1      -0.748   9.717  21.857  0.00  0.00    +0.000 OA
ATOM     24  C   UNL     1      -0.391   9.885  23.226  0.00  0.00    +0.000 C 
ENDBRANCH   7  23
BRANCH   1  25
ATOM     25  C   UNL     1       4.979   6.208  15.917  0.00  0.00    +0.000 C 
BRANCH  25  26
ATOM     26  C   UNL     1       6.377   5.534  15.972  0.00  0.00    +0.000 C 
BRANCH  26  27
ATOM     27  N   UNL     1       7.370   6.043  16.958  0.00  0.00    +0.000 NA
BRANCH  27  29
ATOM     28  C   UNL     1       8.090   8.397  17.635  0.00  0.00    +0.000 C 
ATOM     29  C   UNL     1       6.960   7.389  17.418  0.00  0.00    +0.000 C 
ENDBRANCH  27  29
BRANCH  27  30
ATOM     30  C   UNL     1       7.684   5.112  18.047  0.00  0.00    +0.000 C 
ATOM     31  C   UNL     1       7.364   5.598  19.454  0.00  0.00    +0.000 C 
ENDBRANCH  27  30
ENDBRANCH  26  27
ENDBRANCH  25  26
ENDBRANCH   1  25
TORSDOF 8
ENDMDL
MODEL 4
REMARK VINA RESULT:      -6.8      0.839      1.583
REMARK  Name = 
REMARK  12 active torsions:
REMARK  status: ('A' for Active; 'I' for Inactive)
REMARK    1  A    between atoms: C_1  and  C_2
REMARK    2  A    between atoms: C_2  and  N_3
REMARK    3  A    between atoms: N_3  and  C_4
REMARK    4  A    between atoms: N_3  and  C_6
REMARK    5  A    between atoms: C_4  and  C_5
REMARK    6  A    between atoms: C_6  and  C_7
REMARK    7  A    between atoms: C_7  and  N_8
REMARK    8  A    between atoms: C_12  and  O_13
REMARK    9  A    between atoms: O_13  and  C_14
REMARK   10  A    between atoms: C_16  and  O_17
REMARK   11  A    between atoms: O_17  and  C_18
REMARK   12  A    between atoms: C_23  and  N_24
REMARK                            x       y       z     vdW  Elec       q    Type
REMARK                         _______ _______ _______ _____ _____    ______ ____
ROOT
ATOM      1  N   UNL     1       4.145   6.564  17.377  0.00  0.00    +0.000 N 
ATOM      2  N   UNL     1       3.397   7.701  17.679  0.00  0.00    +0.000 N 
ATOM      3  C   UNL     1       2.604   7.429  18.786  0.00  0.00    +0.000 A 
ATOM      4  C   UNL     1       1.765   8.252  19.520  0.00  0.00    +0.000 A 
ATOM      5  C   UNL     1       1.627   9.614  19.220  0.00  0.00    +0.000 A 
ATOM      6  C   UNL     1       0.724  10.358  19.969  0.00  0.00    +0.000 A 
ATOM      7  C   UNL     1      -0.010   9.748  20.991  0.00  0.00    +0.000 A 
ATOM      8  C   UNL     1       0.181   8.387  21.287  0.00  0.00    +0.000 A 
ATOM      9  C   UNL     1       1.070   7.602  20.571  0.00  0.00    +0.000 A 
ATOM     10  N   UNL     1       1.245   6.277  20.877  0.00  0.00    +0.000 NA
ATOM     11  C   UNL     1       2.128   5.517  20.150  0.00  0.00    +0.000 A 
ATOM     12  C   UNL     1       2.500   4.181  20.295  0.00  0.00    +0.000 A 
ATOM     13  C   UNL     1       3.415   3.515  19.432  0.00  0.00    +0.000 A 
ATOM     14  C   UNL     1       4.038   4.200  18.362  0.00  0.00    +0.000 A 
ATOM     15  C   UNL     1       3.704   5.540  18.238  0.00  0.00    +0.000 A 
ATOM     16  C   UNL     1       2.776   6.104  19.107  0.00  0.00    +0.000 A 
ATOM     17  H   UNL     1       3.732   8.634  17.437  0.00  0.00    +0.000 HD
ENDROOT
BRANCH  12  18
ATOM     18  N   UNL     1       1.941   3.441  21.405  0.00  0.00    +0.000 N 
ATOM     19  O   UNL     1       2.612   3.368  22.443  0.00  0.00    +0.000 OA
ATOM     20  O   UNL     1       0.869   2.853  21.198  0.00  0.00    +0.000 OA
ENDBRANCH  12  18
BRANCH   5  21
ATOM     21  O   UNL     1       2.402  10.114  18.210  0.00  0.00    +0.000 OA
ATOM     22  C   UNL     1       2.395  11.509  17.966  0.00  0.00    +0.000 C 
ENDBRANCH   5  21
BRANCH   7  23
ATOM     23  O   UNL     1      -0.947  10.388  21.763  0.00  0.00    +0.000 OA
ATOM     24  C   UNL     1      -0.822  10.236  23.175  0.00  0.00    +0.000 C 
ENDBRANCH   7  23
BRANCH   1  25
ATOM     25  C   UNL     1       4.788   6.522  16.059  0.00  0.00    +0.000 C 
BRANCH  25  26
ATOM     26  C   UNL     1       6.288   6.149  16.208  0.00  0.00    +0.000 C 
BRANCH  26  27
ATOM     27  N   UNL     1       7.019   6.626  17.414  0.00  0.00    +0.000 NA
BRANCH  27  29
ATOM     28  C   UNL     1       7.463   5.576  19.698  0.00  0.00    +0.000 C 
ATOM     29  C   UNL     1       7.526   5.462  18.174  0.00  0.00    +0.000 C 
ENDBRANCH  27  29
BRANCH  27  30
ATOM     30  C   UNL     1       8.034   7.651  17.149  0.00  0.00    +0.000 C 
ATOM     31  C   UNL     1       7.891   8.951  17.929  0.00  0.00    +0.000 C 
ENDBRANCH  27  30
ENDBRANCH  26  27
ENDBRANCH  25  26
ENDBRANCH   1  25
TORSDOF 8
ENDMDL
MODEL 5
REMARK VINA RESULT:      -6.3      0.990      1.177
REMARK  Name = 
REMARK  12 active torsions:
REMARK  status: ('A' for Active; 'I' for Inactive)
REMARK    1  A    between atoms: C_1  and  C_2
REMARK    2  A    between atoms: C_2  and  N_3
REMARK    3  A    between atoms: N_3  and  C_4
REMARK    4  A    between atoms: N_3  and  C_6
REMARK    5  A    between atoms: C_4  and  C_5
REMARK    6  A    between atoms: C_6  and  C_7
REMARK    7  A    between atoms: C_7  and  N_8
REMARK    8  A    between atoms: C_12  and  O_13
REMARK    9  A    between atoms: O_13  and  C_14
REMARK   10  A    between atoms: C_16  and  O_17
REMARK   11  A    between atoms: O_17  and  C_18
REMARK   12  A    between atoms: C_23  and  N_24
REMARK                            x       y       z     vdW  Elec       q    Type
REMARK                         _______ _______ _______ _____ _____    ______ ____
ROOT
ATOM      1  N   UNL     1       4.159   5.673  17.249  0.00  0.00    +0.000 N 
ATOM      2  N   UNL     1       3.441   6.819  17.590  0.00  0.00    +0.000 N 
ATOM      3  C   UNL     1       2.780   6.589  18.788  0.00  0.00    +0.000 A 
ATOM      4  C   UNL     1       2.024   7.438  19.580  0.00  0.00    +0.000 A 
ATOM      5  C   UNL     1       1.843   8.787  19.245  0.00  0.00    +0.000 A 
ATOM      6  C   UNL     1       1.025   9.558  20.061  0.00  0.00    +0.000 A 
ATOM      7  C   UNL     1       0.415   8.987  21.183  0.00  0.00    +0.000 A 
ATOM      8  C   UNL     1       0.648   7.639  21.507  0.00  0.00    +0.000 A 
ATOM      9  C   UNL     1       1.456   6.829  20.727  0.00  0.00    +0.000 A 
ATOM     10  N   UNL     1       1.673   5.517  21.063  0.00  0.00    +0.000 NA
ATOM     11  C   UNL     1       2.474   4.731  20.271  0.00  0.00    +0.000 A 
ATOM     12  C   UNL     1       2.869   3.403  20.425  0.00  0.00    +0.000 A 
ATOM     13  C   UNL     1       3.685   2.706  19.490  0.00  0.00    +0.000 A 
ATOM     14  C   UNL     1       4.179   3.350  18.332  0.00  0.00    +0.000 A 
ATOM     15  C   UNL     1       3.824   4.682  18.194  0.00  0.00    +0.000 A 
ATOM     16  C   UNL     1       2.996   5.278  19.140  0.00  0.00    +0.000 A 
ATOM     17  H   UNL     1       3.740   7.743  17.275  0.00  0.00    +0.000 HD
ENDROOT
BRANCH  12  18
ATOM     18  N   UNL     1       2.444   2.706  21.619  0.00  0.00    +0.000 N 
ATOM     19  O   UNL     1       3.279   2.000  22.200  0.00  0.00    +0.000 OA
ATOM     20  O   UNL     1       1.243   2.794  21.917  0.00  0.00    +0.000 OA
ENDBRANCH  12  18
BRANCH   5  21
ATOM     21  O   UNL     1       2.496   9.249  18.135  0.00  0.00    +0.000 OA
ATOM     22  C   UNL     1       2.321  10.600  17.749  0.00  0.00    +0.000 C 
ENDBRANCH   5  21
BRANCH   7  23
ATOM     23  O   UNL     1      -0.433   9.655  22.030  0.00  0.00    +0.000 OA
ATOM     24  C   UNL     1      -0.784  10.986  21.662  0.00  0.00    +0.000 C 
ENDBRANCH   7  23
BRANCH   1  25
ATOM     25  C   UNL     1       4.649   5.581  15.869  0.00  0.00    +0.000 C 
BRANCH  25  26
ATOM     26  C   UNL     1       6.061   6.216  15.762  0.00  0.00    +0.000 C 
BRANCH  26  27
ATOM     27  N   UNL     1       7.203   5.342  15.375  0.00  0.00    +0.000 NA
BRANCH  27  29
ATOM     28  C   UNL     1       7.707   4.620  17.771  0.00  0.00    +0.000 C 
ATOM     29  C   UNL     1       7.320   4.229  16.344  0.00  0.00    +0.000 C 
ENDBRANCH  27  29
BRANCH  27  30
ATOM     30  C   UNL     1       7.199   4.913  13.973  0.00  0.00    +0.000 C 
ATOM     31  C   UNL     1       8.168   5.637  13.048  0.00  0.00    +0.000 C 
ENDBRANCH  27  30
ENDBRANCH  26  27
ENDBRANCH  25  26
ENDBRANCH   1  25
TORSDOF 8
ENDMDL
MODEL 6
REMARK VINA RESULT:      -6.3      4.457      6.869
REMARK  Name = 
REMARK  12 active torsions:
REMARK  status: ('A' for Active; 'I' for Inactive)
REMARK    1  A    between atoms: C_1  and  C_2
REMARK    2  A    between atoms: C_2  and  N_3
REMARK    3  A    between atoms: N_3  and  C_4
REMARK    4  A    between atoms: N_3  and  C_6
REMARK    5  A    between atoms: C_4  and  C_5
REMARK    6  A    between atoms: C_6  and  C_7
REMARK    7  A    between atoms: C_7  and  N_8
REMARK    8  A    between atoms: C_12  and  O_13
REMARK    9  A    between atoms: O_13  and  C_14
REMARK   10  A    between atoms: C_16  and  O_17
REMARK   11  A    between atoms: O_17  and  C_18
REMARK   12  A    between atoms: C_23  and  N_24
REMARK                            x       y       z     vdW  Elec       q    Type
REMARK                         _______ _______ _______ _____ _____    ______ ____
ROOT
ATOM      1  N   UNL     1       0.607   9.983  18.314  0.00  0.00    +0.000 N 
ATOM      2  N   UNL     1      -0.549  10.095  17.542  0.00  0.00    +0.000 N 
ATOM      3  C   UNL     1      -1.512  10.768  18.280  0.00  0.00    +0.000 A 
ATOM      4  C   UNL     1      -2.779  11.205  17.927  0.00  0.00    +0.000 A 
ATOM      5  C   UNL     1      -3.280  11.028  16.630  0.00  0.00    +0.000 A 
ATOM      6  C   UNL     1      -4.581  11.444  16.372  0.00  0.00    +0.000 A 
ATOM      7  C   UNL     1      -5.346  12.027  17.387  0.00  0.00    +0.000 A 
ATOM      8  C   UNL     1      -4.796  12.220  18.667  0.00  0.00    +0.000 A 
ATOM      9  C   UNL     1      -3.505  11.824  18.975  0.00  0.00    +0.000 A 
ATOM     10  N   UNL     1      -2.987  12.025  20.228  0.00  0.00    +0.000 NA
ATOM     11  C   UNL     1      -1.706  11.619  20.512  0.00  0.00    +0.000 A 
ATOM     12  C   UNL     1      -0.957  11.748  21.682  0.00  0.00    +0.000 A 
ATOM     13  C   UNL     1       0.363  11.240  21.837  0.00  0.00    +0.000 A 
ATOM     14  C   UNL     1       1.020  10.580  20.772  0.00  0.00    +0.000 A 
ATOM     15  C   UNL     1       0.297  10.485  19.594  0.00  0.00    +0.000 A 
ATOM     16  C   UNL     1      -1.001  10.982  19.538  0.00  0.00    +0.000 A 
ATOM     17  H   UNL     1      -0.504  10.107  16.523  0.00  0.00    +0.000 HD
ENDROOT
BRANCH  12  18
ATOM     18  N   UNL     1      -1.552  12.464  22.789  0.00  0.00    +0.000 N 
ATOM     19  O   UNL     1      -1.106  13.588  23.052  0.00  0.00    +0.000 OA
ATOM     20  O   UNL     1      -2.403  11.853  23.453  0.00  0.00    +0.000 OA
ENDBRANCH  12  18
BRANCH   5  21
ATOM     21  O   UNL     1      -2.445  10.461  15.708  0.00  0.00    +0.000 OA
ATOM     22  C   UNL     1      -2.973  10.068  14.454  0.00  0.00    +0.000 C 
ENDBRANCH   5  21
BRANCH   7  23
ATOM     23  O   UNL     1      -6.646  12.440  17.240  0.00  0.00    +0.000 OA
ATOM     24  C   UNL     1      -7.399  12.614  18.438  0.00  0.00    +0.000 C 
ENDBRANCH   7  23
BRANCH   1  25
ATOM     25  C   UNL     1       1.619   9.022  17.861  0.00  0.00    +0.000 C 
BRANCH  25  26
ATOM     26  C   UNL     1       1.954   8.023  19.002  0.00  0.00    +0.000 C 
BRANCH  26  27
ATOM     27  N   UNL     1       3.028   7.018  18.769  0.00  0.00    +0.000 NA
BRANCH  27  29
ATOM     28  C   UNL     1       1.866   4.911  17.916  0.00  0.00    +0.000 C 
ATOM     29  C   UNL     1       2.511   5.666  19.080  0.00  0.00    +0.000 C 
ENDBRANCH  27  29
BRANCH  27  30
ATOM     30  C   UNL     1       3.688   7.117  17.463  0.00  0.00    +0.000 C 
ATOM     31  C   UNL     1       5.112   6.582  17.391  0.00  0.00    +0.000 C 
ENDBRANCH  27  30
ENDBRANCH  26  27
ENDBRANCH  25  26
ENDBRANCH   1  25
TORSDOF 8
ENDMDL
MODEL 7
REMARK VINA RESULT:      -6.3      4.524      7.094
REMARK  Name = 
REMARK  12 active torsions:
REMARK  status: ('A' for Active; 'I' for Inactive)
REMARK    1  A    between atoms: C_1  and  C_2
REMARK    2  A    between atoms: C_2  and  N_3
REMARK    3  A    between atoms: N_3  and  C_4
REMARK    4  A    between atoms: N_3  and  C_6
REMARK    5  A    between atoms: C_4  and  C_5
REMARK    6  A    between atoms: C_6  and  C_7
REMARK    7  A    between atoms: C_7  and  N_8
REMARK    8  A    between atoms: C_12  and  O_13
REMARK    9  A    between atoms: O_13  and  C_14
REMARK   10  A    between atoms: C_16  and  O_17
REMARK   11  A    between atoms: O_17  and  C_18
REMARK   12  A    between atoms: C_23  and  N_24
REMARK                            x       y       z     vdW  Elec       q    Type
REMARK                         _______ _______ _______ _____ _____    ______ ____
ROOT
ATOM      1  N   UNL     1       0.634  10.241  18.299  0.00  0.00    +0.000 N 
ATOM      2  N   UNL     1      -0.555  10.239  17.569  0.00  0.00    +0.000 N 
ATOM      3  C   UNL     1      -1.523  10.918  18.296  0.00  0.00    +0.000 A 
ATOM      4  C   UNL     1      -2.823  11.265  17.964  0.00  0.00    +0.000 A 
ATOM      5  C   UNL     1      -3.363  10.968  16.706  0.00  0.00    +0.000 A 
ATOM      6  C   UNL     1      -4.692  11.300  16.471  0.00  0.00    +0.000 A 
ATOM      7  C   UNL     1      -5.447  11.918  17.473  0.00  0.00    +0.000 A 
ATOM      8  C   UNL     1      -4.860  12.233  18.712  0.00  0.00    +0.000 A 
ATOM      9  C   UNL     1      -3.540  11.924  18.994  0.00  0.00    +0.000 A 
ATOM     10  N   UNL     1      -2.986  12.242  20.207  0.00  0.00    +0.000 NA
ATOM     11  C   UNL     1      -1.676  11.921  20.466  0.00  0.00    +0.000 A 
ATOM     12  C   UNL     1      -0.892  12.174  21.592  0.00  0.00    +0.000 A 
ATOM     13  C   UNL     1       0.458  11.743  21.728  0.00  0.00    +0.000 A 
ATOM     14  C   UNL     1       1.108  11.039  20.688  0.00  0.00    +0.000 A 
ATOM     15  C   UNL     1       0.347  10.821  19.550  0.00  0.00    +0.000 A 
ATOM     16  C   UNL     1      -0.976  11.249  19.512  0.00  0.00    +0.000 A 
ATOM     17  H   UNL     1      -0.549  10.177  16.550  0.00  0.00    +0.000 HD
ENDROOT
BRANCH  12  18
ATOM     18  N   UNL     1      -1.480  12.939  22.668  0.00  0.00    +0.000 N 
ATOM     19  O   UNL     1      -1.148  14.127  22.776  0.00  0.00    +0.000 OA
ATOM     20  O   UNL     1      -2.204  12.319  23.461  0.00  0.00    +0.000 OA
ENDBRANCH  12  18
BRANCH   5  21
ATOM     21  O   UNL     1      -2.534  10.375  15.793  0.00  0.00    +0.000 OA
ATOM     22  C   UNL     1      -3.013  10.144  14.480  0.00  0.00    +0.000 C 
ENDBRANCH   5  21
BRANCH   7  23
ATOM     23  O   UNL     1      -6.772  12.255  17.351  0.00  0.00    +0.000 OA
ATOM     24  C   UNL     1      -7.478  12.514  18.561  0.00  0.00    +0.000 C 
ENDBRANCH   7  23
BRANCH   1  25
ATOM     25  C   UNL     1       1.676   9.300  17.875  0.00  0.00    +0.000 C 
BRANCH  25  26
ATOM     26  C   UNL     1       1.798   8.141  18.902  0.00  0.00    +0.000 C 
BRANCH  26  27
ATOM     27  N   UNL     1       2.553   6.920  18.505  0.00  0.00    +0.000 NA
BRANCH  27  29
ATOM     28  C   UNL     1       4.708   6.209  17.336  0.00  0.00    +0.000 C 
ATOM     29  C   UNL     1       3.681   7.304  17.627  0.00  0.00    +0.000 C 
ENDBRANCH  27  29
BRANCH  27  30
ATOM     30  C   UNL     1       2.937   6.048  19.620  0.00  0.00    +0.000 C 
ATOM     31  C   UNL     1       1.801   5.565  20.512  0.00  0.00    +0.000 C 
ENDBRANCH  27  30
ENDBRANCH  26  27
ENDBRANCH  25  26
ENDBRANCH   1  25
TORSDOF 8
ENDMDL
MODEL 8
REMARK VINA RESULT:      -6.3      1.280      1.700
REMARK  Name = 
REMARK  12 active torsions:
REMARK  status: ('A' for Active; 'I' for Inactive)
REMARK    1  A    between atoms: C_1  and  C_2
REMARK    2  A    between atoms: C_2  and  N_3
REMARK    3  A    between atoms: N_3  and  C_4
REMARK    4  A    between atoms: N_3  and  C_6
REMARK    5  A    between atoms: C_4  and  C_5
REMARK    6  A    between atoms: C_6  and  C_7
REMARK    7  A    between atoms: C_7  and  N_8
REMARK    8  A    between atoms: C_12  and  O_13
REMARK    9  A    between atoms: O_13  and  C_14
REMARK   10  A    between atoms: C_16  and  O_17
REMARK   11  A    between atoms: O_17  and  C_18
REMARK   12  A    between atoms: C_23  and  N_24
REMARK                            x       y       z     vdW  Elec       q    Type
REMARK                         _______ _______ _______ _____ _____    ______ ____
ROOT
ATOM      1  N   UNL     1       4.473   6.184  17.124  0.00  0.00    +0.000 N 
ATOM      2  N   UNL     1       3.669   7.253  17.518  0.00  0.00    +0.000 N 
ATOM      3  C   UNL     1       2.943   6.873  18.639  0.00  0.00    +0.000 A 
ATOM      4  C   UNL     1       2.088   7.600  19.450  0.00  0.00    +0.000 A 
ATOM      5  C   UNL     1       1.853   8.964  19.231  0.00  0.00    +0.000 A 
ATOM      6  C   UNL     1       0.938   9.609  20.055  0.00  0.00    +0.000 A 
ATOM      7  C   UNL     1       0.288   8.900  21.071  0.00  0.00    +0.000 A 
ATOM      8  C   UNL     1       0.576   7.540  21.283  0.00  0.00    +0.000 A 
ATOM      9  C   UNL     1       1.480   6.853  20.490  0.00  0.00    +0.000 A 
ATOM     10  N   UNL     1       1.749   5.527  20.716  0.00  0.00    +0.000 NA
ATOM     11  C   UNL     1       2.646   4.865  19.913  0.00  0.00    +0.000 A 
ATOM     12  C   UNL     1       3.106   3.550  19.970  0.00  0.00    +0.000 A 
ATOM     13  C   UNL     1       4.022   2.991  19.035  0.00  0.00    +0.000 A 
ATOM     14  C   UNL     1       4.555   3.770  17.981  0.00  0.00    +0.000 A 
ATOM     15  C   UNL     1       4.134   5.089  17.944  0.00  0.00    +0.000 A 
ATOM     16  C   UNL     1       3.211   5.546  18.880  0.00  0.00    +0.000 A 
ATOM     17  H   UNL     1       3.935   8.217  17.315  0.00  0.00    +0.000 HD
ENDROOT
BRANCH  12  18
ATOM     18  N   UNL     1       2.643   2.718  21.058  0.00  0.00    +0.000 N 
ATOM     19  O   UNL     1       1.421   2.651  21.249  0.00  0.00    +0.000 OA
ATOM     20  O   UNL     1       3.514   2.208  21.779  0.00  0.00    +0.000 OA
ENDBRANCH  12  18
BRANCH   5  21
ATOM     21  O   UNL     1       2.551   9.566  18.221  0.00  0.00    +0.000 OA
ATOM     22  C   UNL     1       2.281  10.921  17.912  0.00  0.00    +0.000 C 
ENDBRANCH   5  21
BRANCH   7  23
ATOM     23  O   UNL     1      -0.653   9.437  21.914  0.00  0.00    +0.000 OA
ATOM     24  C   UNL     1      -0.234   9.702  23.250  0.00  0.00    +0.000 C 
ENDBRANCH   7  23
BRANCH   1  25
ATOM     25  C   UNL     1       5.060   6.253  15.781  0.00  0.00    +0.000 C 
BRANCH  25  26
ATOM     26  C   UNL     1       5.344   4.822  15.249  0.00  0.00    +0.000 C 
BRANCH  26  27
ATOM     27  N   UNL     1       6.020   4.678  13.930  0.00  0.00    +0.000 NA
BRANCH  27  29
ATOM     28  C   UNL     1       8.132   5.510  12.763  0.00  0.00    +0.000 C 
ATOM     29  C   UNL     1       7.437   5.084  14.058  0.00  0.00    +0.000 C 
ENDBRANCH  27  29
BRANCH  27  30
ATOM     30  C   UNL     1       5.830   3.375  13.283  0.00  0.00    +0.000 C 
ATOM     31  C   UNL     1       5.083   3.390  11.956  0.00  0.00    +0.000 C 
ENDBRANCH  27  30
ENDBRANCH  26  27
ENDBRANCH  25  26
ENDBRANCH   1  25
TORSDOF 8
ENDMDL
MODEL 9
REMARK VINA RESULT:      -6.1      4.663      7.474
REMARK  Name = 
REMARK  12 active torsions:
REMARK  status: ('A' for Active; 'I' for Inactive)
REMARK    1  A    between atoms: C_1  and  C_2
REMARK    2  A    between atoms: C_2  and  N_3
REMARK    3  A    between atoms: N_3  and  C_4
REMARK    4  A    between atoms: N_3  and  C_6
REMARK    5  A    between atoms: C_4  and  C_5
REMARK    6  A    between atoms: C_6  and  C_7
REMARK    7  A    between atoms: C_7  and  N_8
REMARK    8  A    between atoms: C_12  and  O_13
REMARK    9  A    between atoms: O_13  and  C_14
REMARK   10  A    between atoms: C_16  and  O_17
REMARK   11  A    between atoms: O_17  and  C_18
REMARK   12  A    between atoms: C_23  and  N_24
REMARK                            x       y       z     vdW  Elec       q    Type
REMARK                         _______ _______ _______ _____ _____    ______ ____
ROOT
ATOM      1  N   UNL     1       0.808  11.005  18.385  0.00  0.00    +0.000 N 
ATOM      2  N   UNL     1      -0.423  10.677  17.818  0.00  0.00    +0.000 N 
ATOM      3  C   UNL     1      -1.425  11.327  18.526  0.00  0.00    +0.000 A 
ATOM      4  C   UNL     1      -2.790  11.398  18.300  0.00  0.00    +0.000 A 
ATOM      5  C   UNL     1      -3.382  10.781  17.191  0.00  0.00    +0.000 A 
ATOM      6  C   UNL     1      -4.765  10.851  17.066  0.00  0.00    +0.000 A 
ATOM      7  C   UNL     1      -5.522  11.530  18.027  0.00  0.00    +0.000 A 
ATOM      8  C   UNL     1      -4.888  12.167  19.108  0.00  0.00    +0.000 A 
ATOM      9  C   UNL     1      -3.514  12.128  19.276  0.00  0.00    +0.000 A 
ATOM     10  N   UNL     1      -2.915  12.759  20.336  0.00  0.00    +0.000 NA
ATOM     11  C   UNL     1      -1.551  12.701  20.486  0.00  0.00    +0.000 A 
ATOM     12  C   UNL     1      -0.724  13.287  21.443  0.00  0.00    +0.000 A 
ATOM     13  C   UNL     1       0.687  13.105  21.488  0.00  0.00    +0.000 A 
ATOM     14  C   UNL     1       1.352  12.319  20.517  0.00  0.00    +0.000 A 
ATOM     15  C   UNL     1       0.540  11.768  19.539  0.00  0.00    +0.000 A 
ATOM     16  C   UNL     1      -0.835  11.971  19.588  0.00  0.00    +0.000 A 
ATOM     17  H   UNL     1      -0.500  10.419  16.834  0.00  0.00    +0.000 HD
ENDROOT
BRANCH  12  18
ATOM     18  N   UNL     1      -1.336  14.148  22.430  0.00  0.00    +0.000 N 
ATOM     19  O   UNL     1      -1.542  15.327  22.114  0.00  0.00    +0.000 OA
ATOM     20  O   UNL     1      -1.522  13.661  23.555  0.00  0.00    +0.000 OA
ENDBRANCH  12  18
BRANCH   5  21
ATOM     21  O   UNL     1      -2.551  10.156  16.303  0.00  0.00    +0.000 OA
ATOM     22  C   UNL     1      -2.888  10.157  14.928  0.00  0.00    +0.000 C 
ENDBRANCH   5  21
BRANCH   7  23
ATOM     23  O   UNL     1      -6.890  11.628  18.010  0.00  0.00    +0.000 OA
ATOM     24  C   UNL     1      -7.469  12.615  18.859  0.00  0.00    +0.000 C 
ENDBRANCH   7  23
BRANCH   1  25
ATOM     25  C   UNL     1       1.956  10.172  18.010  0.00  0.00    +0.000 C 
BRANCH  25  26
ATOM     26  C   UNL     1       1.580   8.669  18.117  0.00  0.00    +0.000 C 
BRANCH  26  27
ATOM     27  N   UNL     1       2.526   7.750  18.810  0.00  0.00    +0.000 NA
BRANCH  27  29
ATOM     28  C   UNL     1       1.303   8.351  20.969  0.00  0.00    +0.000 C 
ATOM     29  C   UNL     1       1.912   7.274  20.070  0.00  0.00    +0.000 C 
ENDBRANCH  27  29
BRANCH  27  30
ATOM     30  C   UNL     1       3.066   6.678  17.968  0.00  0.00    +0.000 C 
ATOM     31  C   UNL     1       4.430   6.940  17.344  0.00  0.00    +0.000 C 
ENDBRANCH  27  30
ENDBRANCH  26  27
ENDBRANCH  25  26
ENDBRANCH   1  25
TORSDOF 8
ENDMDL
