MODEL 1
REMARK VINA RESULT:      -8.3      0.000      0.000
REMARK  Name = 
REMARK  9 active torsions:
REMARK  status: ('A' for Active; 'I' for Inactive)
REMARK    1  A    between atoms: C_1  and  C_2
REMARK    2  A    between atoms: C_4  and  C_5
REMARK    3  A    between atoms: C_8  and  C_9
REMARK    4  A    between atoms: C_17  and  C_18
REMARK    5  A    between atoms: C_18  and  S_19
REMARK    6  A    between atoms: S_19  and  C_20
REMARK    7  A    between atoms: C_23  and  C_24
REMARK    8  A    between atoms: C_25  and  C_26
REMARK    9  A    between atoms: C_26  and  O_28
REMARK                            x       y       z     vdW  Elec       q    Type
REMARK                         _______ _______ _______ _____ _____    ______ ____
ROOT
ATOM      1  C   UNL     1      -0.305   9.447  22.812  0.00  0.00    +0.000 C 
ATOM      2  C   UNL     1       0.373   9.071  21.542  0.00  0.00    +0.000 A 
ATOM      3  N   UNL     1       0.783   7.753  21.415  0.00  0.00    +0.000 NA
ATOM      4  C   UNL     1       1.435   7.568  20.287  0.00  0.00    +0.000 A 
ATOM      5  S   UNL     1       1.620   8.980  19.340  0.00  0.00    +0.000 S 
ATOM      6  C   UNL     1       0.654   9.879  20.446  0.00  0.00    +0.000 A 
ENDROOT
BRANCH   4   7
ATOM      7  C   UNL     1       1.968   6.271  19.842  0.00  0.00    +0.000 A 
ATOM      8  C   UNL     1       2.707   6.120  18.656  0.00  0.00    +0.000 A 
ATOM      9  C   UNL     1       3.226   4.877  18.286  0.00  0.00    +0.000 A 
ATOM     10  C   UNL     1       3.018   3.753  19.094  0.00  0.00    +0.000 A 
ATOM     11  C   UNL     1       2.274   3.902  20.261  0.00  0.00    +0.000 A 
ATOM     12  F   UNL     1       2.054   2.842  21.051  0.00  0.00    +0.000 F 
ATOM     13  C   UNL     1       1.755   5.137  20.639  0.00  0.00    +0.000 A 
BRANCH  10  14
ATOM     14  C   UNL     1       3.581   2.411  18.746  0.00  0.00    +0.000 C 
ATOM     15  F   UNL     1       4.487   1.963  19.665  0.00  0.00    +0.000 F 
ATOM     16  F   UNL     1       2.631   1.440  18.673  0.00  0.00    +0.000 F 
ATOM     17  F   UNL     1       4.238   2.399  17.554  0.00  0.00    +0.000 F 
ENDBRANCH  10  14
ENDBRANCH   4   7
BRANCH   6  18
ATOM     18  C   UNL     1       0.297  11.320  20.185  0.00  0.00    +0.000 C 
BRANCH  18  19
ATOM     19  S   UNL     1      -1.494  11.646  20.455  0.00  0.00    +0.000 S 
BRANCH  19  20
ATOM     20  C   UNL     1      -2.231  11.377  18.859  0.00  0.00    +0.000 A 
ATOM     21  C   UNL     1      -1.458  10.754  17.871  0.00  0.00    +0.000 A 
ATOM     22  C   UNL     1      -2.028  10.366  16.652  0.00  0.00    +0.000 A 
ATOM     23  C   UNL     1      -3.388  10.580  16.406  0.00  0.00    +0.000 A 
ATOM     24  C   UNL     1      -4.144  11.253  17.375  0.00  0.00    +0.000 A 
ATOM     25  C   UNL     1      -3.574  11.636  18.596  0.00  0.00    +0.000 A 
BRANCH  23  26
ATOM     26  C   UNL     1      -3.972  10.105  15.145  0.00  0.00    +0.000 C 
ATOM     27  C   UNL     1      -3.329  10.150  13.965  0.00  0.00    +0.000 C 
BRANCH  27  28
ATOM     28  C   UNL     1      -4.002   9.678  12.741  0.00  0.00    +0.000 C 
ATOM     29  O   UNL     1      -3.453   9.506  11.666  0.00  0.00    +0.000 OA
BRANCH  28  30
ATOM     30  O   UNL     1      -5.317   9.461  12.946  0.00  0.00    +0.000 OA
ATOM     31  H   UNL     1      -5.918   9.813  12.265  0.00  0.00    +0.000 HD
ENDBRANCH  28  30
ENDBRANCH  27  28
ENDBRANCH  23  26
ENDBRANCH  19  20
ENDBRANCH  18  19
ENDBRANCH   6  18
TORSDOF 8
ENDMDL
MODEL 2
REMARK VINA RESULT:      -7.8      6.319      9.722
REMARK  Name = 
REMARK  9 active torsions:
REMARK  status: ('A' for Active; 'I' for Inactive)
REMARK    1  A    between atoms: C_1  and  C_2
REMARK    2  A    between atoms: C_4  and  C_5
REMARK    3  A    between atoms: C_8  and  C_9
REMARK    4  A    between atoms: C_17  and  C_18
REMARK    5  A    between atoms: C_18  and  S_19
REMARK    6  A    between atoms: S_19  and  C_20
REMARK    7  A    between atoms: C_23  and  C_24
REMARK    8  A    between atoms: C_25  and  C_26
REMARK    9  A    between atoms: C_26  and  O_28
REMARK                            x       y       z     vdW  Elec       q    Type
REMARK                         _______ _______ _______ _____ _____    ______ ____
ROOT
ATOM      1  C   UNL     1       1.171   2.990  20.367  0.00  0.00    +0.000 C 
ATOM      2  C   UNL     1       1.865   4.297  20.210  0.00  0.00    +0.000 A 
ATOM      3  N   UNL     1       1.147   5.433  20.549  0.00  0.00    +0.000 NA
ATOM      4  C   UNL     1       1.839   6.523  20.293  0.00  0.00    +0.000 A 
ATOM      5  S   UNL     1       3.374   6.234  19.595  0.00  0.00    +0.000 S 
ATOM      6  C   UNL     1       3.159   4.534  19.763  0.00  0.00    +0.000 A 
ENDROOT
BRANCH   4   7
ATOM      7  C   UNL     1       1.369   7.888  20.573  0.00  0.00    +0.000 A 
ATOM      8  C   UNL     1       0.961   8.302  21.853  0.00  0.00    +0.000 A 
ATOM      9  C   UNL     1       0.553   9.618  22.087  0.00  0.00    +0.000 A 
ATOM     10  C   UNL     1       0.544  10.552  21.044  0.00  0.00    +0.000 A 
ATOM     11  C   UNL     1       0.937  10.137  19.775  0.00  0.00    +0.000 A 
ATOM     12  F   UNL     1       0.933  11.009  18.758  0.00  0.00    +0.000 F 
ATOM     13  C   UNL     1       1.346   8.828  19.534  0.00  0.00    +0.000 A 
BRANCH  10  14
ATOM     14  C   UNL     1       0.142  11.978  21.261  0.00  0.00    +0.000 C 
ATOM     15  F   UNL     1       1.177  12.852  21.089  0.00  0.00    +0.000 F 
ATOM     16  F   UNL     1      -0.826  12.391  20.398  0.00  0.00    +0.000 F 
ATOM     17  F   UNL     1      -0.330  12.215  22.515  0.00  0.00    +0.000 F 
ENDBRANCH  10  14
ENDBRANCH   4   7
BRANCH   6  18
ATOM     18  C   UNL     1       4.250   3.564  19.387  0.00  0.00    +0.000 C 
BRANCH  18  19
ATOM     19  S   UNL     1       4.719   3.707  17.613  0.00  0.00    +0.000 S 
BRANCH  19  20
ATOM     20  C   UNL     1       5.884   5.051  17.578  0.00  0.00    +0.000 A 
ATOM     21  C   UNL     1       5.638   6.116  16.703  0.00  0.00    +0.000 A 
ATOM     22  C   UNL     1       6.422   7.275  16.744  0.00  0.00    +0.000 A 
ATOM     23  C   UNL     1       7.460   7.396  17.675  0.00  0.00    +0.000 A 
ATOM     24  C   UNL     1       7.737   6.305  18.509  0.00  0.00    +0.000 A 
ATOM     25  C   UNL     1       6.948   5.148  18.471  0.00  0.00    +0.000 A 
BRANCH  23  26
ATOM     26  C   UNL     1       8.224   8.647  17.737  0.00  0.00    +0.000 C 
ATOM     27  C   UNL     1       8.693   9.176  18.882  0.00  0.00    +0.000 C 
BRANCH  27  28
ATOM     28  C   UNL     1       9.428  10.454  18.855  0.00  0.00    +0.000 C 
ATOM     29  O   UNL     1       9.730  11.063  17.843  0.00  0.00    +0.000 OA
BRANCH  28  30
ATOM     30  O   UNL     1       9.741  10.878  20.097  0.00  0.00    +0.000 OA
ATOM     31  H   UNL     1       9.447  10.306  20.829  0.00  0.00    +0.000 HD
ENDBRANCH  28  30
ENDBRANCH  27  28
ENDBRANCH  23  26
ENDBRANCH  19  20
ENDBRANCH  18  19
ENDBRANCH   6  18
TORSDOF 8
ENDMDL
MODEL 3
REMARK VINA RESULT:      -7.7      6.162      9.583
REMARK  Name = 
REMARK  9 active torsions:
REMARK  status: ('A' for Active; 'I' for Inactive)
REMARK    1  A    between atoms: C_1  and  C_2
REMARK    2  A    between atoms: C_4  and  C_5
REMARK    3  A    between atoms: C_8  and  C_9
REMARK    4  A    between atoms: C_17  and  C_18
REMARK    5  A    between atoms: C_18  and  S_19
REMARK    6  A    between atoms: S_19  and  C_20
REMARK    7  A    between atoms: C_23  and  C_24
REMARK    8  A    between atoms: C_25  and  C_26
REMARK    9  A    between atoms: C_26  and  O_28
REMARK                            x       y       z     vdW  Elec       q    Type
REMARK                         _______ _______ _______ _____ _____    ______ ____
ROOT
ATOM      1  C   UNL     1       4.149   2.953  20.734  0.00  0.00    +0.000 C 
ATOM      2  C   UNL     1       3.580   3.970  19.809  0.00  0.00    +0.000 A 
ATOM      3  N   UNL     1       3.070   5.125  20.382  0.00  0.00    +0.000 NA
ATOM      4  C   UNL     1       2.528   5.905  19.471  0.00  0.00    +0.000 A 
ATOM      5  S   UNL     1       2.571   5.269  17.883  0.00  0.00    +0.000 S 
ATOM      6  C   UNL     1       3.490   3.916  18.423  0.00  0.00    +0.000 A 
ENDROOT
BRANCH   4   7
ATOM      7  C   UNL     1       1.933   7.219  19.754  0.00  0.00    +0.000 A 
ATOM      8  C   UNL     1       1.398   7.556  21.010  0.00  0.00    +0.000 A 
ATOM      9  C   UNL     1       0.873   8.828  21.250  0.00  0.00    +0.000 A 
ATOM     10  C   UNL     1       0.869   9.795  20.237  0.00  0.00    +0.000 A 
ATOM     11  C   UNL     1       1.386   9.455  18.991  0.00  0.00    +0.000 A 
ATOM     12  F   UNL     1       1.390  10.360  18.002  0.00  0.00    +0.000 F 
ATOM     13  C   UNL     1       1.914   8.191  18.744  0.00  0.00    +0.000 A 
BRANCH  10  14
ATOM     14  C   UNL     1       0.340  11.178  20.464  0.00  0.00    +0.000 C 
ATOM     15  F   UNL     1       1.256  12.148  20.171  0.00  0.00    +0.000 F 
ATOM     16  F   UNL     1      -0.746  11.462  19.695  0.00  0.00    +0.000 F 
ATOM     17  F   UNL     1      -0.029  11.404  21.753  0.00  0.00    +0.000 F 
ENDBRANCH  10  14
ENDBRANCH   4   7
BRANCH   6  18
ATOM     18  C   UNL     1       4.000   2.878  17.456  0.00  0.00    +0.000 C 
BRANCH  18  19
ATOM     19  S   UNL     1       4.702   3.638  15.935  0.00  0.00    +0.000 S 
BRANCH  19  20
ATOM     20  C   UNL     1       5.851   4.852  16.545  0.00  0.00    +0.000 A 
ATOM     21  C   UNL     1       5.603   6.199  16.258  0.00  0.00    +0.000 A 
ATOM     22  C   UNL     1       6.372   7.212  16.844  0.00  0.00    +0.000 A 
ATOM     23  C   UNL     1       7.396   6.893  17.743  0.00  0.00    +0.000 A 
ATOM     24  C   UNL     1       7.676   5.542  17.983  0.00  0.00    +0.000 A 
ATOM     25  C   UNL     1       6.902   4.530  17.401  0.00  0.00    +0.000 A 
BRANCH  23  26
ATOM     26  C   UNL     1       8.144   7.978  18.390  0.00  0.00    +0.000 C 
ATOM     27  C   UNL     1       8.227   9.225  17.892  0.00  0.00    +0.000 C 
BRANCH  27  28
ATOM     28  C   UNL     1       9.025  10.246  18.595  0.00  0.00    +0.000 C 
ATOM     29  O   UNL     1       9.278  11.355  18.157  0.00  0.00    +0.000 OA
BRANCH  28  30
ATOM     30  O   UNL     1       9.460   9.805  19.793  0.00  0.00    +0.000 OA
ATOM     31  H   UNL     1       8.859   9.204  20.269  0.00  0.00    +0.000 HD
ENDBRANCH  28  30
ENDBRANCH  27  28
ENDBRANCH  23  26
ENDBRANCH  19  20
ENDBRANCH  18  19
ENDBRANCH   6  18
TORSDOF 8
ENDMDL
MODEL 4
REMARK VINA RESULT:      -7.7      6.587     10.041
REMARK  Name = 
REMARK  9 active torsions:
REMARK  status: ('A' for Active; 'I' for Inactive)
REMARK    1  A    between atoms: C_1  and  C_2
REMARK    2  A    between atoms: C_4  and  C_5
REMARK    3  A    between atoms: C_8  and  C_9
REMARK    4  A    between atoms: C_17  and  C_18
REMARK    5  A    between atoms: C_18  and  S_19
REMARK    6  A    between atoms: S_19  and  C_20
REMARK    7  A    between atoms: C_23  and  C_24
REMARK    8  A    between atoms: C_25  and  C_26
REMARK    9  A    between atoms: C_26  and  O_28
REMARK                            x       y       z     vdW  Elec       q    Type
REMARK                         _______ _______ _______ _____ _____    ______ ____
ROOT
ATOM      1  C   UNL     1       3.044   4.221  20.379  0.00  0.00    +0.000 C 
ATOM      2  C   UNL     1       2.739   5.548  19.780  0.00  0.00    +0.000 A 
ATOM      3  N   UNL     1       2.015   6.438  20.558  0.00  0.00    +0.000 NA
ATOM      4  C   UNL     1       1.744   7.539  19.889  0.00  0.00    +0.000 A 
ATOM      5  S   UNL     1       2.315   7.542  18.277  0.00  0.00    +0.000 S 
ATOM      6  C   UNL     1       3.091   6.024  18.521  0.00  0.00    +0.000 A 
ENDROOT
BRANCH   4   7
ATOM      7  C   UNL     1       1.021   8.690  20.449  0.00  0.00    +0.000 A 
ATOM      8  C   UNL     1       0.612   9.783  19.665  0.00  0.00    +0.000 A 
ATOM      9  C   UNL     1      -0.105  10.843  20.227  0.00  0.00    +0.000 A 
ATOM     10  C   UNL     1      -0.429  10.834  21.589  0.00  0.00    +0.000 A 
ATOM     11  C   UNL     1      -0.013   9.757  22.366  0.00  0.00    +0.000 A 
ATOM     12  F   UNL     1      -0.305   9.726  23.673  0.00  0.00    +0.000 F 
ATOM     13  C   UNL     1       0.700   8.697  21.813  0.00  0.00    +0.000 A 
BRANCH  10  14
ATOM     14  C   UNL     1      -1.220  11.937  22.223  0.00  0.00    +0.000 C 
ATOM     15  F   UNL     1      -1.735  12.811  21.308  0.00  0.00    +0.000 F 
ATOM     16  F   UNL     1      -2.290  11.483  22.930  0.00  0.00    +0.000 F 
ATOM     17  F   UNL     1      -0.485  12.698  23.078  0.00  0.00    +0.000 F 
ENDBRANCH  10  14
ENDBRANCH   4   7
BRANCH   6  18
ATOM     18  C   UNL     1       3.932   5.389  17.443  0.00  0.00    +0.000 C 
BRANCH  18  19
ATOM     19  S   UNL     1       5.490   4.679  18.115  0.00  0.00    +0.000 S 
BRANCH  19  20
ATOM     20  C   UNL     1       6.636   6.039  18.089  0.00  0.00    +0.000 A 
ATOM     21  C   UNL     1       6.346   7.131  17.261  0.00  0.00    +0.000 A 
ATOM     22  C   UNL     1       7.115   8.299  17.317  0.00  0.00    +0.000 A 
ATOM     23  C   UNL     1       8.182   8.402  18.216  0.00  0.00    +0.000 A 
ATOM     24  C   UNL     1       8.502   7.287  19.002  0.00  0.00    +0.000 A 
ATOM     25  C   UNL     1       7.728   6.121  18.949  0.00  0.00    +0.000 A 
BRANCH  23  26
ATOM     26  C   UNL     1       8.931   9.662  18.298  0.00  0.00    +0.000 C 
ATOM     27  C   UNL     1       9.298  10.236  19.458  0.00  0.00    +0.000 C 
BRANCH  27  28
ATOM     28  C   UNL     1      10.024  11.518  19.447  0.00  0.00    +0.000 C 
ATOM     29  O   UNL     1       9.993  12.329  18.537  0.00  0.00    +0.000 OA
BRANCH  28  30
ATOM     30  O   UNL     1      10.747  11.694  20.572  0.00  0.00    +0.000 OA
ATOM     31  H   UNL     1      10.298  12.163  21.298  0.00  0.00    +0.000 HD
ENDBRANCH  28  30
ENDBRANCH  27  28
ENDBRANCH  23  26
ENDBRANCH  19  20
ENDBRANCH  18  19
ENDBRANCH   6  18
TORSDOF 8
ENDMDL
MODEL 5
REMARK VINA RESULT:      -7.4      6.030      9.564
REMARK  Name = 
REMARK  9 active torsions:
REMARK  status: ('A' for Active; 'I' for Inactive)
REMARK    1  A    between atoms: C_1  and  C_2
REMARK    2  A    between atoms: C_4  and  C_5
REMARK    3  A    between atoms: C_8  and  C_9
REMARK    4  A    between atoms: C_17  and  C_18
REMARK    5  A    between atoms: C_18  and  S_19
REMARK    6  A    between atoms: S_19  and  C_20
REMARK    7  A    between atoms: C_23  and  C_24
REMARK    8  A    between atoms: C_25  and  C_26
REMARK    9  A    between atoms: C_26  and  O_28
REMARK                            x       y       z     vdW  Elec       q    Type
REMARK                         _______ _______ _______ _____ _____    ______ ____
ROOT
ATOM      1  C   UNL     1       5.204   3.881  20.068  0.00  0.00    +0.000 C 
ATOM      2  C   UNL     1       4.159   4.615  19.304  0.00  0.00    +0.000 A 
ATOM      3  N   UNL     1       3.726   5.822  19.832  0.00  0.00    +0.000 NA
ATOM      4  C   UNL     1       2.751   6.330  19.108  0.00  0.00    +0.000 A 
ATOM      5  S   UNL     1       2.280   5.362  17.779  0.00  0.00    +0.000 S 
ATOM      6  C   UNL     1       3.549   4.245  18.111  0.00  0.00    +0.000 A 
ENDROOT
BRANCH   4   7
ATOM      7  C   UNL     1       2.101   7.620  19.385  0.00  0.00    +0.000 A 
ATOM      8  C   UNL     1       1.949   8.619  18.407  0.00  0.00    +0.000 A 
ATOM      9  C   UNL     1       1.295   9.818  18.700  0.00  0.00    +0.000 A 
ATOM     10  C   UNL     1       0.777  10.047  19.981  0.00  0.00    +0.000 A 
ATOM     11  C   UNL     1       0.940   9.063  20.951  0.00  0.00    +0.000 A 
ATOM     12  F   UNL     1       0.459   9.258  22.186  0.00  0.00    +0.000 F 
ATOM     13  C   UNL     1       1.589   7.864  20.667  0.00  0.00    +0.000 A 
BRANCH  10  14
ATOM     14  C   UNL     1       0.045  11.307  20.326  0.00  0.00    +0.000 C 
ATOM     15  F   UNL     1       0.640  12.004  21.339  0.00  0.00    +0.000 F 
ATOM     16  F   UNL     1      -0.030  12.179  19.283  0.00  0.00    +0.000 F 
ATOM     17  F   UNL     1      -1.233  11.087  20.739  0.00  0.00    +0.000 F 
ENDBRANCH  10  14
ENDBRANCH   4   7
BRANCH   6  18
ATOM     18  C   UNL     1       3.809   3.064  17.212  0.00  0.00    +0.000 C 
BRANCH  18  19
ATOM     19  S   UNL     1       4.864   3.512  15.773  0.00  0.00    +0.000 S 
BRANCH  19  20
ATOM     20  C   UNL     1       5.945   4.777  16.403  0.00  0.00    +0.000 A 
ATOM     21  C   UNL     1       5.567   6.114  16.232  0.00  0.00    +0.000 A 
ATOM     22  C   UNL     1       6.286   7.147  16.846  0.00  0.00    +0.000 A 
ATOM     23  C   UNL     1       7.389   6.859  17.657  0.00  0.00    +0.000 A 
ATOM     24  C   UNL     1       7.796   5.524  17.779  0.00  0.00    +0.000 A 
ATOM     25  C   UNL     1       7.073   4.491  17.169  0.00  0.00    +0.000 A 
BRANCH  23  26
ATOM     26  C   UNL     1       8.084   7.958  18.338  0.00  0.00    +0.000 C 
ATOM     27  C   UNL     1       8.218   9.190  17.816  0.00  0.00    +0.000 C 
BRANCH  27  28
ATOM     28  C   UNL     1       8.958  10.227  18.558  0.00  0.00    +0.000 C 
ATOM     29  O   UNL     1       9.164  11.359  18.155  0.00  0.00    +0.000 OA
BRANCH  28  30
ATOM     30  O   UNL     1       9.397   9.773  19.750  0.00  0.00    +0.000 OA
ATOM     31  H   UNL     1       9.570   8.816  19.804  0.00  0.00    +0.000 HD
ENDBRANCH  28  30
ENDBRANCH  27  28
ENDBRANCH  23  26
ENDBRANCH  19  20
ENDBRANCH  18  19
ENDBRANCH   6  18
TORSDOF 8
ENDMDL
MODEL 6
REMARK VINA RESULT:      -7.4      1.441      2.106
REMARK  Name = 
REMARK  9 active torsions:
REMARK  status: ('A' for Active; 'I' for Inactive)
REMARK    1  A    between atoms: C_1  and  C_2
REMARK    2  A    between atoms: C_4  and  C_5
REMARK    3  A    between atoms: C_8  and  C_9
REMARK    4  A    between atoms: C_17  and  C_18
REMARK    5  A    between atoms: C_18  and  S_19
REMARK    6  A    between atoms: S_19  and  C_20
REMARK    7  A    between atoms: C_23  and  C_24
REMARK    8  A    between atoms: C_25  and  C_26
REMARK    9  A    between atoms: C_26  and  O_28
REMARK                            x       y       z     vdW  Elec       q    Type
REMARK                         _______ _______ _______ _____ _____    ______ ____
ROOT
ATOM      1  C   UNL     1       1.360  12.796  20.706  0.00  0.00    +0.000 C 
ATOM      2  C   UNL     1       0.852  11.399  20.780  0.00  0.00    +0.000 A 
ATOM      3  N   UNL     1       1.655  10.410  20.234  0.00  0.00    +0.000 NA
ATOM      4  C   UNL     1       1.062   9.236  20.292  0.00  0.00    +0.000 A 
ATOM      5  S   UNL     1      -0.507   9.272  20.971  0.00  0.00    +0.000 S 
ATOM      6  C   UNL     1      -0.340  10.947  21.334  0.00  0.00    +0.000 A 
ENDROOT
BRANCH   4   7
ATOM      7  C   UNL     1       1.669   7.979  19.828  0.00  0.00    +0.000 A 
ATOM      8  C   UNL     1       2.376   7.879  18.618  0.00  0.00    +0.000 A 
ATOM      9  C   UNL     1       2.968   6.674  18.229  0.00  0.00    +0.000 A 
ATOM     10  C   UNL     1       2.865   5.539  19.042  0.00  0.00    +0.000 A 
ATOM     11  C   UNL     1       2.152   5.637  20.233  0.00  0.00    +0.000 A 
ATOM     12  F   UNL     1       2.033   4.565  21.029  0.00  0.00    +0.000 F 
ATOM     13  C   UNL     1       1.561   6.834  20.630  0.00  0.00    +0.000 A 
BRANCH  10  14
ATOM     14  C   UNL     1       3.508   4.238  18.673  0.00  0.00    +0.000 C 
ATOM     15  F   UNL     1       4.451   3.840  19.577  0.00  0.00    +0.000 F 
ATOM     16  F   UNL     1       2.620   3.210  18.601  0.00  0.00    +0.000 F 
ATOM     17  F   UNL     1       4.150   4.280  17.474  0.00  0.00    +0.000 F 
ENDBRANCH  10  14
ENDBRANCH   4   7
BRANCH   6  18
ATOM     18  C   UNL     1      -1.413  11.700  22.077  0.00  0.00    +0.000 C 
BRANCH  18  19
ATOM     19  S   UNL     1      -2.164  13.026  21.045  0.00  0.00    +0.000 S 
BRANCH  19  20
ATOM     20  C   UNL     1      -2.495  12.231  19.489  0.00  0.00    +0.000 A 
ATOM     21  C   UNL     1      -3.784  11.733  19.262  0.00  0.00    +0.000 A 
ATOM     22  C   UNL     1      -4.154  11.247  18.002  0.00  0.00    +0.000 A 
ATOM     23  C   UNL     1      -3.244  11.265  16.940  0.00  0.00    +0.000 A 
ATOM     24  C   UNL     1      -1.939  11.711  17.187  0.00  0.00    +0.000 A 
ATOM     25  C   UNL     1      -1.572  12.203  18.446  0.00  0.00    +0.000 A 
BRANCH  23  26
ATOM     26  C   UNL     1      -3.680  10.807  15.615  0.00  0.00    +0.000 C 
ATOM     27  C   UNL     1      -2.866  10.198  14.734  0.00  0.00    +0.000 C 
BRANCH  27  28
ATOM     28  C   UNL     1      -3.382   9.798  13.412  0.00  0.00    +0.000 C 
ATOM     29  O   UNL     1      -4.563   9.700  13.126  0.00  0.00    +0.000 OA
BRANCH  28  30
ATOM     30  O   UNL     1      -2.384   9.538  12.543  0.00  0.00    +0.000 OA
ATOM     31  H   UNL     1      -2.428   8.680  12.086  0.00  0.00    +0.000 HD
ENDBRANCH  28  30
ENDBRANCH  27  28
ENDBRANCH  23  26
ENDBRANCH  19  20
ENDBRANCH  18  19
ENDBRANCH   6  18
TORSDOF 8
ENDMDL
MODEL 7
REMARK VINA RESULT:      -7.4      6.399      9.718
REMARK  Name = 
REMARK  9 active torsions:
REMARK  status: ('A' for Active; 'I' for Inactive)
REMARK    1  A    between atoms: C_1  and  C_2
REMARK    2  A    between atoms: C_4  and  C_5
REMARK    3  A    between atoms: C_8  and  C_9
REMARK    4  A    between atoms: C_17  and  C_18
REMARK    5  A    between atoms: C_18  and  S_19
REMARK    6  A    between atoms: S_19  and  C_20
REMARK    7  A    between atoms: C_23  and  C_24
REMARK    8  A    between atoms: C_25  and  C_26
REMARK    9  A    between atoms: C_26  and  O_28
REMARK                            x       y       z     vdW  Elec       q    Type
REMARK                         _______ _______ _______ _____ _____    ______ ____
ROOT
ATOM      1  C   UNL     1       3.086   7.876  17.692  0.00  0.00    +0.000 C 
ATOM      2  C   UNL     1       2.233   7.776  18.907  0.00  0.00    +0.000 A 
ATOM      3  N   UNL     1       1.595   8.934  19.323  0.00  0.00    +0.000 NA
ATOM      4  C   UNL     1       0.938   8.734  20.445  0.00  0.00    +0.000 A 
ATOM      5  S   UNL     1       1.087   7.151  21.076  0.00  0.00    +0.000 S 
ATOM      6  C   UNL     1       1.985   6.657  19.693  0.00  0.00    +0.000 A 
ENDROOT
BRANCH   4   7
ATOM      7  C   UNL     1       0.129   9.757  21.125  0.00  0.00    +0.000 A 
ATOM      8  C   UNL     1      -0.348   9.599  22.438  0.00  0.00    +0.000 A 
ATOM      9  C   UNL     1      -1.084  10.610  23.062  0.00  0.00    +0.000 A 
ATOM     10  C   UNL     1      -1.361  11.804  22.386  0.00  0.00    +0.000 A 
ATOM     11  C   UNL     1      -0.899  11.953  21.082  0.00  0.00    +0.000 A 
ATOM     12  F   UNL     1      -1.155  13.084  20.409  0.00  0.00    +0.000 F 
ATOM     13  C   UNL     1      -0.164  10.952  20.453  0.00  0.00    +0.000 A 
BRANCH  10  14
ATOM     14  C   UNL     1      -2.122  12.921  23.030  0.00  0.00    +0.000 C 
ATOM     15  F   UNL     1      -1.308  13.902  23.521  0.00  0.00    +0.000 F 
ATOM     16  F   UNL     1      -2.967  13.552  22.169  0.00  0.00    +0.000 F 
ATOM     17  F   UNL     1      -2.878  12.515  24.085  0.00  0.00    +0.000 F 
ENDBRANCH  10  14
ENDBRANCH   4   7
BRANCH   6  18
ATOM     18  C   UNL     1       2.428   5.227  19.514  0.00  0.00    +0.000 C 
BRANCH  18  19
ATOM     19  S   UNL     1       4.206   5.000  19.928  0.00  0.00    +0.000 S 
BRANCH  19  20
ATOM     20  C   UNL     1       4.968   4.601  18.371  0.00  0.00    +0.000 A 
ATOM     21  C   UNL     1       4.140   4.201  17.314  0.00  0.00    +0.000 A 
ATOM     22  C   UNL     1       4.655   4.033  16.023  0.00  0.00    +0.000 A 
ATOM     23  C   UNL     1       6.008   4.277  15.762  0.00  0.00    +0.000 A 
ATOM     24  C   UNL     1       6.842   4.621  16.834  0.00  0.00    +0.000 A 
ATOM     25  C   UNL     1       6.325   4.795  18.124  0.00  0.00    +0.000 A 
BRANCH  23  26
ATOM     26  C   UNL     1       6.506   4.153  14.387  0.00  0.00    +0.000 C 
ATOM     27  C   UNL     1       5.864   3.471  13.422  0.00  0.00    +0.000 C 
BRANCH  27  28
ATOM     28  C   UNL     1       6.452   3.374  12.074  0.00  0.00    +0.000 C 
ATOM     29  O   UNL     1       7.268   4.153  11.612  0.00  0.00    +0.000 OA
BRANCH  28  30
ATOM     30  O   UNL     1       5.971   2.314  11.392  0.00  0.00    +0.000 OA
ATOM     31  H   UNL     1       5.568   2.510  10.528  0.00  0.00    +0.000 HD
ENDBRANCH  28  30
ENDBRANCH  27  28
ENDBRANCH  23  26
ENDBRANCH  19  20
ENDBRANCH  18  19
ENDBRANCH   6  18
TORSDOF 8
ENDMDL
MODEL 8
REMARK VINA RESULT:      -7.4      4.748      6.020
REMARK  Name = 
REMARK  9 active torsions:
REMARK  status: ('A' for Active; 'I' for Inactive)
REMARK    1  A    between atoms: C_1  and  C_2
REMARK    2  A    between atoms: C_4  and  C_5
REMARK    3  A    between atoms: C_8  and  C_9
REMARK    4  A    between atoms: C_17  and  C_18
REMARK    5  A    between atoms: C_18  and  S_19
REMARK    6  A    between atoms: S_19  and  C_20
REMARK    7  A    between atoms: C_23  and  C_24
REMARK    8  A    between atoms: C_25  and  C_26
REMARK    9  A    between atoms: C_26  and  O_28
REMARK                            x       y       z     vdW  Elec       q    Type
REMARK                         _______ _______ _______ _____ _____    ______ ____
ROOT
ATOM      1  C   UNL     1       0.852   8.300  21.738  0.00  0.00    +0.000 C 
ATOM      2  C   UNL     1       1.302   8.355  20.320  0.00  0.00    +0.000 A 
ATOM      3  N   UNL     1       2.143   7.342  19.888  0.00  0.00    +0.000 NA
ATOM      4  C   UNL     1       2.530   7.546  18.647  0.00  0.00    +0.000 A 
ATOM      5  S   UNL     1       1.932   8.990  17.951  0.00  0.00    +0.000 S 
ATOM      6  C   UNL     1       0.985   9.304  19.355  0.00  0.00    +0.000 A 
ENDROOT
BRANCH   4   7
ATOM      7  C   UNL     1       3.398   6.632  17.889  0.00  0.00    +0.000 A 
ATOM      8  C   UNL     1       3.440   5.248  18.134  0.00  0.00    +0.000 A 
ATOM      9  C   UNL     1       4.252   4.407  17.368  0.00  0.00    +0.000 A 
ATOM     10  C   UNL     1       5.042   4.932  16.338  0.00  0.00    +0.000 A 
ATOM     11  C   UNL     1       5.009   6.303  16.106  0.00  0.00    +0.000 A 
ATOM     12  F   UNL     1       5.760   6.833  15.131  0.00  0.00    +0.000 F 
ATOM     13  C   UNL     1       4.201   7.148  16.863  0.00  0.00    +0.000 A 
BRANCH  10  14
ATOM     14  C   UNL     1       5.904   4.060  15.478  0.00  0.00    +0.000 C 
ATOM     15  F   UNL     1       5.865   2.746  15.850  0.00  0.00    +0.000 F 
ATOM     16  F   UNL     1       5.532   4.075  14.169  0.00  0.00    +0.000 F 
ATOM     17  F   UNL     1       7.218   4.408  15.511  0.00  0.00    +0.000 F 
ENDBRANCH  10  14
ENDBRANCH   4   7
BRANCH   6  18
ATOM     18  C   UNL     1       0.053  10.487  19.424  0.00  0.00    +0.000 C 
BRANCH  18  19
ATOM     19  S   UNL     1       0.596  11.718  20.679  0.00  0.00    +0.000 S 
BRANCH  19  20
ATOM     20  C   UNL     1      -0.905  12.177  21.517  0.00  0.00    +0.000 A 
ATOM     21  C   UNL     1      -1.894  12.843  20.782  0.00  0.00    +0.000 A 
ATOM     22  C   UNL     1      -3.158  13.083  21.334  0.00  0.00    +0.000 A 
ATOM     23  C   UNL     1      -3.461  12.647  22.629  0.00  0.00    +0.000 A 
ATOM     24  C   UNL     1      -2.450  12.032  23.378  0.00  0.00    +0.000 A 
ATOM     25  C   UNL     1      -1.188  11.786  22.823  0.00  0.00    +0.000 A 
BRANCH  23  26
ATOM     26  C   UNL     1      -4.814  12.857  23.157  0.00  0.00    +0.000 C 
ATOM     27  C   UNL     1      -5.408  14.062  23.222  0.00  0.00    +0.000 C 
BRANCH  27  28
ATOM     28  C   UNL     1      -6.761  14.186  23.796  0.00  0.00    +0.000 C 
ATOM     29  O   UNL     1      -7.443  13.251  24.178  0.00  0.00    +0.000 OA
BRANCH  28  30
ATOM     30  O   UNL     1      -7.169  15.471  23.843  0.00  0.00    +0.000 OA
ATOM     31  H   UNL     1      -7.142  15.894  24.720  0.00  0.00    +0.000 HD
ENDBRANCH  28  30
ENDBRANCH  27  28
ENDBRANCH  23  26
ENDBRANCH  19  20
ENDBRANCH  18  19
ENDBRANCH   6  18
TORSDOF 8
ENDMDL
MODEL 9
REMARK VINA RESULT:      -7.3      1.756      2.603
REMARK  Name = 
REMARK  9 active torsions:
REMARK  status: ('A' for Active; 'I' for Inactive)
REMARK    1  A    between atoms: C_1  and  C_2
REMARK    2  A    between atoms: C_4  and  C_5
REMARK    3  A    between atoms: C_8  and  C_9
REMARK    4  A    between atoms: C_17  and  C_18
REMARK    5  A    between atoms: C_18  and  S_19
REMARK    6  A    between atoms: S_19  and  C_20
REMARK    7  A    between atoms: C_23  and  C_24
REMARK    8  A    between atoms: C_25  and  C_26
REMARK    9  A    between atoms: C_26  and  O_28
REMARK                            x       y       z     vdW  Elec       q    Type
REMARK                         _______ _______ _______ _____ _____    ______ ____
ROOT
ATOM      1  C   UNL     1       0.182   9.198  23.174  0.00  0.00    +0.000 C 
ATOM      2  C   UNL     1       0.475   9.114  21.718  0.00  0.00    +0.000 A 
ATOM      3  N   UNL     1       1.410   8.172  21.318  0.00  0.00    +0.000 NA
ATOM      4  C   UNL     1       1.637   8.251  20.024  0.00  0.00    +0.000 A 
ATOM      5  S   UNL     1       0.764   9.490  19.230  0.00  0.00    +0.000 S 
ATOM      6  C   UNL     1      -0.074   9.868  20.686  0.00  0.00    +0.000 A 
ENDROOT
BRANCH   4   7
ATOM      7  C   UNL     1       2.550   7.364  19.288  0.00  0.00    +0.000 A 
ATOM      8  C   UNL     1       2.917   6.092  19.759  0.00  0.00    +0.000 A 
ATOM      9  C   UNL     1       3.760   5.264  19.013  0.00  0.00    +0.000 A 
ATOM     10  C   UNL     1       4.258   5.691  17.776  0.00  0.00    +0.000 A 
ATOM     11  C   UNL     1       3.904   6.957  17.318  0.00  0.00    +0.000 A 
ATOM     12  F   UNL     1       4.371   7.394  16.140  0.00  0.00    +0.000 F 
ATOM     13  C   UNL     1       3.063   7.787  18.054  0.00  0.00    +0.000 A 
BRANCH  10  14
ATOM     14  C   UNL     1       5.141   4.823  16.934  0.00  0.00    +0.000 C 
ATOM     15  F   UNL     1       4.468   4.218  15.911  0.00  0.00    +0.000 F 
ATOM     16  F   UNL     1       6.153   5.514  16.342  0.00  0.00    +0.000 F 
ATOM     17  F   UNL     1       5.722   3.812  17.636  0.00  0.00    +0.000 F 
ENDBRANCH  10  14
ENDBRANCH   4   7
BRANCH   6  18
ATOM     18  C   UNL     1      -1.160  10.913  20.719  0.00  0.00    +0.000 C 
BRANCH  18  19
ATOM     19  S   UNL     1      -1.043  12.072  19.294  0.00  0.00    +0.000 S 
BRANCH  19  20
ATOM     20  C   UNL     1      -1.992  11.282  18.013  0.00  0.00    +0.000 A 
ATOM     21  C   UNL     1      -3.267  11.787  17.729  0.00  0.00    +0.000 A 
ATOM     22  C   UNL     1      -3.995  11.320  16.628  0.00  0.00    +0.000 A 
ATOM     23  C   UNL     1      -3.452  10.349  15.780  0.00  0.00    +0.000 A 
ATOM     24  C   UNL     1      -2.201   9.808  16.100  0.00  0.00    +0.000 A 
ATOM     25  C   UNL     1      -1.470  10.280  17.199  0.00  0.00    +0.000 A 
BRANCH  23  26
ATOM     26  C   UNL     1      -4.212   9.925  14.598  0.00  0.00    +0.000 C 
ATOM     27  C   UNL     1      -3.730   9.982  13.344  0.00  0.00    +0.000 C 
BRANCH  27  28
ATOM     28  C   UNL     1      -4.574   9.562  12.211  0.00  0.00    +0.000 C 
ATOM     29  O   UNL     1      -4.168   9.345  11.082  0.00  0.00    +0.000 OA
BRANCH  28  30
ATOM     30  O   UNL     1      -5.871   9.451  12.566  0.00  0.00    +0.000 OA
ATOM     31  H   UNL     1      -6.116   9.859  13.416  0.00  0.00    +0.000 HD
ENDBRANCH  28  30
ENDBRANCH  27  28
ENDBRANCH  23  26
ENDBRANCH  19  20
ENDBRANCH  18  19
ENDBRANCH   6  18
TORSDOF 8
ENDMDL
