MODEL 1
REMARK VINA RESULT:      -6.8      0.000      0.000
REMARK  Name = 
REMARK  10 active torsions:
REMARK  status: ('A' for Active; 'I' for Inactive)
REMARK    1  A    between atoms: C_1  and  N_2
REMARK    2  A    between atoms: N_5  and  C_6
REMARK    3  A    between atoms: C_6  and  C_7
REMARK    4  A    between atoms: C_7  and  C_8
REMARK    5  A    between atoms: C_8  and  N_9
REMARK    6  A    between atoms: N_9  and  C_10
REMARK    7  A    between atoms: C_10  and  C_11
REMARK    8  A    between atoms: N_13  and  C_14
REMARK    9  A    between atoms: C_14  and  C_15
REMARK   10  A    between atoms: C_15  and  C_16
REMARK                            x       y       z     vdW  Elec       q    Type
REMARK                         _______ _______ _______ _____ _____    ______ ____
ROOT
ATOM      1  C   UNL     1       2.164   7.721  19.327  0.00  0.00    +0.000 C 
ENDROOT
BRANCH   1   2
ATOM      2  C   UNL     1       2.613   6.416  18.797  0.00  0.00    +0.000 A 
ATOM      3  C   UNL     1       3.533   6.219  17.775  0.00  0.00    +0.000 A 
ATOM      4  N   UNL     1       3.700   4.865  17.623  0.00  0.00    +0.000 N 
ATOM      5  C   UNL     1       2.925   4.175  18.526  0.00  0.00    +0.000 A 
ATOM      6  C   UNL     1       2.781   2.806  18.774  0.00  0.00    +0.000 A 
ATOM      7  C   UNL     1       1.902   2.404  19.785  0.00  0.00    +0.000 A 
ATOM      8  C   UNL     1       1.174   3.336  20.519  0.00  0.00    +0.000 A 
ATOM      9  C   UNL     1       1.316   4.703  20.263  0.00  0.00    +0.000 A 
ATOM     10  C   UNL     1       2.214   5.132  19.261  0.00  0.00    +0.000 A 
BRANCH   4  11
ATOM     11  C   UNL     1       4.602   4.282  16.652  0.00  0.00    +0.000 C 
BRANCH  11  12
ATOM     12  C   UNL     1       6.054   4.435  17.069  0.00  0.00    +0.000 C 
BRANCH  12  13
ATOM     13  C   UNL     1       6.848   4.883  15.925  0.00  0.00    +0.000 C 
ATOM     14  N   UNL     1       7.479   5.246  15.013  0.00  0.00    +0.000 NA
ENDBRANCH  12  13
ENDBRANCH  11  12
ENDBRANCH   4  11
ENDBRANCH   1   2
BRANCH   1  15
ATOM     15  N   UNL     1       1.716   8.547  18.206  0.00  0.00    +0.000 NA
ATOM     16  H   UNL     1       2.347   8.409  17.418  0.00  0.00    +0.000 HD
BRANCH  15  17
ATOM     17  C   UNL     1       1.675   9.963  18.570  0.00  0.00    +0.000 C 
BRANCH  17  18
ATOM     18  C   UNL     1       0.718  10.215  19.736  0.00  0.00    +0.000 C 
BRANCH  18  19
ATOM     19  C   UNL     1      -0.744  10.158  19.327  0.00  0.00    +0.000 C 
BRANCH  19  24
ATOM     20  C   UNL     1      -5.285  10.793  18.384  0.00  0.00    +0.000 C 
ATOM     21  N   UNL     1      -3.976  10.995  17.756  0.00  0.00    +0.000 NA
ATOM     22  C   UNL     1      -3.293   9.700  17.524  0.00  0.00    +0.000 C 
ATOM     23  C   UNL     1      -1.806   9.858  17.106  0.00  0.00    +0.000 C 
ATOM     24  N   UNL     1      -1.000  10.728  17.994  0.00  0.00    +0.000 NA
ATOM     25  C   UNL     1      -1.710  12.014  18.123  0.00  0.00    +0.000 C 
ATOM     26  C   UNL     1      -3.154  11.855  18.639  0.00  0.00    +0.000 C 
ENDBRANCH  19  24
ENDBRANCH  18  19
ENDBRANCH  17  18
ENDBRANCH  15  17
ENDBRANCH   1  15
TORSDOF 9
ENDMDL
MODEL 2
REMARK VINA RESULT:      -6.8      5.688      9.094
REMARK  Name = 
REMARK  10 active torsions:
REMARK  status: ('A' for Active; 'I' for Inactive)
REMARK    1  A    between atoms: C_1  and  N_2
REMARK    2  A    between atoms: N_5  and  C_6
REMARK    3  A    between atoms: C_6  and  C_7
REMARK    4  A    between atoms: C_7  and  C_8
REMARK    5  A    between atoms: C_8  and  N_9
REMARK    6  A    between atoms: N_9  and  C_10
REMARK    7  A    between atoms: C_10  and  C_11
REMARK    8  A    between atoms: N_13  and  C_14
REMARK    9  A    between atoms: C_14  and  C_15
REMARK   10  A    between atoms: C_15  and  C_16
REMARK                            x       y       z     vdW  Elec       q    Type
REMARK                         _______ _______ _______ _____ _____    ______ ____
ROOT
ATOM      1  C   UNL     1       8.029   7.116  18.409  0.00  0.00    +0.000 C 
ENDROOT
BRANCH   1   2
ATOM      2  C   UNL     1       7.023   6.050  18.208  0.00  0.00    +0.000 A 
ATOM      3  C   UNL     1       6.145   5.560  19.167  0.00  0.00    +0.000 A 
ATOM      4  N   UNL     1       5.355   4.616  18.561  0.00  0.00    +0.000 N 
ATOM      5  C   UNL     1       5.684   4.486  17.231  0.00  0.00    +0.000 A 
ATOM      6  C   UNL     1       5.151   3.689  16.214  0.00  0.00    +0.000 A 
ATOM      7  C   UNL     1       5.707   3.786  14.934  0.00  0.00    +0.000 A 
ATOM      8  C   UNL     1       6.774   4.641  14.677  0.00  0.00    +0.000 A 
ATOM      9  C   UNL     1       7.308   5.431  15.698  0.00  0.00    +0.000 A 
ATOM     10  C   UNL     1       6.749   5.365  16.993  0.00  0.00    +0.000 A 
BRANCH   4  11
ATOM     11  C   UNL     1       4.307   3.897  19.254  0.00  0.00    +0.000 C 
BRANCH  11  12
ATOM     12  C   UNL     1       3.031   4.714  19.350  0.00  0.00    +0.000 C 
BRANCH  12  13
ATOM     13  C   UNL     1       2.091   4.279  18.317  0.00  0.00    +0.000 C 
ATOM     14  N   UNL     1       1.336   3.934  17.497  0.00  0.00    +0.000 NA
ENDBRANCH  12  13
ENDBRANCH  11  12
ENDBRANCH   4  11
ENDBRANCH   1   2
BRANCH   1  15
ATOM     15  N   UNL     1       7.861   8.116  17.355  0.00  0.00    +0.000 NA
ATOM     16  H   UNL     1       8.542   7.942  16.619  0.00  0.00    +0.000 HD
BRANCH  15  17
ATOM     17  C   UNL     1       8.027   9.473  17.878  0.00  0.00    +0.000 C 
BRANCH  17  18
ATOM     18  C   UNL     1       9.056   9.516  19.008  0.00  0.00    +0.000 C 
BRANCH  18  19
ATOM     19  C   UNL     1       9.583  10.915  19.278  0.00  0.00    +0.000 C 
BRANCH  19  24
ATOM     20  C   UNL     1      11.393  15.140  20.166  0.00  0.00    +0.000 C 
ATOM     21  N   UNL     1      11.399  14.123  19.111  0.00  0.00    +0.000 NA
ATOM     22  C   UNL     1      10.045  13.946  18.534  0.00  0.00    +0.000 C 
ATOM     23  C   UNL     1       9.931  12.710  17.603  0.00  0.00    +0.000 C 
ATOM     24  N   UNL     1      10.424  11.442  18.191  0.00  0.00    +0.000 NA
ATOM     25  C   UNL     1      11.793  11.680  18.681  0.00  0.00    +0.000 C 
ATOM     26  C   UNL     1      11.879  12.845  19.687  0.00  0.00    +0.000 C 
ENDBRANCH  19  24
ENDBRANCH  18  19
ENDBRANCH  17  18
ENDBRANCH  15  17
ENDBRANCH   1  15
TORSDOF 9
ENDMDL
MODEL 3
REMARK VINA RESULT:      -6.7      2.543      3.286
REMARK  Name = 
REMARK  10 active torsions:
REMARK  status: ('A' for Active; 'I' for Inactive)
REMARK    1  A    between atoms: C_1  and  N_2
REMARK    2  A    between atoms: N_5  and  C_6
REMARK    3  A    between atoms: C_6  and  C_7
REMARK    4  A    between atoms: C_7  and  C_8
REMARK    5  A    between atoms: C_8  and  N_9
REMARK    6  A    between atoms: N_9  and  C_10
REMARK    7  A    between atoms: C_10  and  C_11
REMARK    8  A    between atoms: N_13  and  C_14
REMARK    9  A    between atoms: C_14  and  C_15
REMARK   10  A    between atoms: C_15  and  C_16
REMARK                            x       y       z     vdW  Elec       q    Type
REMARK                         _______ _______ _______ _____ _____    ______ ____
ROOT
ATOM      1  C   UNL     1       2.400   7.819  18.476  0.00  0.00    +0.000 C 
ENDROOT
BRANCH   1   2
ATOM      2  C   UNL     1       3.235   6.696  17.999  0.00  0.00    +0.000 A 
ATOM      3  C   UNL     1       4.539   6.786  17.531  0.00  0.00    +0.000 A 
ATOM      4  N   UNL     1       4.962   5.515  17.233  0.00  0.00    +0.000 N 
ATOM      5  C   UNL     1       3.973   4.597  17.506  0.00  0.00    +0.000 A 
ATOM      6  C   UNL     1       3.941   3.204  17.397  0.00  0.00    +0.000 A 
ATOM      7  C   UNL     1       2.768   2.537  17.765  0.00  0.00    +0.000 A 
ATOM      8  C   UNL     1       1.653   3.237  18.214  0.00  0.00    +0.000 A 
ATOM      9  C   UNL     1       1.687   4.630  18.314  0.00  0.00    +0.000 A 
ATOM     10  C   UNL     1       2.867   5.323  17.968  0.00  0.00    +0.000 A 
BRANCH   4  11
ATOM     11  C   UNL     1       6.286   5.217  16.730  0.00  0.00    +0.000 C 
BRANCH  11  12
ATOM     12  C   UNL     1       7.346   6.082  17.387  0.00  0.00    +0.000 C 
BRANCH  12  13
ATOM     13  C   UNL     1       7.459   5.730  18.802  0.00  0.00    +0.000 C 
ATOM     14  N   UNL     1       7.554   5.453  19.932  0.00  0.00    +0.000 NA
ENDBRANCH  12  13
ENDBRANCH  11  12
ENDBRANCH   4  11
ENDBRANCH   1   2
BRANCH   1  15
ATOM     15  N   UNL     1       2.283   8.801  17.398  0.00  0.00    +0.000 NA
ATOM     16  H   UNL     1       3.185   8.896  16.935  0.00  0.00    +0.000 HD
BRANCH  15  17
ATOM     17  C   UNL     1       1.843  10.100  17.905  0.00  0.00    +0.000 C 
BRANCH  17  18
ATOM     18  C   UNL     1       0.593   9.968  18.776  0.00  0.00    +0.000 C 
BRANCH  18  19
ATOM     19  C   UNL     1       0.218  11.262  19.478  0.00  0.00    +0.000 C 
BRANCH  19  24
ATOM     20  C   UNL     1      -2.359  11.789  23.351  0.00  0.00    +0.000 C 
ATOM     21  N   UNL     1      -0.953  11.790  22.937  0.00  0.00    +0.000 NA
ATOM     22  C   UNL     1      -0.670  12.915  22.014  0.00  0.00    +0.000 C 
ATOM     23  C   UNL     1       0.724  12.821  21.340  0.00  0.00    +0.000 C 
ATOM     24  N   UNL     1       1.013  11.521  20.690  0.00  0.00    +0.000 NA
ATOM     25  C   UNL     1       0.773  10.461  21.686  0.00  0.00    +0.000 C 
ATOM     26  C   UNL     1      -0.651  10.499  22.275  0.00  0.00    +0.000 C 
ENDBRANCH  19  24
ENDBRANCH  18  19
ENDBRANCH  17  18
ENDBRANCH  15  17
ENDBRANCH   1  15
TORSDOF 9
ENDMDL
MODEL 4
REMARK VINA RESULT:      -6.7      2.500      4.641
REMARK  Name = 
REMARK  10 active torsions:
REMARK  status: ('A' for Active; 'I' for Inactive)
REMARK    1  A    between atoms: C_1  and  N_2
REMARK    2  A    between atoms: N_5  and  C_6
REMARK    3  A    between atoms: C_6  and  C_7
REMARK    4  A    between atoms: C_7  and  C_8
REMARK    5  A    between atoms: C_8  and  N_9
REMARK    6  A    between atoms: N_9  and  C_10
REMARK    7  A    between atoms: C_10  and  C_11
REMARK    8  A    between atoms: N_13  and  C_14
REMARK    9  A    between atoms: C_14  and  C_15
REMARK   10  A    between atoms: C_15  and  C_16
REMARK                            x       y       z     vdW  Elec       q    Type
REMARK                         _______ _______ _______ _____ _____    ______ ____
ROOT
ATOM      1  C   UNL     1       2.776   8.494  18.119  0.00  0.00    +0.000 C 
ENDROOT
BRANCH   1   2
ATOM      2  C   UNL     1       2.831   7.016  18.085  0.00  0.00    +0.000 A 
ATOM      3  C   UNL     1       1.956   6.148  18.725  0.00  0.00    +0.000 A 
ATOM      4  N   UNL     1       2.331   4.868  18.401  0.00  0.00    +0.000 N 
ATOM      5  C   UNL     1       3.418   4.878  17.558  0.00  0.00    +0.000 A 
ATOM      6  C   UNL     1       4.129   3.843  16.943  0.00  0.00    +0.000 A 
ATOM      7  C   UNL     1       5.207   4.177  16.117  0.00  0.00    +0.000 A 
ATOM      8  C   UNL     1       5.578   5.504  15.920  0.00  0.00    +0.000 A 
ATOM      9  C   UNL     1       4.869   6.535  16.542  0.00  0.00    +0.000 A 
ATOM     10  C   UNL     1       3.764   6.222  17.363  0.00  0.00    +0.000 A 
BRANCH   4  11
ATOM     11  C   UNL     1       1.633   3.693  18.878  0.00  0.00    +0.000 C 
BRANCH  11  12
ATOM     12  C   UNL     1       0.986   3.932  20.230  0.00  0.00    +0.000 C 
BRANCH  12  13
ATOM     13  C   UNL     1       1.787   3.298  21.277  0.00  0.00    +0.000 C 
ATOM     14  N   UNL     1       2.423   2.788  22.112  0.00  0.00    +0.000 NA
ENDBRANCH  12  13
ENDBRANCH  11  12
ENDBRANCH   4  11
ENDBRANCH   1   2
BRANCH   1  15
ATOM     15  N   UNL     1       1.560   8.895  18.828  0.00  0.00    +0.000 NA
ATOM     16  H   UNL     1       1.047   8.060  19.106  0.00  0.00    +0.000 HD
BRANCH  15  17
ATOM     17  C   UNL     1       0.714   9.746  17.993  0.00  0.00    +0.000 C 
BRANCH  17  18
ATOM     18  C   UNL     1      -0.596  10.101  18.699  0.00  0.00    +0.000 C 
BRANCH  18  19
ATOM     19  C   UNL     1      -0.498  11.369  19.531  0.00  0.00    +0.000 C 
BRANCH  19  24
ATOM     20  C   UNL     1      -1.370  13.751  23.465  0.00  0.00    +0.000 C 
ATOM     21  N   UNL     1      -0.303  12.949  22.859  0.00  0.00    +0.000 NA
ATOM     22  C   UNL     1       0.226  13.602  21.638  0.00  0.00    +0.000 C 
ATOM     23  C   UNL     1       1.168  12.687  20.811  0.00  0.00    +0.000 C 
ATOM     24  N   UNL     1       0.614  11.349  20.496  0.00  0.00    +0.000 NA
ATOM     25  C   UNL     1       0.172  10.739  21.763  0.00  0.00    +0.000 C 
ATOM     26  C   UNL     1      -0.845  11.610  22.528  0.00  0.00    +0.000 C 
ENDBRANCH  19  24
ENDBRANCH  18  19
ENDBRANCH  17  18
ENDBRANCH  15  17
ENDBRANCH   1  15
TORSDOF 9
ENDMDL
MODEL 5
REMARK VINA RESULT:      -6.7      1.822      2.289
REMARK  Name = 
REMARK  10 active torsions:
REMARK  status: ('A' for Active; 'I' for Inactive)
REMARK    1  A    between atoms: C_1  and  N_2
REMARK    2  A    between atoms: N_5  and  C_6
REMARK    3  A    between atoms: C_6  and  C_7
REMARK    4  A    between atoms: C_7  and  C_8
REMARK    5  A    between atoms: C_8  and  N_9
REMARK    6  A    between atoms: N_9  and  C_10
REMARK    7  A    between atoms: C_10  and  C_11
REMARK    8  A    between atoms: N_13  and  C_14
REMARK    9  A    between atoms: C_14  and  C_15
REMARK   10  A    between atoms: C_15  and  C_16
REMARK                            x       y       z     vdW  Elec       q    Type
REMARK                         _______ _______ _______ _____ _____    ______ ____
ROOT
ATOM      1  C   UNL     1       2.098   7.235  18.247  0.00  0.00    +0.000 C 
ENDROOT
BRANCH   1   2
ATOM      2  C   UNL     1       2.934   6.057  17.930  0.00  0.00    +0.000 A 
ATOM      3  C   UNL     1       4.246   6.082  17.474  0.00  0.00    +0.000 A 
ATOM      4  N   UNL     1       4.667   4.782  17.348  0.00  0.00    +0.000 N 
ATOM      5  C   UNL     1       3.669   3.910  17.721  0.00  0.00    +0.000 A 
ATOM      6  C   UNL     1       3.632   2.514  17.791  0.00  0.00    +0.000 A 
ATOM      7  C   UNL     1       2.450   1.903  18.223  0.00  0.00    +0.000 A 
ATOM      8  C   UNL     1       1.332   2.659  18.561  0.00  0.00    +0.000 A 
ATOM      9  C   UNL     1       1.371   4.053  18.483  0.00  0.00    +0.000 A 
ATOM     10  C   UNL     1       2.560   4.692  18.069  0.00  0.00    +0.000 A 
BRANCH   4  11
ATOM     11  C   UNL     1       5.997   4.418  16.908  0.00  0.00    +0.000 C 
BRANCH  11  12
ATOM     12  C   UNL     1       6.010   3.984  15.454  0.00  0.00    +0.000 C 
BRANCH  12  13
ATOM     13  C   UNL     1       6.981   4.787  14.711  0.00  0.00    +0.000 C 
ATOM     14  N   UNL     1       7.759   5.423  14.118  0.00  0.00    +0.000 NA
ENDBRANCH  12  13
ENDBRANCH  11  12
ENDBRANCH   4  11
ENDBRANCH   1   2
BRANCH   1  15
ATOM     15  N   UNL     1       2.467   7.722  19.576  0.00  0.00    +0.000 NA
ATOM     16  H   UNL     1       3.392   7.369  19.814  0.00  0.00    +0.000 HD
BRANCH  15  17
ATOM     17  C   UNL     1       1.497   7.300  20.586  0.00  0.00    +0.000 C 
BRANCH  17  18
ATOM     18  C   UNL     1       1.089   8.464  21.491  0.00  0.00    +0.000 C 
BRANCH  18  19
ATOM     19  C   UNL     1       0.002   9.335  20.885  0.00  0.00    +0.000 C 
BRANCH  19  24
ATOM     20  C   UNL     1      -2.169  13.454  20.395  0.00  0.00    +0.000 C 
ATOM     21  N   UNL     1      -1.130  12.654  19.739  0.00  0.00    +0.000 NA
ATOM     22  C   UNL     1      -1.691  11.394  19.198  0.00  0.00    +0.000 C 
ATOM     23  C   UNL     1      -0.604  10.392  18.725  0.00  0.00    +0.000 C 
ATOM     24  N   UNL     1       0.457  10.112  19.721  0.00  0.00    +0.000 NA
ATOM     25  C   UNL     1       1.008  11.406  20.161  0.00  0.00    +0.000 C 
ATOM     26  C   UNL     1      -0.066  12.357  20.726  0.00  0.00    +0.000 C 
ENDBRANCH  19  24
ENDBRANCH  18  19
ENDBRANCH  17  18
ENDBRANCH  15  17
ENDBRANCH   1  15
TORSDOF 9
ENDMDL
MODEL 6
REMARK VINA RESULT:      -6.7      1.765      2.316
REMARK  Name = 
REMARK  10 active torsions:
REMARK  status: ('A' for Active; 'I' for Inactive)
REMARK    1  A    between atoms: C_1  and  N_2
REMARK    2  A    between atoms: N_5  and  C_6
REMARK    3  A    between atoms: C_6  and  C_7
REMARK    4  A    between atoms: C_7  and  C_8
REMARK    5  A    between atoms: C_8  and  N_9
REMARK    6  A    between atoms: N_9  and  C_10
REMARK    7  A    between atoms: C_10  and  C_11
REMARK    8  A    between atoms: N_13  and  C_14
REMARK    9  A    between atoms: C_14  and  C_15
REMARK   10  A    between atoms: C_15  and  C_16
REMARK                            x       y       z     vdW  Elec       q    Type
REMARK                         _______ _______ _______ _____ _____    ______ ____
ROOT
ATOM      1  C   UNL     1       2.419   7.417  18.970  0.00  0.00    +0.000 C 
ENDROOT
BRANCH   1   2
ATOM      2  C   UNL     1       2.833   6.121  18.390  0.00  0.00    +0.000 A 
ATOM      3  C   UNL     1       3.848   5.926  17.463  0.00  0.00    +0.000 A 
ATOM      4  N   UNL     1       3.935   4.577  17.222  0.00  0.00    +0.000 N 
ATOM      5  C   UNL     1       3.014   3.888  17.977  0.00  0.00    +0.000 A 
ATOM      6  C   UNL     1       2.745   2.521  18.097  0.00  0.00    +0.000 A 
ATOM      7  C   UNL     1       1.728   2.119  18.969  0.00  0.00    +0.000 A 
ATOM      8  C   UNL     1       0.989   3.052  19.690  0.00  0.00    +0.000 A 
ATOM      9  C   UNL     1       1.256   4.417  19.562  0.00  0.00    +0.000 A 
ATOM     10  C   UNL     1       2.292   4.844  18.703  0.00  0.00    +0.000 A 
BRANCH   4  11
ATOM     11  C   UNL     1       4.900   3.995  16.314  0.00  0.00    +0.000 C 
BRANCH  11  12
ATOM     12  C   UNL     1       6.321   4.391  16.671  0.00  0.00    +0.000 C 
BRANCH  12  13
ATOM     13  C   UNL     1       6.992   4.930  15.487  0.00  0.00    +0.000 C 
ATOM     14  N   UNL     1       7.532   5.356  14.545  0.00  0.00    +0.000 NA
ENDBRANCH  12  13
ENDBRANCH  11  12
ENDBRANCH   4  11
ENDBRANCH   1   2
BRANCH   1  15
ATOM     15  N   UNL     1       2.473   8.434  17.919  0.00  0.00    +0.000 NA
ATOM     16  H   UNL     1       3.360   8.931  17.982  0.00  0.00    +0.000 HD
BRANCH  15  17
ATOM     17  C   UNL     1       1.362   9.378  18.035  0.00  0.00    +0.000 C 
BRANCH  17  18
ATOM     18  C   UNL     1       0.902   9.528  19.486  0.00  0.00    +0.000 C 
BRANCH  18  19
ATOM     19  C   UNL     1      -0.389  10.318  19.621  0.00  0.00    +0.000 C 
BRANCH  19  24
ATOM     20  C   UNL     1      -2.786  12.295  23.122  0.00  0.00    +0.000 C 
ATOM     21  N   UNL     1      -1.842  12.669  22.065  0.00  0.00    +0.000 NA
ATOM     22  C   UNL     1      -2.434  12.453  20.723  0.00  0.00    +0.000 C 
ATOM     23  C   UNL     1      -1.403  12.581  19.570  0.00  0.00    +0.000 C 
ATOM     24  N   UNL     1      -0.175  11.769  19.742  0.00  0.00    +0.000 NA
ATOM     25  C   UNL     1       0.388  12.088  21.067  0.00  0.00    +0.000 C 
ATOM     26  C   UNL     1      -0.612  11.857  22.217  0.00  0.00    +0.000 C 
ENDBRANCH  19  24
ENDBRANCH  18  19
ENDBRANCH  17  18
ENDBRANCH  15  17
ENDBRANCH   1  15
TORSDOF 9
ENDMDL
MODEL 7
REMARK VINA RESULT:      -6.7      1.817      2.598
REMARK  Name = 
REMARK  10 active torsions:
REMARK  status: ('A' for Active; 'I' for Inactive)
REMARK    1  A    between atoms: C_1  and  N_2
REMARK    2  A    between atoms: N_5  and  C_6
REMARK    3  A    between atoms: C_6  and  C_7
REMARK    4  A    between atoms: C_7  and  C_8
REMARK    5  A    between atoms: C_8  and  N_9
REMARK    6  A    between atoms: N_9  and  C_10
REMARK    7  A    between atoms: C_10  and  C_11
REMARK    8  A    between atoms: N_13  and  C_14
REMARK    9  A    between atoms: C_14  and  C_15
REMARK   10  A    between atoms: C_15  and  C_16
REMARK                            x       y       z     vdW  Elec       q    Type
REMARK                         _______ _______ _______ _____ _____    ______ ____
ROOT
ATOM      1  C   UNL     1       2.487   7.249  18.729  0.00  0.00    +0.000 C 
ENDROOT
BRANCH   1   2
ATOM      2  C   UNL     1       3.049   5.993  18.187  0.00  0.00    +0.000 A 
ATOM      3  C   UNL     1       4.207   5.874  17.430  0.00  0.00    +0.000 A 
ATOM      4  N   UNL     1       4.396   4.539  17.169  0.00  0.00    +0.000 N 
ATOM      5  C   UNL     1       3.400   3.785  17.747  0.00  0.00    +0.000 A 
ATOM      6  C   UNL     1       3.181   2.405  17.785  0.00  0.00    +0.000 A 
ATOM      7  C   UNL     1       2.059   1.930  18.471  0.00  0.00    +0.000 A 
ATOM      8  C   UNL     1       1.171   2.804  19.090  0.00  0.00    +0.000 A 
ATOM      9  C   UNL     1       1.389   4.183  19.044  0.00  0.00    +0.000 A 
ATOM     10  C   UNL     1       2.527   4.684  18.374  0.00  0.00    +0.000 A 
BRANCH   4  11
ATOM     11  C   UNL     1       5.520   4.030  16.412  0.00  0.00    +0.000 C 
BRANCH  11  12
ATOM     12  C   UNL     1       5.439   4.427  14.949  0.00  0.00    +0.000 C 
BRANCH  12  13
ATOM     13  C   UNL     1       6.730   4.961  14.513  0.00  0.00    +0.000 C 
ATOM     14  N   UNL     1       7.761   5.383  14.169  0.00  0.00    +0.000 NA
ENDBRANCH  12  13
ENDBRANCH  11  12
ENDBRANCH   4  11
ENDBRANCH   1   2
BRANCH   1  15
ATOM     15  N   UNL     1       2.736   8.321  17.765  0.00  0.00    +0.000 NA
ATOM     16  H   UNL     1       3.662   8.710  17.932  0.00  0.00    +0.000 HD
BRANCH  15  17
ATOM     17  C   UNL     1       1.726   9.375  17.868  0.00  0.00    +0.000 C 
BRANCH  17  18
ATOM     18  C   UNL     1       1.055   9.376  19.242  0.00  0.00    +0.000 C 
BRANCH  18  19
ATOM     19  C   UNL     1       0.893  10.770  19.824  0.00  0.00    +0.000 C 
BRANCH  19  24
ATOM     20  C   UNL     1      -0.049  15.262  18.903  0.00  0.00    +0.000 C 
ATOM     21  N   UNL     1      -0.732  14.051  19.365  0.00  0.00    +0.000 NA
ATOM     22  C   UNL     1      -0.199  13.605  20.674  0.00  0.00    +0.000 C 
ATOM     23  C   UNL     1      -0.694  12.195  21.091  0.00  0.00    +0.000 C 
ATOM     24  N   UNL     1      -0.511  11.144  20.062  0.00  0.00    +0.000 NA
ATOM     25  C   UNL     1      -1.123  11.632  18.813  0.00  0.00    +0.000 C 
ATOM     26  C   UNL     1      -0.549  12.986  18.351  0.00  0.00    +0.000 C 
ENDBRANCH  19  24
ENDBRANCH  18  19
ENDBRANCH  17  18
ENDBRANCH  15  17
ENDBRANCH   1  15
TORSDOF 9
ENDMDL
MODEL 8
REMARK VINA RESULT:      -6.6      1.978      2.625
REMARK  Name = 
REMARK  10 active torsions:
REMARK  status: ('A' for Active; 'I' for Inactive)
REMARK    1  A    between atoms: C_1  and  N_2
REMARK    2  A    between atoms: N_5  and  C_6
REMARK    3  A    between atoms: C_6  and  C_7
REMARK    4  A    between atoms: C_7  and  C_8
REMARK    5  A    between atoms: C_8  and  N_9
REMARK    6  A    between atoms: N_9  and  C_10
REMARK    7  A    between atoms: C_10  and  C_11
REMARK    8  A    between atoms: N_13  and  C_14
REMARK    9  A    between atoms: C_14  and  C_15
REMARK   10  A    between atoms: C_15  and  C_16
REMARK                            x       y       z     vdW  Elec       q    Type
REMARK                         _______ _______ _______ _____ _____    ______ ____
ROOT
ATOM      1  C   UNL     1       2.468   7.152  18.883  0.00  0.00    +0.000 C 
ENDROOT
BRANCH   1   2
ATOM      2  C   UNL     1       3.135   5.961  18.314  0.00  0.00    +0.000 A 
ATOM      3  C   UNL     1       4.386   5.932  17.710  0.00  0.00    +0.000 A 
ATOM      4  N   UNL     1       4.649   4.631  17.363  0.00  0.00    +0.000 N 
ATOM      5  C   UNL     1       3.609   3.808  17.734  0.00  0.00    +0.000 A 
ATOM      6  C   UNL     1       3.430   2.427  17.623  0.00  0.00    +0.000 A 
ATOM      7  C   UNL     1       2.243   1.870  18.109  0.00  0.00    +0.000 A 
ATOM      8  C   UNL     1       1.254   2.667  18.677  0.00  0.00    +0.000 A 
ATOM      9  C   UNL     1       1.434   4.049  18.780  0.00  0.00    +0.000 A 
ATOM     10  C   UNL     1       2.634   4.630  18.315  0.00  0.00    +0.000 A 
BRANCH   4  11
ATOM     11  C   UNL     1       5.877   4.214  16.721  0.00  0.00    +0.000 C 
BRANCH  11  12
ATOM     12  C   UNL     1       5.741   4.183  15.210  0.00  0.00    +0.000 C 
BRANCH  12  13
ATOM     13  C   UNL     1       6.855   4.912  14.602  0.00  0.00    +0.000 C 
ATOM     14  N   UNL     1       7.739   5.497  14.115  0.00  0.00    +0.000 NA
ENDBRANCH  12  13
ENDBRANCH  11  12
ENDBRANCH   4  11
ENDBRANCH   1   2
BRANCH   1  15
ATOM     15  N   UNL     1       2.523   7.061  20.342  0.00  0.00    +0.000 NA
ATOM     16  H   UNL     1       2.706   6.095  20.608  0.00  0.00    +0.000 HD
BRANCH  15  17
ATOM     17  C   UNL     1       1.275   7.519  20.951  0.00  0.00    +0.000 C 
BRANCH  17  18
ATOM     18  C   UNL     1       1.413   8.934  21.516  0.00  0.00    +0.000 C 
BRANCH  18  19
ATOM     19  C   UNL     1       0.092   9.683  21.570  0.00  0.00    +0.000 C 
BRANCH  19  24
ATOM     20  C   UNL     1      -1.347  12.294  17.960  0.00  0.00    +0.000 C 
ATOM     21  N   UNL     1      -0.771  12.459  19.298  0.00  0.00    +0.000 NA
ATOM     22  C   UNL     1       0.593  11.883  19.365  0.00  0.00    +0.000 C 
ATOM     23  C   UNL     1       1.151  11.793  20.810  0.00  0.00    +0.000 C 
ATOM     24  N   UNL     1       0.251  11.131  21.783  0.00  0.00    +0.000 NA
ATOM     25  C   UNL     1      -1.060  11.800  21.704  0.00  0.00    +0.000 C 
ATOM     26  C   UNL     1      -1.655  11.792  20.282  0.00  0.00    +0.000 C 
ENDBRANCH  19  24
ENDBRANCH  18  19
ENDBRANCH  17  18
ENDBRANCH  15  17
ENDBRANCH   1  15
TORSDOF 9
ENDMDL
MODEL 9
REMARK VINA RESULT:      -6.6      1.249      1.517
REMARK  Name = 
REMARK  10 active torsions:
REMARK  status: ('A' for Active; 'I' for Inactive)
REMARK    1  A    between atoms: C_1  and  N_2
REMARK    2  A    between atoms: N_5  and  C_6
REMARK    3  A    between atoms: C_6  and  C_7
REMARK    4  A    between atoms: C_7  and  C_8
REMARK    5  A    between atoms: C_8  and  N_9
REMARK    6  A    between atoms: N_9  and  C_10
REMARK    7  A    between atoms: C_10  and  C_11
REMARK    8  A    between atoms: N_13  and  C_14
REMARK    9  A    between atoms: C_14  and  C_15
REMARK   10  A    between atoms: C_15  and  C_16
REMARK                            x       y       z     vdW  Elec       q    Type
REMARK                         _______ _______ _______ _____ _____    ______ ____
ROOT
ATOM      1  C   UNL     1       2.225   7.413  19.167  0.00  0.00    +0.000 C 
ENDROOT
BRANCH   1   2
ATOM      2  C   UNL     1       2.681   6.093  18.679  0.00  0.00    +0.000 A 
ATOM      3  C   UNL     1       3.702   5.866  17.765  0.00  0.00    +0.000 A 
ATOM      4  N   UNL     1       3.834   4.507  17.620  0.00  0.00    +0.000 N 
ATOM      5  C   UNL     1       2.937   3.843  18.425  0.00  0.00    +0.000 A 
ATOM      6  C   UNL     1       2.714   2.480  18.643  0.00  0.00    +0.000 A 
ATOM      7  C   UNL     1       1.711   2.108  19.544  0.00  0.00    +0.000 A 
ATOM      8  C   UNL     1       0.942   3.064  20.200  0.00  0.00    +0.000 A 
ATOM      9  C   UNL     1       1.163   4.425  19.974  0.00  0.00    +0.000 A 
ATOM     10  C   UNL     1       2.184   4.824  19.083  0.00  0.00    +0.000 A 
BRANCH   4  11
ATOM     11  C   UNL     1       4.818   3.894  16.753  0.00  0.00    +0.000 C 
BRANCH  11  12
ATOM     12  C   UNL     1       5.154   4.780  15.567  0.00  0.00    +0.000 C 
BRANCH  12  13
ATOM     13  C   UNL     1       6.488   5.354  15.746  0.00  0.00    +0.000 C 
ATOM     14  N   UNL     1       7.552   5.808  15.893  0.00  0.00    +0.000 NA
ENDBRANCH  12  13
ENDBRANCH  11  12
ENDBRANCH   4  11
ENDBRANCH   1   2
BRANCH   1  15
ATOM     15  N   UNL     1       2.255   7.402  20.629  0.00  0.00    +0.000 NA
ATOM     16  H   UNL     1       2.442   6.453  20.951  0.00  0.00    +0.000 HD
BRANCH  15  17
ATOM     17  C   UNL     1       0.992   7.880  21.191  0.00  0.00    +0.000 C 
BRANCH  17  18
ATOM     18  C   UNL     1       1.034   9.384  21.466  0.00  0.00    +0.000 C 
BRANCH  18  19
ATOM     19  C   UNL     1      -0.119  10.137  20.824  0.00  0.00    +0.000 C 
BRANCH  19  24
ATOM     20  C   UNL     1      -3.719  11.440  18.130  0.00  0.00    +0.000 C 
ATOM     21  N   UNL     1      -2.259  11.565  18.180  0.00  0.00    +0.000 NA
ATOM     22  C   UNL     1      -1.607  10.241  18.044  0.00  0.00    +0.000 C 
ATOM     23  C   UNL     1      -0.085  10.273  18.348  0.00  0.00    +0.000 C 
ATOM     24  N   UNL     1       0.277  10.910  19.636  0.00  0.00    +0.000 NA
ATOM     25  C   UNL     1      -0.352  12.242  19.667  0.00  0.00    +0.000 C 
ATOM     26  C   UNL     1      -1.880  12.191  19.468  0.00  0.00    +0.000 C 
ENDBRANCH  19  24
ENDBRANCH  18  19
ENDBRANCH  17  18
ENDBRANCH  15  17
ENDBRANCH   1  15
TORSDOF 9
ENDMDL
