MODEL 1
REMARK VINA RESULT:      -6.9      0.000      0.000
REMARK  Name = 
REMARK  4 active torsions:
REMARK  status: ('A' for Active; 'I' for Inactive)
REMARK    1  A    between atoms: C_1  and  C_2
REMARK    2  A    between atoms: C_3  and  C_4
REMARK    3  A    between atoms: C_6  and  C_7
REMARK    4  A    between atoms: N_18  and  C_19
REMARK                            x       y       z     vdW  Elec       q    Type
REMARK                         _______ _______ _______ _____ _____    ______ ____
ROOT
ATOM      1  C   UNL     1       4.725   7.095  15.372  0.00  0.00    +0.000 C 
ATOM      2  C   UNL     1       4.922   6.078  16.493  0.00  0.00    +0.000 C 
ATOM      3  C   UNL     1       5.973   5.201  16.500  0.00  0.00    +0.000 C 
ATOM      4  C   UNL     1       6.169   4.181  17.609  0.00  0.00    +0.000 C 
ATOM      5  C   UNL     1       7.379   4.557  18.469  0.00  0.00    +0.000 C 
ATOM      6  C   UNL     1       4.937   4.108  18.454  0.00  0.00    +0.000 C 
ATOM      7  C   UNL     1       3.916   4.982  18.388  0.00  0.00    +0.000 C 
ATOM      8  C   UNL     1       2.862   4.558  19.317  0.00  0.00    +0.000 A 
ATOM      9  C   UNL     1       1.581   5.018  19.589  0.00  0.00    +0.000 A 
ATOM     10  C   UNL     1       0.814   4.373  20.572  0.00  0.00    +0.000 A 
ATOM     11  C   UNL     1       1.308   3.251  21.252  0.00  0.00    +0.000 A 
ATOM     12  C   UNL     1       2.573   2.750  20.951  0.00  0.00    +0.000 A 
ATOM     13  C   UNL     1       3.311   3.420  19.989  0.00  0.00    +0.000 A 
ATOM     14  C   UNL     1       4.629   3.085  19.463  0.00  0.00    +0.000 C 
ATOM     15  O   UNL     1       5.325   2.148  19.781  0.00  0.00    +0.000 OA
ATOM     16  N   UNL     1       3.931   6.069  17.518  0.00  0.00    +0.000 N 
ATOM     17  C   UNL     1       3.045   7.230  17.681  0.00  0.00    +0.000 C 
ENDROOT
BRANCH   3  18
ATOM     18  C   UNL     1       6.956   5.302  15.346  0.00  0.00    +0.000 C 
ATOM     19  N   UNL     1       7.771   5.386  14.388  0.00  0.00    +0.000 NA
ENDBRANCH   3  18
TORSDOF 1
ENDMDL
MODEL 2
REMARK VINA RESULT:      -6.3      2.204      3.142
REMARK  Name = 
REMARK  4 active torsions:
REMARK  status: ('A' for Active; 'I' for Inactive)
REMARK    1  A    between atoms: C_1  and  C_2
REMARK    2  A    between atoms: C_3  and  C_4
REMARK    3  A    between atoms: C_6  and  C_7
REMARK    4  A    between atoms: N_18  and  C_19
REMARK                            x       y       z     vdW  Elec       q    Type
REMARK                         _______ _______ _______ _____ _____    ______ ____
ROOT
ATOM      1  C   UNL     1       7.116   4.953  16.089  0.00  0.00    +0.000 C 
ATOM      2  C   UNL     1       5.853   5.356  16.844  0.00  0.00    +0.000 C 
ATOM      3  C   UNL     1       5.730   6.575  17.454  0.00  0.00    +0.000 C 
ATOM      4  C   UNL     1       4.479   6.978  18.215  0.00  0.00    +0.000 C 
ATOM      5  C   UNL     1       3.717   8.063  17.448  0.00  0.00    +0.000 C 
ATOM      6  C   UNL     1       3.605   5.782  18.424  0.00  0.00    +0.000 C 
ATOM      7  C   UNL     1       3.786   4.593  17.820  0.00  0.00    +0.000 C 
ATOM      8  C   UNL     1       2.778   3.648  18.313  0.00  0.00    +0.000 A 
ATOM      9  C   UNL     1       2.554   2.293  18.111  0.00  0.00    +0.000 A 
ATOM     10  C   UNL     1       1.464   1.675  18.745  0.00  0.00    +0.000 A 
ATOM     11  C   UNL     1       0.626   2.398  19.606  0.00  0.00    +0.000 A 
ATOM     12  C   UNL     1       0.872   3.746  19.857  0.00  0.00    +0.000 A 
ATOM     13  C   UNL     1       1.945   4.329  19.201  0.00  0.00    +0.000 A 
ATOM     14  C   UNL     1       2.440   5.696  19.315  0.00  0.00    +0.000 C 
ATOM     15  O   UNL     1       1.994   6.579  20.012  0.00  0.00    +0.000 OA
ATOM     16  N   UNL     1       4.817   4.377  16.909  0.00  0.00    +0.000 N 
ATOM     17  C   UNL     1       4.820   3.254  15.963  0.00  0.00    +0.000 C 
ENDROOT
BRANCH   3  18
ATOM     18  C   UNL     1       6.908   7.527  17.323  0.00  0.00    +0.000 C 
ATOM     19  N   UNL     1       7.885   8.315  17.214  0.00  0.00    +0.000 NA
ENDBRANCH   3  18
TORSDOF 1
ENDMDL
MODEL 3
REMARK VINA RESULT:      -6.0      8.914     11.017
REMARK  Name = 
REMARK  4 active torsions:
REMARK  status: ('A' for Active; 'I' for Inactive)
REMARK    1  A    between atoms: C_1  and  C_2
REMARK    2  A    between atoms: C_3  and  C_4
REMARK    3  A    between atoms: C_6  and  C_7
REMARK    4  A    between atoms: N_18  and  C_19
REMARK                            x       y       z     vdW  Elec       q    Type
REMARK                         _______ _______ _______ _____ _____    ______ ____
ROOT
ATOM      1  C   UNL     1      -3.785  14.845  22.284  0.00  0.00    +0.000 C 
ATOM      2  C   UNL     1      -2.960  13.671  21.766  0.00  0.00    +0.000 C 
ATOM      3  C   UNL     1      -1.754  13.333  22.319  0.00  0.00    +0.000 C 
ATOM      4  C   UNL     1      -0.923  12.171  21.802  0.00  0.00    +0.000 C 
ATOM      5  C   UNL     1      -0.924  11.024  22.818  0.00  0.00    +0.000 C 
ATOM      6  C   UNL     1      -1.469  11.700  20.491  0.00  0.00    +0.000 C 
ATOM      7  C   UNL     1      -2.651  12.087  19.977  0.00  0.00    +0.000 C 
ATOM      8  C   UNL     1      -2.822  11.471  18.656  0.00  0.00    +0.000 A 
ATOM      9  C   UNL     1      -3.783  11.588  17.661  0.00  0.00    +0.000 A 
ATOM     10  C   UNL     1      -3.649  10.831  16.486  0.00  0.00    +0.000 A 
ATOM     11  C   UNL     1      -2.543   9.992  16.290  0.00  0.00    +0.000 A 
ATOM     12  C   UNL     1      -1.547   9.906  17.260  0.00  0.00    +0.000 A 
ATOM     13  C   UNL     1      -1.718  10.652  18.415  0.00  0.00    +0.000 A 
ATOM     14  C   UNL     1      -0.818  10.775  19.555  0.00  0.00    +0.000 C 
ATOM     15  O   UNL     1       0.256  10.235  19.698  0.00  0.00    +0.000 OA
ATOM     16  N   UNL     1      -3.498  12.964  20.650  0.00  0.00    +0.000 N 
ATOM     17  C   UNL     1      -4.922  13.104  20.321  0.00  0.00    +0.000 C 
ENDROOT
BRANCH   3  18
ATOM     18  C   UNL     1      -1.282  14.170  23.496  0.00  0.00    +0.000 C 
ATOM     19  N   UNL     1      -0.891  14.864  24.473  0.00  0.00    +0.000 NA
ENDBRANCH   3  18
TORSDOF 1
ENDMDL
MODEL 4
REMARK VINA RESULT:      -5.9      5.595      8.056
REMARK  Name = 
REMARK  4 active torsions:
REMARK  status: ('A' for Active; 'I' for Inactive)
REMARK    1  A    between atoms: C_1  and  C_2
REMARK    2  A    between atoms: C_3  and  C_4
REMARK    3  A    between atoms: C_6  and  C_7
REMARK    4  A    between atoms: N_18  and  C_19
REMARK                            x       y       z     vdW  Elec       q    Type
REMARK                         _______ _______ _______ _____ _____    ______ ____
ROOT
ATOM      1  C   UNL     1      -1.419  11.498  22.701  0.00  0.00    +0.000 C 
ATOM      2  C   UNL     1      -0.477  11.169  21.547  0.00  0.00    +0.000 C 
ATOM      3  C   UNL     1      -0.349  11.989  20.458  0.00  0.00    +0.000 C 
ATOM      4  C   UNL     1       0.580  11.661  19.302  0.00  0.00    +0.000 C 
ATOM      5  C   UNL     1       1.775  12.619  19.293  0.00  0.00    +0.000 C 
ATOM      6  C   UNL     1       1.053  10.247  19.416  0.00  0.00    +0.000 C 
ATOM      7  C   UNL     1       0.875   9.471  20.501  0.00  0.00    +0.000 C 
ATOM      8  C   UNL     1       1.413   8.134  20.226  0.00  0.00    +0.000 A 
ATOM      9  C   UNL     1       1.420   6.938  20.932  0.00  0.00    +0.000 A 
ATOM     10  C   UNL     1       2.045   5.813  20.372  0.00  0.00    +0.000 A 
ATOM     11  C   UNL     1       2.627   5.871  19.097  0.00  0.00    +0.000 A 
ATOM     12  C   UNL     1       2.581   7.051  18.358  0.00  0.00    +0.000 A 
ATOM     13  C   UNL     1       1.973   8.148  18.948  0.00  0.00    +0.000 A 
ATOM     14  C   UNL     1       1.756   9.474  18.383  0.00  0.00    +0.000 C 
ATOM     15  O   UNL     1       2.077   9.860  17.282  0.00  0.00    +0.000 OA
ATOM     16  N   UNL     1       0.239   9.939  21.648  0.00  0.00    +0.000 N 
ATOM     17  C   UNL     1       0.365   9.278  22.954  0.00  0.00    +0.000 C 
ENDROOT
BRANCH   3  18
ATOM     18  C   UNL     1      -1.175  13.265  20.463  0.00  0.00    +0.000 C 
ATOM     19  N   UNL     1      -1.860  14.322  20.466  0.00  0.00    +0.000 NA
ENDBRANCH   3  18
TORSDOF 1
ENDMDL
MODEL 5
REMARK VINA RESULT:      -5.9      2.831      5.011
REMARK  Name = 
REMARK  4 active torsions:
REMARK  status: ('A' for Active; 'I' for Inactive)
REMARK    1  A    between atoms: C_1  and  C_2
REMARK    2  A    between atoms: C_3  and  C_4
REMARK    3  A    between atoms: C_6  and  C_7
REMARK    4  A    between atoms: N_18  and  C_19
REMARK                            x       y       z     vdW  Elec       q    Type
REMARK                         _______ _______ _______ _____ _____    ______ ____
ROOT
ATOM      1  C   UNL     1       2.383   2.929  21.579  0.00  0.00    +0.000 C 
ATOM      2  C   UNL     1       2.849   3.747  20.379  0.00  0.00    +0.000 C 
ATOM      3  C   UNL     1       3.951   3.398  19.646  0.00  0.00    +0.000 C 
ATOM      4  C   UNL     1       4.424   4.214  18.456  0.00  0.00    +0.000 C 
ATOM      5  C   UNL     1       4.175   3.449  17.153  0.00  0.00    +0.000 C 
ATOM      6  C   UNL     1       3.713   5.529  18.427  0.00  0.00    +0.000 C 
ATOM      7  C   UNL     1       2.648   5.835  19.192  0.00  0.00    +0.000 C 
ATOM      8  C   UNL     1       2.259   7.226  18.937  0.00  0.00    +0.000 A 
ATOM      9  C   UNL     1       1.315   8.076  19.496  0.00  0.00    +0.000 A 
ATOM     10  C   UNL     1       1.190   9.385  19.002  0.00  0.00    +0.000 A 
ATOM     11  C   UNL     1       2.029   9.853  17.981  0.00  0.00    +0.000 A 
ATOM     12  C   UNL     1       3.014   9.025  17.448  0.00  0.00    +0.000 A 
ATOM     13  C   UNL     1       3.099   7.735  17.945  0.00  0.00    +0.000 A 
ATOM     14  C   UNL     1       4.055   6.691  17.595  0.00  0.00    +0.000 C 
ATOM     15  O   UNL     1       4.957   6.766  16.792  0.00  0.00    +0.000 OA
ATOM     16  N   UNL     1       2.092   4.920  20.083  0.00  0.00    +0.000 N 
ATOM     17  C   UNL     1       0.739   5.069  20.635  0.00  0.00    +0.000 C 
ENDROOT
BRANCH   3  18
ATOM     18  C   UNL     1       4.680   2.133  20.069  0.00  0.00    +0.000 C 
ATOM     19  N   UNL     1       5.284   1.084  20.420  0.00  0.00    +0.000 NA
ENDBRANCH   3  18
TORSDOF 1
ENDMDL
MODEL 6
REMARK VINA RESULT:      -5.9      2.213      5.543
REMARK  Name = 
REMARK  4 active torsions:
REMARK  status: ('A' for Active; 'I' for Inactive)
REMARK    1  A    between atoms: C_1  and  C_2
REMARK    2  A    between atoms: C_3  and  C_4
REMARK    3  A    between atoms: C_6  and  C_7
REMARK    4  A    between atoms: N_18  and  C_19
REMARK                            x       y       z     vdW  Elec       q    Type
REMARK                         _______ _______ _______ _____ _____    ______ ____
ROOT
ATOM      1  C   UNL     1       1.619   5.932  21.117  0.00  0.00    +0.000 C 
ATOM      2  C   UNL     1       2.153   4.994  20.039  0.00  0.00    +0.000 C 
ATOM      3  C   UNL     1       2.136   3.633  20.188  0.00  0.00    +0.000 C 
ATOM      4  C   UNL     1       2.675   2.695  19.122  0.00  0.00    +0.000 C 
ATOM      5  C   UNL     1       1.526   1.939  18.449  0.00  0.00    +0.000 C 
ATOM      6  C   UNL     1       3.448   3.473  18.105  0.00  0.00    +0.000 C 
ATOM      7  C   UNL     1       3.454   4.816  18.019  0.00  0.00    +0.000 C 
ATOM      8  C   UNL     1       4.368   5.222  16.945  0.00  0.00    +0.000 A 
ATOM      9  C   UNL     1       4.824   6.451  16.487  0.00  0.00    +0.000 A 
ATOM     10  C   UNL     1       5.715   6.492  15.403  0.00  0.00    +0.000 A 
ATOM     11  C   UNL     1       6.179   5.312  14.805  0.00  0.00    +0.000 A 
ATOM     12  C   UNL     1       5.768   4.072  15.289  0.00  0.00    +0.000 A 
ATOM     13  C   UNL     1       4.875   4.067  16.349  0.00  0.00    +0.000 A 
ATOM     14  C   UNL     1       4.325   2.921  17.063  0.00  0.00    +0.000 C 
ATOM     15  O   UNL     1       4.553   1.751  16.853  0.00  0.00    +0.000 OA
ATOM     16  N   UNL     1       2.705   5.615  18.879  0.00  0.00    +0.000 N 
ATOM     17  C   UNL     1       2.384   7.018  18.585  0.00  0.00    +0.000 C 
ENDROOT
BRANCH   3  18
ATOM     18  C   UNL     1       1.533   3.094  21.474  0.00  0.00    +0.000 C 
ATOM     19  N   UNL     1       1.032   2.647  22.541  0.00  0.00    +0.000 NA
ENDBRANCH   3  18
TORSDOF 1
ENDMDL
MODEL 7
REMARK VINA RESULT:      -5.8      2.650      5.846
REMARK  Name = 
REMARK  4 active torsions:
REMARK  status: ('A' for Active; 'I' for Inactive)
REMARK    1  A    between atoms: C_1  and  C_2
REMARK    2  A    between atoms: C_3  and  C_4
REMARK    3  A    between atoms: C_6  and  C_7
REMARK    4  A    between atoms: N_18  and  C_19
REMARK                            x       y       z     vdW  Elec       q    Type
REMARK                         _______ _______ _______ _____ _____    ______ ____
ROOT
ATOM      1  C   UNL     1       1.536   4.083  18.136  0.00  0.00    +0.000 C 
ATOM      2  C   UNL     1       2.963   4.531  17.835  0.00  0.00    +0.000 C 
ATOM      3  C   UNL     1       3.592   5.496  18.574  0.00  0.00    +0.000 C 
ATOM      4  C   UNL     1       5.009   5.952  18.273  0.00  0.00    +0.000 C 
ATOM      5  C   UNL     1       5.966   5.472  19.368  0.00  0.00    +0.000 C 
ATOM      6  C   UNL     1       5.440   5.424  16.942  0.00  0.00    +0.000 C 
ATOM      7  C   UNL     1       4.768   4.493  16.239  0.00  0.00    +0.000 C 
ATOM      8  C   UNL     1       5.454   4.270  14.962  0.00  0.00    +0.000 A 
ATOM      9  C   UNL     1       5.165   3.510  13.837  0.00  0.00    +0.000 A 
ATOM     10  C   UNL     1       6.061   3.513  12.756  0.00  0.00    +0.000 A 
ATOM     11  C   UNL     1       7.221   4.299  12.783  0.00  0.00    +0.000 A 
ATOM     12  C   UNL     1       7.496   5.106  13.885  0.00  0.00    +0.000 A 
ATOM     13  C   UNL     1       6.601   5.067  14.942  0.00  0.00    +0.000 A 
ATOM     14  C   UNL     1       6.629   5.833  16.182  0.00  0.00    +0.000 C 
ATOM     15  O   UNL     1       7.456   6.652  16.516  0.00  0.00    +0.000 OA
ATOM     16  N   UNL     1       3.596   3.912  16.716  0.00  0.00    +0.000 N 
ATOM     17  C   UNL     1       3.058   2.654  16.182  0.00  0.00    +0.000 C 
ENDROOT
BRANCH   3  18
ATOM     18  C   UNL     1       2.808   6.088  19.734  0.00  0.00    +0.000 C 
ATOM     19  N   UNL     1       2.158   6.579  20.696  0.00  0.00    +0.000 NA
ENDBRANCH   3  18
TORSDOF 1
ENDMDL
MODEL 8
REMARK VINA RESULT:      -5.7      7.430      9.785
REMARK  Name = 
REMARK  4 active torsions:
REMARK  status: ('A' for Active; 'I' for Inactive)
REMARK    1  A    between atoms: C_1  and  C_2
REMARK    2  A    between atoms: C_3  and  C_4
REMARK    3  A    between atoms: C_6  and  C_7
REMARK    4  A    between atoms: N_18  and  C_19
REMARK                            x       y       z     vdW  Elec       q    Type
REMARK                         _______ _______ _______ _____ _____    ______ ____
ROOT
ATOM      1  C   UNL     1      -1.008  14.999  19.749  0.00  0.00    +0.000 C 
ATOM      2  C   UNL     1      -0.900  13.722  20.577  0.00  0.00    +0.000 C 
ATOM      3  C   UNL     1      -1.124  13.711  21.928  0.00  0.00    +0.000 C 
ATOM      4  C   UNL     1      -1.008  12.445  22.758  0.00  0.00    +0.000 C 
ATOM      5  C   UNL     1      -2.393  11.989  23.227  0.00  0.00    +0.000 C 
ATOM      6  C   UNL     1      -0.355  11.368  21.953  0.00  0.00    +0.000 C 
ATOM      7  C   UNL     1      -0.130  11.439  20.628  0.00  0.00    +0.000 C 
ATOM      8  C   UNL     1       0.581  10.230  20.198  0.00  0.00    +0.000 A 
ATOM      9  C   UNL     1       1.134   9.820  18.992  0.00  0.00    +0.000 A 
ATOM     10  C   UNL     1       1.757   8.564  18.914  0.00  0.00    +0.000 A 
ATOM     11  C   UNL     1       1.861   7.739  20.042  0.00  0.00    +0.000 A 
ATOM     12  C   UNL     1       1.355   8.162  21.269  0.00  0.00    +0.000 A 
ATOM     13  C   UNL     1       0.731   9.398  21.309  0.00  0.00    +0.000 A 
ATOM     14  C   UNL     1       0.159  10.088  22.459  0.00  0.00    +0.000 C 
ATOM     15  O   UNL     1       0.125   9.694  23.603  0.00  0.00    +0.000 OA
ATOM     16  N   UNL     1      -0.517  12.542  19.872  0.00  0.00    +0.000 N 
ATOM     17  C   UNL     1      -0.641  12.500  18.409  0.00  0.00    +0.000 C 
ENDROOT
BRANCH   3  18
ATOM     18  C   UNL     1      -1.514  15.035  22.566  0.00  0.00    +0.000 C 
ATOM     19  N   UNL     1      -1.837  16.132  23.095  0.00  0.00    +0.000 NA
ENDBRANCH   3  18
TORSDOF 1
ENDMDL
MODEL 9
REMARK VINA RESULT:      -5.7      7.061      9.702
REMARK  Name = 
REMARK  4 active torsions:
REMARK  status: ('A' for Active; 'I' for Inactive)
REMARK    1  A    between atoms: C_1  and  C_2
REMARK    2  A    between atoms: C_3  and  C_4
REMARK    3  A    between atoms: C_6  and  C_7
REMARK    4  A    between atoms: N_18  and  C_19
REMARK                            x       y       z     vdW  Elec       q    Type
REMARK                         _______ _______ _______ _____ _____    ______ ____
ROOT
ATOM      1  C   UNL     1       1.432   8.493  20.551  0.00  0.00    +0.000 C 
ATOM      2  C   UNL     1       0.328   9.516  20.301  0.00  0.00    +0.000 C 
ATOM      3  C   UNL     1      -0.272  10.201  21.323  0.00  0.00    +0.000 C 
ATOM      4  C   UNL     1      -1.378  11.213  21.080  0.00  0.00    +0.000 C 
ATOM      5  C   UNL     1      -0.870  12.632  21.356  0.00  0.00    +0.000 C 
ATOM      6  C   UNL     1      -1.866  11.104  19.670  0.00  0.00    +0.000 C 
ATOM      7  C   UNL     1      -1.253  10.391  18.707  0.00  0.00    +0.000 C 
ATOM      8  C   UNL     1      -2.049  10.468  17.477  0.00  0.00    +0.000 A 
ATOM      9  C   UNL     1      -1.947   9.867  16.229  0.00  0.00    +0.000 A 
ATOM     10  C   UNL     1      -2.897  10.169  15.241  0.00  0.00    +0.000 A 
ATOM     11  C   UNL     1      -3.965  11.038  15.509  0.00  0.00    +0.000 A 
ATOM     12  C   UNL     1      -4.106  11.606  16.773  0.00  0.00    +0.000 A 
ATOM     13  C   UNL     1      -3.142  11.301  17.720  0.00  0.00    +0.000 A 
ATOM     14  C   UNL     1      -3.076  11.724  19.113  0.00  0.00    +0.000 C 
ATOM     15  O   UNL     1      -3.864  12.430  19.700  0.00  0.00    +0.000 OA
ATOM     16  N   UNL     1      -0.070   9.695  18.943  0.00  0.00    +0.000 N 
ATOM     17  C   UNL     1       0.813   9.239  17.862  0.00  0.00    +0.000 C 
ENDROOT
BRANCH   3  18
ATOM     18  C   UNL     1       0.232   9.913  22.728  0.00  0.00    +0.000 C 
ATOM     19  N   UNL     1       0.650   9.674  23.892  0.00  0.00    +0.000 NA
ENDBRANCH   3  18
TORSDOF 1
ENDMDL
