MODEL 1
REMARK VINA RESULT:      -7.5      0.000      0.000
REMARK  Name = 
REMARK  7 active torsions:
REMARK  status: ('A' for Active; 'I' for Inactive)
REMARK    1  A    between atoms: C_1  and  O_2
REMARK    2  A    between atoms: O_2  and  C_3
REMARK    3  A    between atoms: C_6  and  S_7
REMARK    4  A    between atoms: S_7  and  N_10
REMARK    5  A    between atoms: N_10  and  C_11
REMARK    6  A    between atoms: C_17  and  C_18
REMARK    7  A    between atoms: C_20  and  C_21
REMARK                            x       y       z     vdW  Elec       q    Type
REMARK                         _______ _______ _______ _____ _____    ______ ____
ROOT
ATOM      1  C   UNL     1       0.214   9.446  20.911  0.00  0.00    +0.000 A 
ATOM      2  C   UNL     1       0.800   8.283  21.447  0.00  0.00    +0.000 A 
ATOM      3  C   UNL     1       1.748   7.554  20.741  0.00  0.00    +0.000 A 
ATOM      4  C   UNL     1       2.130   7.973  19.472  0.00  0.00    +0.000 A 
ATOM      5  C   UNL     1       1.600   9.165  18.938  0.00  0.00    +0.000 A 
ATOM      6  C   UNL     1       0.643   9.940  19.663  0.00  0.00    +0.000 A 
ENDROOT
BRANCH   6   7
ATOM      7  C   UNL     1       0.052  11.127  18.935  0.00  0.00    +0.000 C 
ATOM      8  O   UNL     1      -0.922  10.875  18.218  0.00  0.00    +0.000 OA
ATOM      9  N   UNL     1       0.538  12.439  19.012  0.00  0.00    +0.000 N 
ATOM     10  C   UNL     1       1.786  12.933  19.600  0.00  0.00    +0.000 C 
ATOM     11  C   UNL     1       1.476  14.084  20.576  0.00  0.00    +0.000 C 
ATOM     12  O   UNL     1       0.811  15.159  19.885  0.00  0.00    +0.000 OA
ATOM     13  C   UNL     1      -0.427  14.705  19.306  0.00  0.00    +0.000 C 
ATOM     14  C   UNL     1      -0.203  13.524  18.347  0.00  0.00    +0.000 C 
ENDBRANCH   6   7
BRANCH   4  15
ATOM     15  S   UNL     1       3.019   6.789  18.474  0.00  0.00    +0.000 S 
ATOM     16  O   UNL     1       3.483   7.485  17.297  0.00  0.00    +0.000 OA
ATOM     17  O   UNL     1       3.958   6.104  19.347  0.00  0.00    +0.000 OA
BRANCH  15  18
ATOM     18  N   UNL     1       1.917   5.619  18.009  0.00  0.00    +0.000 N 
ATOM     19  H   UNL     1       1.483   5.793  17.103  0.00  0.00    +0.000 HD
BRANCH  18  20
ATOM     20  C   UNL     1       1.897   4.296  18.522  0.00  0.00    +0.000 A 
ATOM     21  C   UNL     1       1.095   4.071  19.649  0.00  0.00    +0.000 A 
ATOM     22  C   UNL     1       1.118   2.844  20.311  0.00  0.00    +0.000 A 
ATOM     23  C   UNL     1       1.955   1.834  19.853  0.00  0.00    +0.000 A 
ATOM     24  C   UNL     1       2.744   2.053  18.727  0.00  0.00    +0.000 A 
ATOM     25  F   UNL     1       3.550   1.060  18.323  0.00  0.00    +0.000 F 
ATOM     26  C   UNL     1       2.736   3.278  18.040  0.00  0.00    +0.000 A 
ATOM     27  C   UNL     1       3.628   3.438  16.842  0.00  0.00    +0.000 C 
ENDBRANCH  18  20
ENDBRANCH  15  18
ENDBRANCH   4  15
BRANCH   1  29
ATOM     28  C   UNL     1      -0.647  10.431  22.888  0.00  0.00    +0.000 C 
ATOM     29  O   UNL     1      -0.865  10.022  21.536  0.00  0.00    +0.000 OA
ENDBRANCH   1  29
TORSDOF 5
ENDMDL
MODEL 2
REMARK VINA RESULT:      -7.3      1.018      1.701
REMARK  Name = 
REMARK  7 active torsions:
REMARK  status: ('A' for Active; 'I' for Inactive)
REMARK    1  A    between atoms: C_1  and  O_2
REMARK    2  A    between atoms: O_2  and  C_3
REMARK    3  A    between atoms: C_6  and  S_7
REMARK    4  A    between atoms: S_7  and  N_10
REMARK    5  A    between atoms: N_10  and  C_11
REMARK    6  A    between atoms: C_17  and  C_18
REMARK    7  A    between atoms: C_20  and  C_21
REMARK                            x       y       z     vdW  Elec       q    Type
REMARK                         _______ _______ _______ _____ _____    ______ ____
ROOT
ATOM      1  C   UNL     1       0.228   9.755  21.011  0.00  0.00    +0.000 A 
ATOM      2  C   UNL     1       0.828   8.578  21.494  0.00  0.00    +0.000 A 
ATOM      3  C   UNL     1       1.678   7.816  20.702  0.00  0.00    +0.000 A 
ATOM      4  C   UNL     1       1.943   8.216  19.398  0.00  0.00    +0.000 A 
ATOM      5  C   UNL     1       1.398   9.422  18.910  0.00  0.00    +0.000 A 
ATOM      6  C   UNL     1       0.544  10.230  19.721  0.00  0.00    +0.000 A 
ENDROOT
BRANCH   6   7
ATOM      7  C   UNL     1      -0.081  11.431  19.047  0.00  0.00    +0.000 C 
ATOM      8  O   UNL     1      -1.189  11.234  18.538  0.00  0.00    +0.000 OA
ATOM      9  N   UNL     1       0.510  12.698  18.957  0.00  0.00    +0.000 N 
ATOM     10  C   UNL     1       1.881  13.108  19.276  0.00  0.00    +0.000 C 
ATOM     11  C   UNL     1       1.849  14.321  20.223  0.00  0.00    +0.000 C 
ATOM     12  O   UNL     1       1.151  15.419  19.606  0.00  0.00    +0.000 OA
ATOM     13  C   UNL     1      -0.205  15.049  19.292  0.00  0.00    +0.000 C 
ATOM     14  C   UNL     1      -0.257  13.814  18.378  0.00  0.00    +0.000 C 
ENDBRANCH   6   7
BRANCH   4  15
ATOM     15  S   UNL     1       2.690   7.000  18.325  0.00  0.00    +0.000 S 
ATOM     16  O   UNL     1       1.626   6.393  17.562  0.00  0.00    +0.000 OA
ATOM     17  O   UNL     1       3.809   7.641  17.656  0.00  0.00    +0.000 OA
BRANCH  15  18
ATOM     18  N   UNL     1       3.376   5.836  19.313  0.00  0.00    +0.000 N 
ATOM     19  H   UNL     1       3.557   6.151  20.265  0.00  0.00    +0.000 HD
BRANCH  18  20
ATOM     20  C   UNL     1       3.295   4.440  19.069  0.00  0.00    +0.000 A 
ATOM     21  C   UNL     1       4.187   3.913  18.125  0.00  0.00    +0.000 A 
ATOM     22  C   UNL     1       4.093   2.585  17.713  0.00  0.00    +0.000 A 
ATOM     23  C   UNL     1       3.095   1.773  18.239  0.00  0.00    +0.000 A 
ATOM     24  C   UNL     1       2.215   2.293  19.186  0.00  0.00    +0.000 A 
ATOM     25  F   UNL     1       1.256   1.483  19.660  0.00  0.00    +0.000 F 
ATOM     26  C   UNL     1       2.292   3.626  19.620  0.00  0.00    +0.000 A 
ATOM     27  C   UNL     1       1.296   4.112  20.634  0.00  0.00    +0.000 C 
ENDBRANCH  18  20
ENDBRANCH  15  18
ENDBRANCH   4  15
BRANCH   1  29
ATOM     28  C   UNL     1      -0.728  10.138  23.146  0.00  0.00    +0.000 C 
ATOM     29  O   UNL     1      -0.765  10.368  21.736  0.00  0.00    +0.000 OA
ENDBRANCH   1  29
TORSDOF 5
ENDMDL
MODEL 3
REMARK VINA RESULT:      -7.2      3.043      4.474
REMARK  Name = 
REMARK  7 active torsions:
REMARK  status: ('A' for Active; 'I' for Inactive)
REMARK    1  A    between atoms: C_1  and  O_2
REMARK    2  A    between atoms: O_2  and  C_3
REMARK    3  A    between atoms: C_6  and  S_7
REMARK    4  A    between atoms: S_7  and  N_10
REMARK    5  A    between atoms: N_10  and  C_11
REMARK    6  A    between atoms: C_17  and  C_18
REMARK    7  A    between atoms: C_20  and  C_21
REMARK                            x       y       z     vdW  Elec       q    Type
REMARK                         _______ _______ _______ _____ _____    ______ ____
ROOT
ATOM      1  C   UNL     1      -0.241  12.216  18.643  0.00  0.00    +0.000 A 
ATOM      2  C   UNL     1       0.929  12.157  19.423  0.00  0.00    +0.000 A 
ATOM      3  C   UNL     1       1.219  11.057  20.219  0.00  0.00    +0.000 A 
ATOM      4  C   UNL     1       0.335   9.986  20.257  0.00  0.00    +0.000 A 
ATOM      5  C   UNL     1      -0.815   9.997  19.443  0.00  0.00    +0.000 A 
ATOM      6  C   UNL     1      -1.114  11.109  18.598  0.00  0.00    +0.000 A 
ENDROOT
BRANCH   6   7
ATOM      7  C   UNL     1      -2.439  11.061  17.869  0.00  0.00    +0.000 C 
ATOM      8  O   UNL     1      -2.429  10.451  16.795  0.00  0.00    +0.000 OA
ATOM      9  N   UNL     1      -3.623  11.660  18.318  0.00  0.00    +0.000 N 
ATOM     10  C   UNL     1      -3.826  12.605  19.419  0.00  0.00    +0.000 C 
ATOM     11  C   UNL     1      -4.948  12.090  20.341  0.00  0.00    +0.000 C 
ATOM     12  O   UNL     1      -6.175  11.944  19.601  0.00  0.00    +0.000 OA
ATOM     13  C   UNL     1      -6.009  11.009  18.517  0.00  0.00    +0.000 C 
ATOM     14  C   UNL     1      -4.873  11.436  17.572  0.00  0.00    +0.000 C 
ENDBRANCH   6   7
BRANCH   4  15
ATOM     15  S   UNL     1       0.555   8.817  21.589  0.00  0.00    +0.000 S 
ATOM     16  O   UNL     1       0.832   9.578  22.784  0.00  0.00    +0.000 OA
ATOM     17  O   UNL     1      -0.565   7.892  21.543  0.00  0.00    +0.000 OA
BRANCH  15  18
ATOM     18  N   UNL     1       1.902   7.897  21.213  0.00  0.00    +0.000 N 
ATOM     19  H   UNL     1       2.674   8.003  21.869  0.00  0.00    +0.000 HD
BRANCH  18  20
ATOM     20  C   UNL     1       1.870   6.741  20.390  0.00  0.00    +0.000 A 
ATOM     21  C   UNL     1       1.493   5.541  21.006  0.00  0.00    +0.000 A 
ATOM     22  C   UNL     1       1.566   4.329  20.321  0.00  0.00    +0.000 A 
ATOM     23  C   UNL     1       2.029   4.310  19.010  0.00  0.00    +0.000 A 
ATOM     24  C   UNL     1       2.394   5.505  18.393  0.00  0.00    +0.000 A 
ATOM     25  F   UNL     1       2.850   5.445  17.133  0.00  0.00    +0.000 F 
ATOM     26  C   UNL     1       2.325   6.738  19.061  0.00  0.00    +0.000 A 
ATOM     27  C   UNL     1       2.750   7.978  18.328  0.00  0.00    +0.000 C 
ENDBRANCH  18  20
ENDBRANCH  15  18
ENDBRANCH   4  15
BRANCH   1  29
ATOM     28  C   UNL     1      -0.211  14.585  18.719  0.00  0.00    +0.000 C 
ATOM     29  O   UNL     1      -0.605  13.393  18.036  0.00  0.00    +0.000 OA
ENDBRANCH   1  29
TORSDOF 5
ENDMDL
MODEL 4
REMARK VINA RESULT:      -7.2      2.946      4.295
REMARK  Name = 
REMARK  7 active torsions:
REMARK  status: ('A' for Active; 'I' for Inactive)
REMARK    1  A    between atoms: C_1  and  O_2
REMARK    2  A    between atoms: O_2  and  C_3
REMARK    3  A    between atoms: C_6  and  S_7
REMARK    4  A    between atoms: S_7  and  N_10
REMARK    5  A    between atoms: N_10  and  C_11
REMARK    6  A    between atoms: C_17  and  C_18
REMARK    7  A    between atoms: C_20  and  C_21
REMARK                            x       y       z     vdW  Elec       q    Type
REMARK                         _______ _______ _______ _____ _____    ______ ____
ROOT
ATOM      1  C   UNL     1      -0.235  12.273  18.631  0.00  0.00    +0.000 A 
ATOM      2  C   UNL     1       1.076  11.878  18.953  0.00  0.00    +0.000 A 
ATOM      3  C   UNL     1       1.329  10.750  19.722  0.00  0.00    +0.000 A 
ATOM      4  C   UNL     1       0.266   9.988  20.192  0.00  0.00    +0.000 A 
ATOM      5  C   UNL     1      -1.054  10.331  19.835  0.00  0.00    +0.000 A 
ATOM      6  C   UNL     1      -1.329  11.474  19.023  0.00  0.00    +0.000 A 
ENDROOT
BRANCH   6   7
ATOM      7  C   UNL     1      -2.788  11.813  18.814  0.00  0.00    +0.000 C 
ATOM      8  O   UNL     1      -3.259  11.469  17.725  0.00  0.00    +0.000 OA
ATOM      9  N   UNL     1      -3.597  12.483  19.741  0.00  0.00    +0.000 N 
ATOM     10  C   UNL     1      -3.216  13.176  20.975  0.00  0.00    +0.000 C 
ATOM     11  C   UNL     1      -4.078  12.660  22.143  0.00  0.00    +0.000 C 
ATOM     12  O   UNL     1      -5.474  12.891  21.873  0.00  0.00    +0.000 OA
ATOM     13  C   UNL     1      -5.880  12.212  20.670  0.00  0.00    +0.000 C 
ATOM     14  C   UNL     1      -5.034  12.645  19.462  0.00  0.00    +0.000 C 
ENDBRANCH   6   7
BRANCH   4  15
ATOM     15  S   UNL     1       0.634   8.820  21.491  0.00  0.00    +0.000 S 
ATOM     16  O   UNL     1       0.988   9.583  22.664  0.00  0.00    +0.000 OA
ATOM     17  O   UNL     1      -0.457   7.861  21.533  0.00  0.00    +0.000 OA
BRANCH  15  18
ATOM     18  N   UNL     1       1.971   7.944  20.994  0.00  0.00    +0.000 N 
ATOM     19  H   UNL     1       2.819   8.145  21.523  0.00  0.00    +0.000 HD
BRANCH  18  20
ATOM     20  C   UNL     1       1.899   6.724  20.273  0.00  0.00    +0.000 A 
ATOM     21  C   UNL     1       1.477   5.595  20.988  0.00  0.00    +0.000 A 
ATOM     22  C   UNL     1       1.508   4.327  20.409  0.00  0.00    +0.000 A 
ATOM     23  C   UNL     1       1.973   4.179  19.107  0.00  0.00    +0.000 A 
ATOM     24  C   UNL     1       2.382   5.303  18.393  0.00  0.00    +0.000 A 
ATOM     25  F   UNL     1       2.838   5.119  17.145  0.00  0.00    +0.000 F 
ATOM     26  C   UNL     1       2.356   6.591  18.952  0.00  0.00    +0.000 A 
ATOM     27  C   UNL     1       2.827   7.747  18.118  0.00  0.00    +0.000 C 
ENDBRANCH  18  20
ENDBRANCH  15  18
ENDBRANCH   4  15
BRANCH   1  29
ATOM     28  C   UNL     1      -0.087  14.630  18.844  0.00  0.00    +0.000 C 
ATOM     29  O   UNL     1      -0.462  13.499  18.054  0.00  0.00    +0.000 OA
ENDBRANCH   1  29
TORSDOF 5
ENDMDL
MODEL 5
REMARK VINA RESULT:      -7.2      3.433      8.164
REMARK  Name = 
REMARK  7 active torsions:
REMARK  status: ('A' for Active; 'I' for Inactive)
REMARK    1  A    between atoms: C_1  and  O_2
REMARK    2  A    between atoms: O_2  and  C_3
REMARK    3  A    between atoms: C_6  and  S_7
REMARK    4  A    between atoms: S_7  and  N_10
REMARK    5  A    between atoms: N_10  and  C_11
REMARK    6  A    between atoms: C_17  and  C_18
REMARK    7  A    between atoms: C_20  and  C_21
REMARK                            x       y       z     vdW  Elec       q    Type
REMARK                         _______ _______ _______ _____ _____    ______ ____
ROOT
ATOM      1  C   UNL     1       2.693   4.911  19.864  0.00  0.00    +0.000 A 
ATOM      2  C   UNL     1       1.961   5.714  20.758  0.00  0.00    +0.000 A 
ATOM      3  C   UNL     1       1.502   6.974  20.396  0.00  0.00    +0.000 A 
ATOM      4  C   UNL     1       1.772   7.464  19.124  0.00  0.00    +0.000 A 
ATOM      5  C   UNL     1       2.454   6.655  18.192  0.00  0.00    +0.000 A 
ATOM      6  C   UNL     1       2.909   5.347  18.540  0.00  0.00    +0.000 A 
ENDROOT
BRANCH   6   7
ATOM      7  C   UNL     1       3.739   4.627  17.500  0.00  0.00    +0.000 C 
ATOM      8  O   UNL     1       3.137   3.768  16.846  0.00  0.00    +0.000 OA
ATOM      9  N   UNL     1       5.099   4.858  17.258  0.00  0.00    +0.000 N 
ATOM     10  C   UNL     1       6.060   5.643  18.038  0.00  0.00    +0.000 C 
ATOM     11  C   UNL     1       6.780   6.642  17.113  0.00  0.00    +0.000 C 
ATOM     12  O   UNL     1       7.472   5.942  16.062  0.00  0.00    +0.000 OA
ATOM     13  C   UNL     1       6.549   5.170  15.270  0.00  0.00    +0.000 C 
ATOM     14  C   UNL     1       5.760   4.172  16.134  0.00  0.00    +0.000 C 
ENDBRANCH   6   7
BRANCH   4  15
ATOM     15  S   UNL     1       1.523   9.213  18.872  0.00  0.00    +0.000 S 
ATOM     16  O   UNL     1       2.660   9.705  18.131  0.00  0.00    +0.000 OA
ATOM     17  O   UNL     1       0.174   9.390  18.362  0.00  0.00    +0.000 OA
BRANCH  15  18
ATOM     18  N   UNL     1       1.519   9.928  20.386  0.00  0.00    +0.000 N 
ATOM     19  H   UNL     1       2.434   9.962  20.832  0.00  0.00    +0.000 HD
BRANCH  18  20
ATOM     20  C   UNL     1       0.513  10.820  20.841  0.00  0.00    +0.000 A 
ATOM     21  C   UNL     1       0.491  12.093  20.258  0.00  0.00    +0.000 A 
ATOM     22  C   UNL     1      -0.364  13.086  20.734  0.00  0.00    +0.000 A 
ATOM     23  C   UNL     1      -1.202  12.810  21.810  0.00  0.00    +0.000 A 
ATOM     24  C   UNL     1      -1.188  11.541  22.383  0.00  0.00    +0.000 A 
ATOM     25  F   UNL     1      -1.999  11.317  23.427  0.00  0.00    +0.000 F 
ATOM     26  C   UNL     1      -0.339  10.524  21.918  0.00  0.00    +0.000 A 
ATOM     27  C   UNL     1      -0.377   9.186  22.600  0.00  0.00    +0.000 C 
ENDBRANCH  18  20
ENDBRANCH  15  18
ENDBRANCH   4  15
BRANCH   1  29
ATOM     28  C   UNL     1       2.527   2.945  21.178  0.00  0.00    +0.000 C 
ATOM     29  O   UNL     1       3.311   3.769  20.313  0.00  0.00    +0.000 OA
ENDBRANCH   1  29
TORSDOF 5
ENDMDL
MODEL 6
REMARK VINA RESULT:      -7.2      1.525      2.511
REMARK  Name = 
REMARK  7 active torsions:
REMARK  status: ('A' for Active; 'I' for Inactive)
REMARK    1  A    between atoms: C_1  and  O_2
REMARK    2  A    between atoms: O_2  and  C_3
REMARK    3  A    between atoms: C_6  and  S_7
REMARK    4  A    between atoms: S_7  and  N_10
REMARK    5  A    between atoms: N_10  and  C_11
REMARK    6  A    between atoms: C_17  and  C_18
REMARK    7  A    between atoms: C_20  and  C_21
REMARK                            x       y       z     vdW  Elec       q    Type
REMARK                         _______ _______ _______ _____ _____    ______ ____
ROOT
ATOM      1  C   UNL     1       0.275   9.511  20.903  0.00  0.00    +0.000 A 
ATOM      2  C   UNL     1       0.956   8.422  21.478  0.00  0.00    +0.000 A 
ATOM      3  C   UNL     1       1.874   7.672  20.753  0.00  0.00    +0.000 A 
ATOM      4  C   UNL     1       2.128   7.996  19.426  0.00  0.00    +0.000 A 
ATOM      5  C   UNL     1       1.501   9.117  18.845  0.00  0.00    +0.000 A 
ATOM      6  C   UNL     1       0.575   9.913  19.586  0.00  0.00    +0.000 A 
ENDROOT
BRANCH   6   7
ATOM      7  C   UNL     1      -0.129  11.011  18.818  0.00  0.00    +0.000 C 
ATOM      8  O   UNL     1       0.524  12.048  18.662  0.00  0.00    +0.000 OA
ATOM      9  N   UNL     1      -1.431  10.925  18.309  0.00  0.00    +0.000 N 
ATOM     10  C   UNL     1      -2.459   9.911  18.556  0.00  0.00    +0.000 C 
ATOM     11  C   UNL     1      -3.001   9.388  17.212  0.00  0.00    +0.000 C 
ATOM     12  O   UNL     1      -3.566  10.469  16.446  0.00  0.00    +0.000 OA
ATOM     13  C   UNL     1      -2.574  11.478  16.178  0.00  0.00    +0.000 C 
ATOM     14  C   UNL     1      -1.954  12.021  17.476  0.00  0.00    +0.000 C 
ENDBRANCH   6   7
BRANCH   4  15
ATOM     15  S   UNL     1       2.983   6.766  18.455  0.00  0.00    +0.000 S 
ATOM     16  O   UNL     1       3.415   7.409  17.236  0.00  0.00    +0.000 OA
ATOM     17  O   UNL     1       3.943   6.113  19.328  0.00  0.00    +0.000 OA
BRANCH  15  18
ATOM     18  N   UNL     1       1.863   5.584  18.070  0.00  0.00    +0.000 N 
ATOM     19  H   UNL     1       1.406   5.721  17.170  0.00  0.00    +0.000 HD
BRANCH  18  20
ATOM     20  C   UNL     1       1.851   4.285  18.642  0.00  0.00    +0.000 A 
ATOM     21  C   UNL     1       1.098   4.119  19.812  0.00  0.00    +0.000 A 
ATOM     22  C   UNL     1       1.136   2.922  20.526  0.00  0.00    +0.000 A 
ATOM     23  C   UNL     1       1.939   1.881  20.075  0.00  0.00    +0.000 A 
ATOM     24  C   UNL     1       2.679   2.041  18.906  0.00  0.00    +0.000 A 
ATOM     25  F   UNL     1       3.453   1.019  18.511  0.00  0.00    +0.000 F 
ATOM     26  C   UNL     1       2.654   3.235  18.168  0.00  0.00    +0.000 A 
ATOM     27  C   UNL     1       3.492   3.330  16.925  0.00  0.00    +0.000 C 
ENDBRANCH  18  20
ENDBRANCH  15  18
ENDBRANCH   4  15
BRANCH   1  29
ATOM     28  C   UNL     1      -0.674  10.091  22.997  0.00  0.00    +0.000 C 
ATOM     29  O   UNL     1      -0.773  10.097  21.571  0.00  0.00    +0.000 OA
ENDBRANCH   1  29
TORSDOF 5
ENDMDL
MODEL 7
REMARK VINA RESULT:      -7.2      3.692      8.023
REMARK  Name = 
REMARK  7 active torsions:
REMARK  status: ('A' for Active; 'I' for Inactive)
REMARK    1  A    between atoms: C_1  and  O_2
REMARK    2  A    between atoms: O_2  and  C_3
REMARK    3  A    between atoms: C_6  and  S_7
REMARK    4  A    between atoms: S_7  and  N_10
REMARK    5  A    between atoms: N_10  and  C_11
REMARK    6  A    between atoms: C_17  and  C_18
REMARK    7  A    between atoms: C_20  and  C_21
REMARK                            x       y       z     vdW  Elec       q    Type
REMARK                         _______ _______ _______ _____ _____    ______ ____
ROOT
ATOM      1  C   UNL     1       2.567   5.508  19.977  0.00  0.00    +0.000 A 
ATOM      2  C   UNL     1       1.834   6.419  20.760  0.00  0.00    +0.000 A 
ATOM      3  C   UNL     1       1.399   7.635  20.248  0.00  0.00    +0.000 A 
ATOM      4  C   UNL     1       1.695   7.969  18.932  0.00  0.00    +0.000 A 
ATOM      5  C   UNL     1       2.379   7.050  18.112  0.00  0.00    +0.000 A 
ATOM      6  C   UNL     1       2.809   5.785  18.616  0.00  0.00    +0.000 A 
ENDROOT
BRANCH   6   7
ATOM      7  C   UNL     1       3.644   4.938  17.680  0.00  0.00    +0.000 C 
ATOM      8  O   UNL     1       3.032   4.038  17.096  0.00  0.00    +0.000 OA
ATOM      9  N   UNL     1       5.017   5.101  17.460  0.00  0.00    +0.000 N 
ATOM     10  C   UNL     1       5.982   5.930  18.189  0.00  0.00    +0.000 C 
ATOM     11  C   UNL     1       6.762   6.809  17.194  0.00  0.00    +0.000 C 
ATOM     12  O   UNL     1       7.460   5.985  16.240  0.00  0.00    +0.000 OA
ATOM     13  C   UNL     1       6.535   5.166  15.499  0.00  0.00    +0.000 C 
ATOM     14  C   UNL     1       5.686   4.286  16.432  0.00  0.00    +0.000 C 
ENDBRANCH   6   7
BRANCH   4  15
ATOM     15  S   UNL     1       1.475   9.681  18.476  0.00  0.00    +0.000 S 
ATOM     16  O   UNL     1       1.395  10.443  19.700  0.00  0.00    +0.000 OA
ATOM     17  O   UNL     1       2.478   9.995  17.473  0.00  0.00    +0.000 OA
BRANCH  15  18
ATOM     18  N   UNL     1       0.007   9.788  17.678  0.00  0.00    +0.000 N 
ATOM     19  H   UNL     1      -0.208   8.982  17.094  0.00  0.00    +0.000 HD
BRANCH  18  20
ATOM     20  C   UNL     1      -1.061  10.628  18.089  0.00  0.00    +0.000 A 
ATOM     21  C   UNL     1      -0.888  11.321  19.294  0.00  0.00    +0.000 A 
ATOM     22  C   UNL     1      -1.931  12.059  19.854  0.00  0.00    +0.000 A 
ATOM     23  C   UNL     1      -3.163  12.099  19.211  0.00  0.00    +0.000 A 
ATOM     24  C   UNL     1      -3.332  11.419  18.007  0.00  0.00    +0.000 A 
ATOM     25  F   UNL     1      -4.539  11.469  17.425  0.00  0.00    +0.000 F 
ATOM     26  C   UNL     1      -2.296  10.673  17.422  0.00  0.00    +0.000 A 
ATOM     27  C   UNL     1      -2.565   9.958  16.129  0.00  0.00    +0.000 C 
ENDBRANCH  18  20
ENDBRANCH  15  18
ENDBRANCH   4  15
BRANCH   1  29
ATOM     28  C   UNL     1       2.273   3.515  21.226  0.00  0.00    +0.000 C 
ATOM     29  O   UNL     1       3.162   4.418  20.566  0.00  0.00    +0.000 OA
ENDBRANCH   1  29
TORSDOF 5
ENDMDL
MODEL 8
REMARK VINA RESULT:      -7.1      3.685      8.492
REMARK  Name = 
REMARK  7 active torsions:
REMARK  status: ('A' for Active; 'I' for Inactive)
REMARK    1  A    between atoms: C_1  and  O_2
REMARK    2  A    between atoms: O_2  and  C_3
REMARK    3  A    between atoms: C_6  and  S_7
REMARK    4  A    between atoms: S_7  and  N_10
REMARK    5  A    between atoms: N_10  and  C_11
REMARK    6  A    between atoms: C_17  and  C_18
REMARK    7  A    between atoms: C_20  and  C_21
REMARK                            x       y       z     vdW  Elec       q    Type
REMARK                         _______ _______ _______ _____ _____    ______ ____
ROOT
ATOM      1  C   UNL     1       2.693   7.209  18.251  0.00  0.00    +0.000 A 
ATOM      2  C   UNL     1       2.613   8.538  17.793  0.00  0.00    +0.000 A 
ATOM      3  C   UNL     1       2.007   9.533  18.548  0.00  0.00    +0.000 A 
ATOM      4  C   UNL     1       1.460   9.218  19.786  0.00  0.00    +0.000 A 
ATOM      5  C   UNL     1       1.577   7.907  20.291  0.00  0.00    +0.000 A 
ATOM      6  C   UNL     1       2.221   6.878  19.538  0.00  0.00    +0.000 A 
ENDROOT
BRANCH   6   7
ATOM      7  C   UNL     1       2.172   5.486  20.127  0.00  0.00    +0.000 C 
ATOM      8  O   UNL     1       1.084   5.154  20.609  0.00  0.00    +0.000 OA
ATOM      9  N   UNL     1       3.252   4.595  20.170  0.00  0.00    +0.000 N 
ATOM     10  C   UNL     1       4.667   4.836  19.875  0.00  0.00    +0.000 C 
ATOM     11  C   UNL     1       5.170   3.789  18.865  0.00  0.00    +0.000 C 
ATOM     12  O   UNL     1       5.010   2.461  19.400  0.00  0.00    +0.000 OA
ATOM     13  C   UNL     1       3.625   2.190  19.688  0.00  0.00    +0.000 C 
ATOM     14  C   UNL     1       3.038   3.224  20.664  0.00  0.00    +0.000 C 
ENDBRANCH   6   7
BRANCH   4  15
ATOM     15  S   UNL     1       0.354  10.424  20.500  0.00  0.00    +0.000 S 
ATOM     16  O   UNL     1      -0.720   9.697  21.134  0.00  0.00    +0.000 OA
ATOM     17  O   UNL     1       1.165  11.359  21.262  0.00  0.00    +0.000 OA
BRANCH  15  18
ATOM     18  N   UNL     1      -0.276  11.319  19.233  0.00  0.00    +0.000 N 
ATOM     19  H   UNL     1       0.423  11.840  18.705  0.00  0.00    +0.000 HD
BRANCH  18  20
ATOM     20  C   UNL     1      -1.527  11.054  18.619  0.00  0.00    +0.000 A 
ATOM     21  C   UNL     1      -1.523  10.155  17.545  0.00  0.00    +0.000 A 
ATOM     22  C   UNL     1      -2.673   9.937  16.787  0.00  0.00    +0.000 A 
ATOM     23  C   UNL     1      -3.838  10.629  17.096  0.00  0.00    +0.000 A 
ATOM     24  C   UNL     1      -3.846  11.515  18.171  0.00  0.00    +0.000 A 
ATOM     25  F   UNL     1      -4.985  12.175  18.430  0.00  0.00    +0.000 F 
ATOM     26  C   UNL     1      -2.702  11.748  18.951  0.00  0.00    +0.000 A 
ATOM     27  C   UNL     1      -2.792  12.729  20.085  0.00  0.00    +0.000 C 
ENDBRANCH  18  20
ENDBRANCH  15  18
ENDBRANCH   4  15
BRANCH   1  29
ATOM     28  C   UNL     1       4.334   6.457  16.715  0.00  0.00    +0.000 C 
ATOM     29  O   UNL     1       3.104   6.212  17.401  0.00  0.00    +0.000 OA
ENDBRANCH   1  29
TORSDOF 5
ENDMDL
MODEL 9
REMARK VINA RESULT:      -7.1      3.682      8.248
REMARK  Name = 
REMARK  7 active torsions:
REMARK  status: ('A' for Active; 'I' for Inactive)
REMARK    1  A    between atoms: C_1  and  O_2
REMARK    2  A    between atoms: O_2  and  C_3
REMARK    3  A    between atoms: C_6  and  S_7
REMARK    4  A    between atoms: S_7  and  N_10
REMARK    5  A    between atoms: N_10  and  C_11
REMARK    6  A    between atoms: C_17  and  C_18
REMARK    7  A    between atoms: C_20  and  C_21
REMARK                            x       y       z     vdW  Elec       q    Type
REMARK                         _______ _______ _______ _____ _____    ______ ____
ROOT
ATOM      1  C   UNL     1       3.132   4.180  19.718  0.00  0.00    +0.000 A 
ATOM      2  C   UNL     1       1.807   4.242  20.190  0.00  0.00    +0.000 A 
ATOM      3  C   UNL     1       1.178   5.455  20.437  0.00  0.00    +0.000 A 
ATOM      4  C   UNL     1       1.866   6.642  20.218  0.00  0.00    +0.000 A 
ATOM      5  C   UNL     1       3.174   6.608  19.691  0.00  0.00    +0.000 A 
ATOM      6  C   UNL     1       3.825   5.368  19.408  0.00  0.00    +0.000 A 
ENDROOT
BRANCH   6   7
ATOM      7  C   UNL     1       5.270   5.456  18.968  0.00  0.00    +0.000 C 
ATOM      8  O   UNL     1       6.105   5.208  19.844  0.00  0.00    +0.000 OA
ATOM      9  N   UNL     1       5.696   5.803  17.679  0.00  0.00    +0.000 N 
ATOM     10  C   UNL     1       4.922   6.346  16.561  0.00  0.00    +0.000 C 
ATOM     11  C   UNL     1       5.170   5.496  15.301  0.00  0.00    +0.000 C 
ATOM     12  O   UNL     1       6.570   5.500  14.963  0.00  0.00    +0.000 OA
ATOM     13  C   UNL     1       7.357   4.959  16.041  0.00  0.00    +0.000 C 
ATOM     14  C   UNL     1       7.130   5.734  17.350  0.00  0.00    +0.000 C 
ENDBRANCH   6   7
BRANCH   4  15
ATOM     15  S   UNL     1       1.161   8.118  20.934  0.00  0.00    +0.000 S 
ATOM     16  O   UNL     1      -0.213   7.819  21.260  0.00  0.00    +0.000 OA
ATOM     17  O   UNL     1       2.081   8.584  21.958  0.00  0.00    +0.000 OA
BRANCH  15  18
ATOM     18  N   UNL     1       1.189   9.297  19.747  0.00  0.00    +0.000 N 
ATOM     19  H   UNL     1       1.986   9.233  19.115  0.00  0.00    +0.000 HD
BRANCH  18  20
ATOM     20  C   UNL     1       0.045  10.019  19.318  0.00  0.00    +0.000 A 
ATOM     21  C   UNL     1      -0.498   9.658  18.078  0.00  0.00    +0.000 A 
ATOM     22  C   UNL     1      -1.532  10.398  17.505  0.00  0.00    +0.000 A 
ATOM     23  C   UNL     1      -2.025  11.515  18.169  0.00  0.00    +0.000 A 
ATOM     24  C   UNL     1      -1.493  11.868  19.407  0.00  0.00    +0.000 A 
ATOM     25  F   UNL     1      -1.985  12.960  20.011  0.00  0.00    +0.000 F 
ATOM     26  C   UNL     1      -0.455  11.136  20.006  0.00  0.00    +0.000 A 
ATOM     27  C   UNL     1       0.071  11.592  21.337  0.00  0.00    +0.000 C 
ENDBRANCH  18  20
ENDBRANCH  15  18
ENDBRANCH   4  15
BRANCH   1  29
ATOM     28  C   UNL     1       3.252   1.999  18.797  0.00  0.00    +0.000 C 
ATOM     29  O   UNL     1       3.795   2.978  19.686  0.00  0.00    +0.000 OA
ENDBRANCH   1  29
TORSDOF 5
ENDMDL
