MODEL 1
REMARK VINA RESULT:      -8.8      0.000      0.000
REMARK  Name = 
REMARK  5 active torsions:
REMARK  status: ('A' for Active; 'I' for Inactive)
REMARK    1  A    between atoms: C_2  and  C_3
REMARK    2  A    between atoms: C_3  and  C_4
REMARK    3  A    between atoms: N_6  and  C_7
REMARK    4  A    between atoms: N_16  and  C_17
REMARK    5  A    between atoms: C_22  and  C_23
REMARK                            x       y       z     vdW  Elec       q    Type
REMARK                         _______ _______ _______ _____ _____    ______ ____
ROOT
ATOM      1  O   UNL     1       6.939   8.258  17.190  0.00  0.00    +0.000 OA
ATOM      2  C   UNL     1       7.800   7.841  17.965  0.00  0.00    +0.000 C 
ATOM      3  N   UNL     1       8.731   8.631  18.609  0.00  0.00    +0.000 N 
ATOM      4  H   UNL     1       9.475   8.132  19.103  0.00  0.00    +0.000 HD
ENDROOT
BRANCH   3   5
ATOM      5  C   UNL     1       8.864  10.029  18.571  0.00  0.00    +0.000 A 
ATOM      6  C   UNL     1       8.223  10.838  17.642  0.00  0.00    +0.000 A 
ATOM      7  C   UNL     1       8.433  12.218  17.654  0.00  0.00    +0.000 A 
ATOM      8  C   UNL     1       9.287  12.810  18.591  0.00  0.00    +0.000 A 
ATOM      9 CL   UNL     1       9.492  14.518  18.470  0.00  0.00    +0.000 Cl
ATOM     10  C   UNL     1       9.925  12.024  19.555  0.00  0.00    +0.000 A 
ATOM     11  C   UNL     1       9.686  10.628  19.537  0.00  0.00    +0.000 A 
BRANCH  10  12
ATOM     12  C   UNL     1      10.853  12.554  20.617  0.00  0.00    +0.000 C 
ATOM     13  F   UNL     1      11.271  13.838  20.477  0.00  0.00    +0.000 F 
ATOM     14  F   UNL     1      10.289  12.489  21.858  0.00  0.00    +0.000 F 
ATOM     15  F   UNL     1      11.996  11.812  20.704  0.00  0.00    +0.000 F 
ENDBRANCH  10  12
ENDBRANCH   3   5
BRANCH   2  16
ATOM     16  C   UNL     1       7.875   6.341  18.231  0.00  0.00    +0.000 C 
BRANCH  16  17
ATOM     17  C   UNL     1       6.656   5.672  18.814  0.00  0.00    +0.000 C 
ATOM     18  O   UNL     1       6.686   5.160  19.933  0.00  0.00    +0.000 OA
ATOM     19  N   UNL     1       5.551   5.656  17.975  0.00  0.00    +0.000 N 
ATOM     20  H   UNL     1       5.702   5.832  16.988  0.00  0.00    +0.000 HD
BRANCH  19  21
ATOM     21  C   UNL     1       4.284   5.150  18.352  0.00  0.00    +0.000 A 
ATOM     22  C   UNL     1       3.437   5.848  19.224  0.00  0.00    +0.000 A 
ATOM     23  C   UNL     1       2.226   5.311  19.671  0.00  0.00    +0.000 A 
ATOM     24  C   UNL     1       1.855   4.043  19.214  0.00  0.00    +0.000 A 
ATOM     25  C   UNL     1       0.776   3.161  19.444  0.00  0.00    +0.000 A 
ATOM     26  N   UNL     1       0.880   2.029  18.740  0.00  0.00    +0.000 NA
ATOM     27  N   UNL     1       2.031   2.188  18.063  0.00  0.00    +0.000 N 
ATOM     28  C   UNL     1       2.672   3.376  18.307  0.00  0.00    +0.000 A 
ATOM     29  C   UNL     1       3.882   3.907  17.836  0.00  0.00    +0.000 A 
ATOM     30  H   UNL     1       2.332   1.436  17.454  0.00  0.00    +0.000 HD
ENDBRANCH  19  21
ENDBRANCH  16  17
ENDBRANCH   2  16
TORSDOF 5
ENDMDL
MODEL 2
REMARK VINA RESULT:      -8.8      5.611     10.014
REMARK  Name = 
REMARK  5 active torsions:
REMARK  status: ('A' for Active; 'I' for Inactive)
REMARK    1  A    between atoms: C_2  and  C_3
REMARK    2  A    between atoms: C_3  and  C_4
REMARK    3  A    between atoms: N_6  and  C_7
REMARK    4  A    between atoms: N_16  and  C_17
REMARK    5  A    between atoms: C_22  and  C_23
REMARK                            x       y       z     vdW  Elec       q    Type
REMARK                         _______ _______ _______ _____ _____    ______ ____
ROOT
ATOM      1  O   UNL     1       7.185   5.294  19.799  0.00  0.00    +0.000 OA
ATOM      2  C   UNL     1       6.932   5.925  18.772  0.00  0.00    +0.000 C 
ATOM      3  N   UNL     1       5.684   6.016  18.191  0.00  0.00    +0.000 N 
ATOM      4  H   UNL     1       5.654   6.447  17.263  0.00  0.00    +0.000 HD
ENDROOT
BRANCH   3   5
ATOM      5  C   UNL     1       4.468   5.483  18.648  0.00  0.00    +0.000 A 
ATOM      6  C   UNL     1       3.551   6.199  19.407  0.00  0.00    +0.000 A 
ATOM      7  C   UNL     1       2.376   5.586  19.847  0.00  0.00    +0.000 A 
ATOM      8  C   UNL     1       2.102   4.248  19.540  0.00  0.00    +0.000 A 
ATOM      9 CL   UNL     1       0.639   3.598  20.181  0.00  0.00    +0.000 Cl
ATOM     10  C   UNL     1       2.994   3.511  18.756  0.00  0.00    +0.000 A 
ATOM     11  C   UNL     1       4.171   4.156  18.304  0.00  0.00    +0.000 A 
BRANCH  10  12
ATOM     12  C   UNL     1       2.795   2.072  18.353  0.00  0.00    +0.000 C 
ATOM     13  F   UNL     1       2.517   1.193  19.350  0.00  0.00    +0.000 F 
ATOM     14  F   UNL     1       1.778   1.936  17.454  0.00  0.00    +0.000 F 
ATOM     15  F   UNL     1       3.898   1.567  17.727  0.00  0.00    +0.000 F 
ENDBRANCH  10  12
ENDBRANCH   3   5
BRANCH   2  16
ATOM     16  C   UNL     1       8.072   6.648  18.063  0.00  0.00    +0.000 C 
BRANCH  16  17
ATOM     17  C   UNL     1       8.055   8.156  18.069  0.00  0.00    +0.000 C 
ATOM     18  O   UNL     1       7.275   8.785  17.355  0.00  0.00    +0.000 OA
ATOM     19  N   UNL     1       9.002   8.739  18.897  0.00  0.00    +0.000 N 
ATOM     20  H   UNL     1       9.776   8.165  19.211  0.00  0.00    +0.000 HD
BRANCH  19  21
ATOM     21  C   UNL     1       9.107  10.135  19.112  0.00  0.00    +0.000 A 
ATOM     22  C   UNL     1       9.263  10.677  20.395  0.00  0.00    +0.000 A 
ATOM     23  C   UNL     1       9.275  12.057  20.621  0.00  0.00    +0.000 A 
ATOM     24  C   UNL     1       9.140  12.909  19.521  0.00  0.00    +0.000 A 
ATOM     25  C   UNL     1       9.066  14.307  19.328  0.00  0.00    +0.000 A 
ATOM     26  N   UNL     1       8.940  14.640  18.039  0.00  0.00    +0.000 NA
ATOM     27  N   UNL     1       8.929  13.451  17.410  0.00  0.00    +0.000 N 
ATOM     28  C   UNL     1       9.040  12.368  18.243  0.00  0.00    +0.000 A 
ATOM     29  C   UNL     1       9.043  10.987  17.998  0.00  0.00    +0.000 A 
ATOM     30  H   UNL     1       8.830  13.449  16.401  0.00  0.00    +0.000 HD
ENDBRANCH  19  21
ENDBRANCH  16  17
ENDBRANCH   2  16
TORSDOF 5
ENDMDL
MODEL 3
REMARK VINA RESULT:      -8.7      8.008     10.112
REMARK  Name = 
REMARK  5 active torsions:
REMARK  status: ('A' for Active; 'I' for Inactive)
REMARK    1  A    between atoms: C_2  and  C_3
REMARK    2  A    between atoms: C_3  and  C_4
REMARK    3  A    between atoms: N_6  and  C_7
REMARK    4  A    between atoms: N_16  and  C_17
REMARK    5  A    between atoms: C_22  and  C_23
REMARK                            x       y       z     vdW  Elec       q    Type
REMARK                         _______ _______ _______ _____ _____    ______ ____
ROOT
ATOM      1  O   UNL     1       2.012   7.779  19.657  0.00  0.00    +0.000 OA
ATOM      2  C   UNL     1       2.329   8.023  18.492  0.00  0.00    +0.000 C 
ATOM      3  N   UNL     1       2.860   7.103  17.611  0.00  0.00    +0.000 N 
ATOM      4  H   UNL     1       3.214   7.482  16.729  0.00  0.00    +0.000 HD
ENDROOT
BRANCH   3   5
ATOM      5  C   UNL     1       3.093   5.733  17.815  0.00  0.00    +0.000 A 
ATOM      6  C   UNL     1       4.210   5.063  17.332  0.00  0.00    +0.000 A 
ATOM      7  C   UNL     1       4.353   3.692  17.553  0.00  0.00    +0.000 A 
ATOM      8  C   UNL     1       3.381   2.969  18.256  0.00  0.00    +0.000 A 
ATOM      9 CL   UNL     1       3.656   1.275  18.421  0.00  0.00    +0.000 Cl
ATOM     10  C   UNL     1       2.260   3.622  18.775  0.00  0.00    +0.000 A 
ATOM     11  C   UNL     1       2.142   5.016  18.555  0.00  0.00    +0.000 A 
BRANCH  10  12
ATOM     12  C   UNL     1       1.161   2.949  19.556  0.00  0.00    +0.000 C 
ATOM     13  F   UNL     1       1.545   2.085  20.530  0.00  0.00    +0.000 F 
ATOM     14  F   UNL     1       0.353   3.858  20.175  0.00  0.00    +0.000 F 
ATOM     15  F   UNL     1       0.333   2.228  18.743  0.00  0.00    +0.000 F 
ENDBRANCH  10  12
ENDBRANCH   3   5
BRANCH   2  16
ATOM     16  C   UNL     1       2.151   9.446  17.972  0.00  0.00    +0.000 C 
BRANCH  16  17
ATOM     17  C   UNL     1       0.956  10.225  18.459  0.00  0.00    +0.000 C 
ATOM     18  O   UNL     1       1.042  10.983  19.425  0.00  0.00    +0.000 OA
ATOM     19  N   UNL     1      -0.216   9.977  17.761  0.00  0.00    +0.000 N 
ATOM     20  H   UNL     1      -0.260   9.141  17.189  0.00  0.00    +0.000 HD
BRANCH  19  21
ATOM     21  C   UNL     1      -1.434  10.658  18.001  0.00  0.00    +0.000 A 
ATOM     22  C   UNL     1      -1.656  11.387  19.177  0.00  0.00    +0.000 A 
ATOM     23  C   UNL     1      -2.889  11.985  19.459  0.00  0.00    +0.000 A 
ATOM     24  C   UNL     1      -3.918  11.854  18.521  0.00  0.00    +0.000 A 
ATOM     25  C   UNL     1      -5.269  12.256  18.440  0.00  0.00    +0.000 A 
ATOM     26  N   UNL     1      -5.848  11.880  17.295  0.00  0.00    +0.000 NA
ATOM     27  N   UNL     1      -4.864  11.234  16.646  0.00  0.00    +0.000 N 
ATOM     28  C   UNL     1      -3.677  11.176  17.330  0.00  0.00    +0.000 A 
ATOM     29  C   UNL     1      -2.442  10.584  17.025  0.00  0.00    +0.000 A 
ATOM     30  H   UNL     1      -5.074  10.841  15.736  0.00  0.00    +0.000 HD
ENDBRANCH  19  21
ENDBRANCH  16  17
ENDBRANCH   2  16
TORSDOF 5
ENDMDL
MODEL 4
REMARK VINA RESULT:      -8.6      8.077     10.072
REMARK  Name = 
REMARK  5 active torsions:
REMARK  status: ('A' for Active; 'I' for Inactive)
REMARK    1  A    between atoms: C_2  and  C_3
REMARK    2  A    between atoms: C_3  and  C_4
REMARK    3  A    between atoms: N_6  and  C_7
REMARK    4  A    between atoms: N_16  and  C_17
REMARK    5  A    between atoms: C_22  and  C_23
REMARK                            x       y       z     vdW  Elec       q    Type
REMARK                         _______ _______ _______ _____ _____    ______ ____
ROOT
ATOM      1  O   UNL     1       2.860   7.921  16.912  0.00  0.00    +0.000 OA
ATOM      2  C   UNL     1       2.469   8.305  18.015  0.00  0.00    +0.000 C 
ATOM      3  N   UNL     1       2.486   7.543  19.166  0.00  0.00    +0.000 N 
ATOM      4  H   UNL     1       1.994   7.938  19.971  0.00  0.00    +0.000 HD
ENDROOT
BRANCH   3   5
ATOM      5  C   UNL     1       2.983   6.241  19.343  0.00  0.00    +0.000 A 
ATOM      6  C   UNL     1       4.305   5.884  19.111  0.00  0.00    +0.000 A 
ATOM      7  C   UNL     1       4.712   4.559  19.282  0.00  0.00    +0.000 A 
ATOM      8  C   UNL     1       3.804   3.572  19.685  0.00  0.00    +0.000 A 
ATOM      9 CL   UNL     1       4.425   1.969  19.817  0.00  0.00    +0.000 Cl
ATOM     10  C   UNL     1       2.474   3.908  19.951  0.00  0.00    +0.000 A 
ATOM     11  C   UNL     1       2.085   5.259  19.787  0.00  0.00    +0.000 A 
BRANCH  10  12
ATOM     12  C   UNL     1       1.417   2.932  20.401  0.00  0.00    +0.000 C 
ATOM     13  F   UNL     1       1.545   2.430  21.656  0.00  0.00    +0.000 F 
ATOM     14  F   UNL     1       0.170   3.484  20.356  0.00  0.00    +0.000 F 
ATOM     15  F   UNL     1       1.357   1.841  19.582  0.00  0.00    +0.000 F 
ENDBRANCH  10  12
ENDBRANCH   3   5
BRANCH   2  16
ATOM     16  C   UNL     1       1.900   9.714  18.136  0.00  0.00    +0.000 C 
BRANCH  16  17
ATOM     17  C   UNL     1       0.486   9.858  18.640  0.00  0.00    +0.000 C 
ATOM     18  O   UNL     1       0.165   9.449  19.756  0.00  0.00    +0.000 OA
ATOM     19  N   UNL     1      -0.392  10.437  17.736  0.00  0.00    +0.000 N 
ATOM     20  H   UNL     1      -0.116  10.471  16.762  0.00  0.00    +0.000 HD
BRANCH  19  21
ATOM     21  C   UNL     1      -1.744  10.737  18.034  0.00  0.00    +0.000 A 
ATOM     22  C   UNL     1      -2.804  10.015  17.470  0.00  0.00    +0.000 A 
ATOM     23  C   UNL     1      -4.140  10.365  17.689  0.00  0.00    +0.000 A 
ATOM     24  C   UNL     1      -4.410  11.464  18.510  0.00  0.00    +0.000 A 
ATOM     25  C   UNL     1      -5.571  12.144  18.939  0.00  0.00    +0.000 A 
ATOM     26  N   UNL     1      -5.294  13.168  19.753  0.00  0.00    +0.000 NA
ATOM     27  N   UNL     1      -3.953  13.142  19.840  0.00  0.00    +0.000 N 
ATOM     28  C   UNL     1      -3.357  12.144  19.112  0.00  0.00    +0.000 A 
ATOM     29  C   UNL     1      -2.012  11.796  18.915  0.00  0.00    +0.000 A 
ATOM     30  H   UNL     1      -3.500  13.848  20.410  0.00  0.00    +0.000 HD
ENDBRANCH  19  21
ENDBRANCH  16  17
ENDBRANCH   2  16
TORSDOF 5
ENDMDL
MODEL 5
REMARK VINA RESULT:      -8.5      1.471      1.914
REMARK  Name = 
REMARK  5 active torsions:
REMARK  status: ('A' for Active; 'I' for Inactive)
REMARK    1  A    between atoms: C_2  and  C_3
REMARK    2  A    between atoms: C_3  and  C_4
REMARK    3  A    between atoms: N_6  and  C_7
REMARK    4  A    between atoms: N_16  and  C_17
REMARK    5  A    between atoms: C_22  and  C_23
REMARK                            x       y       z     vdW  Elec       q    Type
REMARK                         _______ _______ _______ _____ _____    ______ ____
ROOT
ATOM      1  O   UNL     1       7.168   9.184  17.582  0.00  0.00    +0.000 OA
ATOM      2  C   UNL     1       8.010   8.449  18.097  0.00  0.00    +0.000 C 
ATOM      3  N   UNL     1       9.035   8.877  18.916  0.00  0.00    +0.000 N 
ATOM      4  H   UNL     1       9.744   8.177  19.148  0.00  0.00    +0.000 HD
ENDROOT
BRANCH   3   5
ATOM      5  C   UNL     1       9.303  10.179  19.370  0.00  0.00    +0.000 A 
ATOM      6  C   UNL     1       9.048  10.610  20.666  0.00  0.00    +0.000 A 
ATOM      7  C   UNL     1       9.316  11.931  21.029  0.00  0.00    +0.000 A 
ATOM      8  C   UNL     1       9.839  12.842  20.103  0.00  0.00    +0.000 A 
ATOM      9 CL   UNL     1      10.083  14.453  20.668  0.00  0.00    +0.000 Cl
ATOM     10  C   UNL     1      10.130  12.430  18.800  0.00  0.00    +0.000 A 
ATOM     11  C   UNL     1       9.867  11.082  18.456  0.00  0.00    +0.000 A 
BRANCH  10  12
ATOM     12  C   UNL     1      10.705  13.319  17.728  0.00  0.00    +0.000 C 
ATOM     13  F   UNL     1      10.950  12.742  16.523  0.00  0.00    +0.000 F 
ATOM     14  F   UNL     1       9.891  14.381  17.463  0.00  0.00    +0.000 F 
ATOM     15  F   UNL     1      11.895  13.866  18.112  0.00  0.00    +0.000 F 
ENDBRANCH  10  12
ENDBRANCH   3   5
BRANCH   2  16
ATOM     16  C   UNL     1       7.947   6.953  17.806  0.00  0.00    +0.000 C 
BRANCH  16  17
ATOM     17  C   UNL     1       6.794   6.175  18.389  0.00  0.00    +0.000 C 
ATOM     18  O   UNL     1       6.932   5.509  19.415  0.00  0.00    +0.000 OA
ATOM     19  N   UNL     1       5.620   6.249  17.655  0.00  0.00    +0.000 N 
ATOM     20  H   UNL     1       5.679   6.569  16.696  0.00  0.00    +0.000 HD
BRANCH  19  21
ATOM     21  C   UNL     1       4.398   5.660  18.064  0.00  0.00    +0.000 A 
ATOM     22  C   UNL     1       3.529   6.301  18.957  0.00  0.00    +0.000 A 
ATOM     23  C   UNL     1       2.367   5.685  19.434  0.00  0.00    +0.000 A 
ATOM     24  C   UNL     1       2.071   4.394  18.985  0.00  0.00    +0.000 A 
ATOM     25  C   UNL     1       1.058   3.444  19.240  0.00  0.00    +0.000 A 
ATOM     26  N   UNL     1       1.221   2.320  18.533  0.00  0.00    +0.000 NA
ATOM     27  N   UNL     1       2.341   2.555  17.828  0.00  0.00    +0.000 N 
ATOM     28  C   UNL     1       2.908   3.783  18.057  0.00  0.00    +0.000 A 
ATOM     29  C   UNL     1       4.068   4.393  17.557  0.00  0.00    +0.000 A 
ATOM     30  H   UNL     1       2.677   1.824  17.212  0.00  0.00    +0.000 HD
ENDBRANCH  19  21
ENDBRANCH  16  17
ENDBRANCH   2  16
TORSDOF 5
ENDMDL
MODEL 6
REMARK VINA RESULT:      -8.5      5.439     10.199
REMARK  Name = 
REMARK  5 active torsions:
REMARK  status: ('A' for Active; 'I' for Inactive)
REMARK    1  A    between atoms: C_2  and  C_3
REMARK    2  A    between atoms: C_3  and  C_4
REMARK    3  A    between atoms: N_6  and  C_7
REMARK    4  A    between atoms: N_16  and  C_17
REMARK    5  A    between atoms: C_22  and  C_23
REMARK                            x       y       z     vdW  Elec       q    Type
REMARK                         _______ _______ _______ _____ _____    ______ ____
ROOT
ATOM      1  O   UNL     1       5.348   6.721  17.923  0.00  0.00    +0.000 OA
ATOM      2  C   UNL     1       6.200   5.887  18.232  0.00  0.00    +0.000 C 
ATOM      3  N   UNL     1       5.935   4.573  18.560  0.00  0.00    +0.000 N 
ATOM      4  H   UNL     1       6.721   4.040  18.939  0.00  0.00    +0.000 HD
ENDROOT
BRANCH   3   5
ATOM      5  C   UNL     1       4.699   3.907  18.562  0.00  0.00    +0.000 A 
ATOM      6  C   UNL     1       4.133   3.332  17.430  0.00  0.00    +0.000 A 
ATOM      7  C   UNL     1       2.884   2.713  17.510  0.00  0.00    +0.000 A 
ATOM      8  C   UNL     1       2.180   2.662  18.719  0.00  0.00    +0.000 A 
ATOM      9 CL   UNL     1       0.630   1.907  18.672  0.00  0.00    +0.000 Cl
ATOM     10  C   UNL     1       2.736   3.208  19.879  0.00  0.00    +0.000 A 
ATOM     11  C   UNL     1       4.011   3.817  19.781  0.00  0.00    +0.000 A 
BRANCH  10  12
ATOM     12  C   UNL     1       2.076   3.199  21.233  0.00  0.00    +0.000 C 
ATOM     13  F   UNL     1       0.725   3.067  21.252  0.00  0.00    +0.000 F 
ATOM     14  F   UNL     1       2.550   2.189  22.018  0.00  0.00    +0.000 F 
ATOM     15  F   UNL     1       2.334   4.345  21.928  0.00  0.00    +0.000 F 
ENDBRANCH  10  12
ENDBRANCH   3   5
BRANCH   2  16
ATOM     16  C   UNL     1       7.661   6.323  18.282  0.00  0.00    +0.000 C 
BRANCH  16  17
ATOM     17  C   UNL     1       7.971   7.766  17.976  0.00  0.00    +0.000 C 
ATOM     18  O   UNL     1       7.667   8.266  16.893  0.00  0.00    +0.000 OA
ATOM     19  N   UNL     1       8.648   8.437  18.984  0.00  0.00    +0.000 N 
ATOM     20  H   UNL     1       9.106   7.882  19.698  0.00  0.00    +0.000 HD
BRANCH  19  21
ATOM     21  C   UNL     1       8.967   9.816  18.936  0.00  0.00    +0.000 A 
ATOM     22  C   UNL     1       8.561  10.633  17.873  0.00  0.00    +0.000 A 
ATOM     23  C   UNL     1       8.950  11.973  17.776  0.00  0.00    +0.000 A 
ATOM     24  C   UNL     1       9.758  12.502  18.787  0.00  0.00    +0.000 A 
ATOM     25  C   UNL     1      10.377  13.746  19.038  0.00  0.00    +0.000 A 
ATOM     26  N   UNL     1      11.065  13.754  20.185  0.00  0.00    +0.000 NA
ATOM     27  N   UNL     1      10.885  12.510  20.664  0.00  0.00    +0.000 N 
ATOM     28  C   UNL     1      10.113  11.703  19.868  0.00  0.00    +0.000 A 
ATOM     29  C   UNL     1       9.718  10.362  19.989  0.00  0.00    +0.000 A 
ATOM     30  H   UNL     1      11.332  12.270  21.542  0.00  0.00    +0.000 HD
ENDBRANCH  19  21
ENDBRANCH  16  17
ENDBRANCH   2  16
TORSDOF 5
ENDMDL
MODEL 7
REMARK VINA RESULT:      -8.4      7.770      9.907
REMARK  Name = 
REMARK  5 active torsions:
REMARK  status: ('A' for Active; 'I' for Inactive)
REMARK    1  A    between atoms: C_2  and  C_3
REMARK    2  A    between atoms: C_3  and  C_4
REMARK    3  A    between atoms: N_6  and  C_7
REMARK    4  A    between atoms: N_16  and  C_17
REMARK    5  A    between atoms: C_22  and  C_23
REMARK                            x       y       z     vdW  Elec       q    Type
REMARK                         _______ _______ _______ _____ _____    ______ ____
ROOT
ATOM      1  O   UNL     1       3.620   8.000  17.052  0.00  0.00    +0.000 OA
ATOM      2  C   UNL     1       2.763   8.154  17.922  0.00  0.00    +0.000 C 
ATOM      3  N   UNL     1       2.217   7.137  18.679  0.00  0.00    +0.000 N 
ATOM      4  H   UNL     1       1.411   7.393  19.256  0.00  0.00    +0.000 HD
ENDROOT
BRANCH   3   5
ATOM      5  C   UNL     1       2.539   5.770  18.665  0.00  0.00    +0.000 A 
ATOM      6  C   UNL     1       3.009   5.101  17.542  0.00  0.00    +0.000 A 
ATOM      7  C   UNL     1       3.278   3.733  17.605  0.00  0.00    +0.000 A 
ATOM      8  C   UNL     1       3.078   3.011  18.788  0.00  0.00    +0.000 A 
ATOM      9 CL   UNL     1       3.407   1.320  18.719  0.00  0.00    +0.000 Cl
ATOM     10  C   UNL     1       2.631   3.663  19.941  0.00  0.00    +0.000 A 
ATOM     11  C   UNL     1       2.380   5.055  19.861  0.00  0.00    +0.000 A 
BRANCH  10  12
ATOM     12  C   UNL     1       2.395   2.991  21.269  0.00  0.00    +0.000 C 
ATOM     13  F   UNL     1       1.301   2.193  21.362  0.00  0.00    +0.000 F 
ATOM     14  F   UNL     1       3.450   2.206  21.631  0.00  0.00    +0.000 F 
ATOM     15  F   UNL     1       2.261   3.902  22.278  0.00  0.00    +0.000 F 
ENDBRANCH  10  12
ENDBRANCH   3   5
BRANCH   2  16
ATOM     16  C   UNL     1       2.239   9.562  18.187  0.00  0.00    +0.000 C 
BRANCH  16  17
ATOM     17  C   UNL     1       0.809   9.701  18.644  0.00  0.00    +0.000 C 
ATOM     18  O   UNL     1       0.457   9.314  19.758  0.00  0.00    +0.000 OA
ATOM     19  N   UNL     1      -0.047  10.250  17.700  0.00  0.00    +0.000 N 
ATOM     20  H   UNL     1       0.260  10.264  16.734  0.00  0.00    +0.000 HD
BRANCH  19  21
ATOM     21  C   UNL     1      -1.410  10.542  17.948  0.00  0.00    +0.000 A 
ATOM     22  C   UNL     1      -2.445   9.828  17.330  0.00  0.00    +0.000 A 
ATOM     23  C   UNL     1      -3.790  10.172  17.501  0.00  0.00    +0.000 A 
ATOM     24  C   UNL     1      -4.095  11.255  18.331  0.00  0.00    +0.000 A 
ATOM     25  C   UNL     1      -5.274  11.925  18.725  0.00  0.00    +0.000 A 
ATOM     26  N   UNL     1      -5.033  12.935  19.567  0.00  0.00    +0.000 NA
ATOM     27  N   UNL     1      -3.696  12.910  19.708  0.00  0.00    +0.000 N 
ATOM     28  C   UNL     1      -3.068  11.927  18.986  0.00  0.00    +0.000 A 
ATOM     29  C   UNL     1      -1.716  11.585  18.837  0.00  0.00    +0.000 A 
ATOM     30  H   UNL     1      -3.268  13.606  20.308  0.00  0.00    +0.000 HD
ENDBRANCH  19  21
ENDBRANCH  16  17
ENDBRANCH   2  16
TORSDOF 5
ENDMDL
MODEL 8
REMARK VINA RESULT:      -8.4      8.047     10.154
REMARK  Name = 
REMARK  5 active torsions:
REMARK  status: ('A' for Active; 'I' for Inactive)
REMARK    1  A    between atoms: C_2  and  C_3
REMARK    2  A    between atoms: C_3  and  C_4
REMARK    3  A    between atoms: N_6  and  C_7
REMARK    4  A    between atoms: N_16  and  C_17
REMARK    5  A    between atoms: C_22  and  C_23
REMARK                            x       y       z     vdW  Elec       q    Type
REMARK                         _______ _______ _______ _____ _____    ______ ____
ROOT
ATOM      1  O   UNL     1       1.975   8.044  19.970  0.00  0.00    +0.000 OA
ATOM      2  C   UNL     1       2.178   8.024  18.756  0.00  0.00    +0.000 C 
ATOM      3  N   UNL     1       2.807   6.998  18.079  0.00  0.00    +0.000 N 
ATOM      4  H   UNL     1       3.039   7.185  17.100  0.00  0.00    +0.000 HD
ENDROOT
BRANCH   3   5
ATOM      5  C   UNL     1       3.283   5.779  18.589  0.00  0.00    +0.000 A 
ATOM      6  C   UNL     1       4.630   5.447  18.656  0.00  0.00    +0.000 A 
ATOM      7  C   UNL     1       5.020   4.201  19.150  0.00  0.00    +0.000 A 
ATOM      8  C   UNL     1       4.070   3.266  19.581  0.00  0.00    +0.000 A 
ATOM      9 CL   UNL     1       4.681   1.750  20.127  0.00  0.00    +0.000 Cl
ATOM     10  C   UNL     1       2.709   3.583  19.549  0.00  0.00    +0.000 A 
ATOM     11  C   UNL     1       2.336   4.859  19.061  0.00  0.00    +0.000 A 
BRANCH  10  12
ATOM     12  C   UNL     1       1.604   2.663  19.998  0.00  0.00    +0.000 C 
ATOM     13  F   UNL     1       1.599   2.309  21.309  0.00  0.00    +0.000 F 
ATOM     14  F   UNL     1       0.373   3.201  19.763  0.00  0.00    +0.000 F 
ATOM     15  F   UNL     1       1.618   1.484  19.309  0.00  0.00    +0.000 F 
ENDBRANCH  10  12
ENDBRANCH   3   5
BRANCH   2  16
ATOM     16  C   UNL     1       1.729   9.220  17.922  0.00  0.00    +0.000 C 
BRANCH  16  17
ATOM     17  C   UNL     1       1.096  10.380  18.647  0.00  0.00    +0.000 C 
ATOM     18  O   UNL     1       1.591  11.506  18.598  0.00  0.00    +0.000 OA
ATOM     19  N   UNL     1      -0.034  10.053  19.381  0.00  0.00    +0.000 N 
ATOM     20  H   UNL     1      -0.193   9.076  19.597  0.00  0.00    +0.000 HD
BRANCH  19  21
ATOM     21  C   UNL     1      -0.826  11.002  20.071  0.00  0.00    +0.000 A 
ATOM     22  C   UNL     1      -0.588  11.331  21.412  0.00  0.00    +0.000 A 
ATOM     23  C   UNL     1      -1.423  12.199  22.124  0.00  0.00    +0.000 A 
ATOM     24  C   UNL     1      -2.517  12.759  21.457  0.00  0.00    +0.000 A 
ATOM     25  C   UNL     1      -3.582  13.618  21.807  0.00  0.00    +0.000 A 
ATOM     26  N   UNL     1      -4.396  13.872  20.776  0.00  0.00    +0.000 NA
ATOM     27  N   UNL     1      -3.848  13.171  19.768  0.00  0.00    +0.000 N 
ATOM     28  C   UNL     1      -2.719  12.473  20.110  0.00  0.00    +0.000 A 
ATOM     29  C   UNL     1      -1.882  11.617  19.379  0.00  0.00    +0.000 A 
ATOM     30  H   UNL     1      -4.307  13.201  18.864  0.00  0.00    +0.000 HD
ENDBRANCH  19  21
ENDBRANCH  16  17
ENDBRANCH   2  16
TORSDOF 5
ENDMDL
MODEL 9
REMARK VINA RESULT:      -8.4      8.108     10.429
REMARK  Name = 
REMARK  5 active torsions:
REMARK  status: ('A' for Active; 'I' for Inactive)
REMARK    1  A    between atoms: C_2  and  C_3
REMARK    2  A    between atoms: C_3  and  C_4
REMARK    3  A    between atoms: N_6  and  C_7
REMARK    4  A    between atoms: N_16  and  C_17
REMARK    5  A    between atoms: C_22  and  C_23
REMARK                            x       y       z     vdW  Elec       q    Type
REMARK                         _______ _______ _______ _____ _____    ______ ____
ROOT
ATOM      1  O   UNL     1       1.980   7.811  19.891  0.00  0.00    +0.000 OA
ATOM      2  C   UNL     1       2.105   8.088  18.698  0.00  0.00    +0.000 C 
ATOM      3  N   UNL     1       2.529   7.207  17.724  0.00  0.00    +0.000 N 
ATOM      4  H   UNL     1       2.728   7.616  16.808  0.00  0.00    +0.000 HD
ENDROOT
BRANCH   3   5
ATOM      5  C   UNL     1       2.846   5.845  17.857  0.00  0.00    +0.000 A 
ATOM      6  C   UNL     1       3.988   5.265  17.320  0.00  0.00    +0.000 A 
ATOM      7  C   UNL     1       4.214   3.895  17.472  0.00  0.00    +0.000 A 
ATOM      8  C   UNL     1       3.302   3.085  18.159  0.00  0.00    +0.000 A 
ATOM      9 CL   UNL     1       3.677   1.404  18.238  0.00  0.00    +0.000 Cl
ATOM     10  C   UNL     1       2.157   3.647  18.733  0.00  0.00    +0.000 A 
ATOM     11  C   UNL     1       1.955   5.040  18.582  0.00  0.00    +0.000 A 
BRANCH  10  12
ATOM     12  C   UNL     1       1.117   2.875  19.503  0.00  0.00    +0.000 C 
ATOM     13  F   UNL     1       1.574   1.961  20.397  0.00  0.00    +0.000 F 
ATOM     14  F   UNL     1       0.300   3.703  20.215  0.00  0.00    +0.000 F 
ATOM     15  F   UNL     1       0.287   2.180  18.672  0.00  0.00    +0.000 F 
ENDBRANCH  10  12
ENDBRANCH   3   5
BRANCH   2  16
ATOM     16  C   UNL     1       1.793   9.511  18.245  0.00  0.00    +0.000 C 
BRANCH  16  17
ATOM     17  C   UNL     1       0.764  10.285  19.028  0.00  0.00    +0.000 C 
ATOM     18  O   UNL     1      -0.332  10.561  18.540  0.00  0.00    +0.000 OA
ATOM     19  N   UNL     1       1.177  10.677  20.293  0.00  0.00    +0.000 N 
ATOM     20  H   UNL     1       2.171  10.663  20.492  0.00  0.00    +0.000 HD
BRANCH  19  21
ATOM     21  C   UNL     1       0.343  11.342  21.223  0.00  0.00    +0.000 A 
ATOM     22  C   UNL     1      -0.499  10.641  22.097  0.00  0.00    +0.000 A 
ATOM     23  C   UNL     1      -1.391  11.295  22.953  0.00  0.00    +0.000 A 
ATOM     24  C   UNL     1      -1.422  12.693  22.934  0.00  0.00    +0.000 A 
ATOM     25  C   UNL     1      -2.173  13.696  23.586  0.00  0.00    +0.000 A 
ATOM     26  N   UNL     1      -1.809  14.929  23.218  0.00  0.00    +0.000 NA
ATOM     27  N   UNL     1      -0.826  14.710  22.327  0.00  0.00    +0.000 N 
ATOM     28  C   UNL     1      -0.547  13.386  22.104  0.00  0.00    +0.000 A 
ATOM     29  C   UNL     1       0.365  12.746  21.252  0.00  0.00    +0.000 A 
ATOM     30  H   UNL     1      -0.391  15.516  21.892  0.00  0.00    +0.000 HD
ENDBRANCH  19  21
ENDBRANCH  16  17
ENDBRANCH   2  16
TORSDOF 5
ENDMDL
