MODEL 1
REMARK VINA RESULT:      -8.3      0.000      0.000
REMARK  Name = 
REMARK  3 active torsions:
REMARK  status: ('A' for Active; 'I' for Inactive)
REMARK    1  A    between atoms: C_2  and  C_3
REMARK    2  A    between atoms: C_3  and  N_4
REMARK    3  A    between atoms: C_5  and  C_6
REMARK                            x       y       z     vdW  Elec       q    Type
REMARK                         _______ _______ _______ _____ _____    ______ ____
ROOT
ATOM      1  N   UNL     1       4.841   5.564  16.715  0.00  0.00    +0.000 N 
ATOM      2  C   UNL     1       5.059   4.345  16.023  0.00  0.00    +0.000 A 
ATOM      3  N   UNL     1       4.637   3.188  16.466  0.00  0.00    +0.000 NA
ATOM      4  C   UNL     1       3.937   3.209  17.626  0.00  0.00    +0.000 A 
ATOM      5  S   UNL     1       3.329   1.774  18.378  0.00  0.00    +0.000 S 
ATOM      6  C   UNL     1       2.641   2.676  19.611  0.00  0.00    +0.000 A 
ATOM      7  C   UNL     1       2.847   4.021  19.489  0.00  0.00    +0.000 A 
ATOM      8  C   UNL     1       3.603   4.335  18.346  0.00  0.00    +0.000 A 
ATOM      9  C   UNL     1       4.043   5.614  17.867  0.00  0.00    +0.000 A 
ATOM     10  O   UNL     1       3.714   6.648  18.444  0.00  0.00    +0.000 OA
ATOM     11  C   UNL     1       2.222   4.778  20.598  0.00  0.00    +0.000 C 
ATOM     12  C   UNL     1       1.908   3.647  21.623  0.00  0.00    +0.000 C 
ATOM     13  C   UNL     1       1.851   2.309  20.812  0.00  0.00    +0.000 C 
ENDROOT
BRANCH   2  14
ATOM     14  C   UNL     1       5.823   4.314  14.721  0.00  0.00    +0.000 A 
ATOM     15  C   UNL     1       5.244   3.670  13.614  0.00  0.00    +0.000 A 
ATOM     16  C   UNL     1       5.902   3.642  12.378  0.00  0.00    +0.000 A 
ATOM     17  C   UNL     1       7.153   4.237  12.238  0.00  0.00    +0.000 A 
ATOM     18  C   UNL     1       7.724   4.900  13.319  0.00  0.00    +0.000 A 
ATOM     19  C   UNL     1       7.040   4.977  14.536  0.00  0.00    +0.000 A 
ENDBRANCH   2  14
BRANCH   1  20
ATOM     20  C   UNL     1       5.383   6.867  16.333  0.00  0.00    +0.000 C 
BRANCH  20  22
ATOM     21  C   UNL     1       7.611   7.459  17.672  0.00  0.00    +0.000 C 
ATOM     22  C   UNL     1       6.606   7.198  17.067  0.00  0.00    +0.000 C 
ENDBRANCH  20  22
ENDBRANCH   1  20
TORSDOF 3
ENDMDL
MODEL 2
REMARK VINA RESULT:      -8.2      0.055      1.027
REMARK  Name = 
REMARK  3 active torsions:
REMARK  status: ('A' for Active; 'I' for Inactive)
REMARK    1  A    between atoms: C_2  and  C_3
REMARK    2  A    between atoms: C_3  and  N_4
REMARK    3  A    between atoms: C_5  and  C_6
REMARK                            x       y       z     vdW  Elec       q    Type
REMARK                         _______ _______ _______ _____ _____    ______ ____
ROOT
ATOM      1  N   UNL     1       4.820   5.577  16.704  0.00  0.00    +0.000 N 
ATOM      2  C   UNL     1       5.005   4.362  15.995  0.00  0.00    +0.000 A 
ATOM      3  N   UNL     1       4.575   3.208  16.433  0.00  0.00    +0.000 NA
ATOM      4  C   UNL     1       3.899   3.226  17.608  0.00  0.00    +0.000 A 
ATOM      5  S   UNL     1       3.285   1.792  18.356  0.00  0.00    +0.000 S 
ATOM      6  C   UNL     1       2.636   2.690  19.613  0.00  0.00    +0.000 A 
ATOM      7  C   UNL     1       2.860   4.033  19.501  0.00  0.00    +0.000 A 
ATOM      8  C   UNL     1       3.597   4.348  18.347  0.00  0.00    +0.000 A 
ATOM      9  C   UNL     1       4.047   5.626  17.873  0.00  0.00    +0.000 A 
ATOM     10  O   UNL     1       3.745   6.659  18.467  0.00  0.00    +0.000 OA
ATOM     11  C   UNL     1       2.269   4.787  20.631  0.00  0.00    +0.000 C 
ATOM     12  C   UNL     1       1.959   3.649  21.650  0.00  0.00    +0.000 C 
ATOM     13  C   UNL     1       1.865   2.322  20.826  0.00  0.00    +0.000 C 
ENDROOT
BRANCH   2  14
ATOM     14  C   UNL     1       5.742   4.335  14.676  0.00  0.00    +0.000 A 
ATOM     15  C   UNL     1       7.003   4.949  14.595  0.00  0.00    +0.000 A 
ATOM     16  C   UNL     1       7.736   4.922  13.402  0.00  0.00    +0.000 A 
ATOM     17  C   UNL     1       7.210   4.302  12.272  0.00  0.00    +0.000 A 
ATOM     18  C   UNL     1       5.974   3.668  12.347  0.00  0.00    +0.000 A 
ATOM     19  C   UNL     1       5.270   3.645  13.555  0.00  0.00    +0.000 A 
ENDBRANCH   2  14
BRANCH   1  20
ATOM     20  C   UNL     1       5.374   6.876  16.325  0.00  0.00    +0.000 C 
BRANCH  20  22
ATOM     21  C   UNL     1       7.604   7.455  17.667  0.00  0.00    +0.000 C 
ATOM     22  C   UNL     1       6.602   7.192  17.057  0.00  0.00    +0.000 C 
ENDBRANCH  20  22
ENDBRANCH   1  20
TORSDOF 3
ENDMDL
MODEL 3
REMARK VINA RESULT:      -7.9      3.051      4.459
REMARK  Name = 
REMARK  3 active torsions:
REMARK  status: ('A' for Active; 'I' for Inactive)
REMARK    1  A    between atoms: C_2  and  C_3
REMARK    2  A    between atoms: C_3  and  N_4
REMARK    3  A    between atoms: C_5  and  C_6
REMARK                            x       y       z     vdW  Elec       q    Type
REMARK                         _______ _______ _______ _____ _____    ______ ____
ROOT
ATOM      1  N   UNL     1       3.791   5.310  18.746  0.00  0.00    +0.000 N 
ATOM      2  C   UNL     1       4.180   6.043  17.595  0.00  0.00    +0.000 A 
ATOM      3  N   UNL     1       3.707   7.229  17.312  0.00  0.00    +0.000 NA
ATOM      4  C   UNL     1       2.832   7.755  18.204  0.00  0.00    +0.000 A 
ATOM      5  S   UNL     1       2.080   9.297  17.979  0.00  0.00    +0.000 S 
ATOM      6  C   UNL     1       1.274   9.151  19.441  0.00  0.00    +0.000 A 
ATOM      7  C   UNL     1       1.542   7.985  20.101  0.00  0.00    +0.000 A 
ATOM      8  C   UNL     1       2.437   7.170  19.386  0.00  0.00    +0.000 A 
ATOM      9  C   UNL     1       2.958   5.876  19.722  0.00  0.00    +0.000 A 
ATOM     10  O   UNL     1       2.681   5.346  20.796  0.00  0.00    +0.000 OA
ATOM     11  C   UNL     1       0.810   7.899  21.386  0.00  0.00    +0.000 C 
ATOM     12  C   UNL     1      -0.238   9.042  21.237  0.00  0.00    +0.000 C 
ATOM     13  C   UNL     1       0.327  10.033  20.166  0.00  0.00    +0.000 C 
ENDROOT
BRANCH   2  14
ATOM     14  C   UNL     1       5.167   5.473  16.605  0.00  0.00    +0.000 A 
ATOM     15  C   UNL     1       4.677   4.751  15.503  0.00  0.00    +0.000 A 
ATOM     16  C   UNL     1       5.554   4.230  14.543  0.00  0.00    +0.000 A 
ATOM     17  C   UNL     1       6.928   4.404  14.683  0.00  0.00    +0.000 A 
ATOM     18  C   UNL     1       7.424   5.139  15.756  0.00  0.00    +0.000 A 
ATOM     19  C   UNL     1       6.544   5.708  16.682  0.00  0.00    +0.000 A 
ENDBRANCH   2  14
BRANCH   1  20
ATOM     20  C   UNL     1       4.194   3.939  19.057  0.00  0.00    +0.000 C 
BRANCH  20  22
ATOM     21  C   UNL     1       2.660   2.134  17.835  0.00  0.00    +0.000 C 
ATOM     22  C   UNL     1       3.349   2.946  18.392  0.00  0.00    +0.000 C 
ENDBRANCH  20  22
ENDBRANCH   1  20
TORSDOF 3
ENDMDL
MODEL 4
REMARK VINA RESULT:      -7.8      3.083      4.608
REMARK  Name = 
REMARK  3 active torsions:
REMARK  status: ('A' for Active; 'I' for Inactive)
REMARK    1  A    between atoms: C_2  and  C_3
REMARK    2  A    between atoms: C_3  and  N_4
REMARK    3  A    between atoms: C_5  and  C_6
REMARK                            x       y       z     vdW  Elec       q    Type
REMARK                         _______ _______ _______ _____ _____    ______ ____
ROOT
ATOM      1  N   UNL     1       3.731   5.353  18.725  0.00  0.00    +0.000 N 
ATOM      2  C   UNL     1       4.107   6.088  17.571  0.00  0.00    +0.000 A 
ATOM      3  N   UNL     1       3.636   7.277  17.298  0.00  0.00    +0.000 NA
ATOM      4  C   UNL     1       2.775   7.804  18.203  0.00  0.00    +0.000 A 
ATOM      5  S   UNL     1       2.028   9.350  17.992  0.00  0.00    +0.000 S 
ATOM      6  C   UNL     1       1.241   9.203  19.465  0.00  0.00    +0.000 A 
ATOM      7  C   UNL     1       1.512   8.034  20.117  0.00  0.00    +0.000 A 
ATOM      8  C   UNL     1       2.393   7.217  19.389  0.00  0.00    +0.000 A 
ATOM      9  C   UNL     1       2.913   5.919  19.713  0.00  0.00    +0.000 A 
ATOM     10  O   UNL     1       2.648   5.387  20.789  0.00  0.00    +0.000 OA
ATOM     11  C   UNL     1       0.797   7.947  21.412  0.00  0.00    +0.000 C 
ATOM     12  C   UNL     1      -0.249   9.095  21.280  0.00  0.00    +0.000 C 
ATOM     13  C   UNL     1       0.307  10.087  20.204  0.00  0.00    +0.000 C 
ENDROOT
BRANCH   2  14
ATOM     14  C   UNL     1       5.079   5.516  16.566  0.00  0.00    +0.000 A 
ATOM     15  C   UNL     1       6.454   5.729  16.761  0.00  0.00    +0.000 A 
ATOM     16  C   UNL     1       7.394   5.192  15.872  0.00  0.00    +0.000 A 
ATOM     17  C   UNL     1       6.971   4.457  14.768  0.00  0.00    +0.000 A 
ATOM     18  C   UNL     1       5.614   4.217  14.579  0.00  0.00    +0.000 A 
ATOM     19  C   UNL     1       4.681   4.704  15.499  0.00  0.00    +0.000 A 
ENDBRANCH   2  14
BRANCH   1  20
ATOM     20  C   UNL     1       4.131   3.980  19.026  0.00  0.00    +0.000 C 
BRANCH  20  22
ATOM     21  C   UNL     1       2.604   2.179  17.788  0.00  0.00    +0.000 C 
ATOM     22  C   UNL     1       3.287   2.992  18.350  0.00  0.00    +0.000 C 
ENDBRANCH  20  22
ENDBRANCH   1  20
TORSDOF 3
ENDMDL
MODEL 5
REMARK VINA RESULT:      -7.8      1.209      1.263
REMARK  Name = 
REMARK  3 active torsions:
REMARK  status: ('A' for Active; 'I' for Inactive)
REMARK    1  A    between atoms: C_2  and  C_3
REMARK    2  A    between atoms: C_3  and  N_4
REMARK    3  A    between atoms: C_5  and  C_6
REMARK                            x       y       z     vdW  Elec       q    Type
REMARK                         _______ _______ _______ _____ _____    ______ ____
ROOT
ATOM      1  N   UNL     1       6.039   4.702  17.406  0.00  0.00    +0.000 N 
ATOM      2  C   UNL     1       5.401   4.280  16.211  0.00  0.00    +0.000 A 
ATOM      3  N   UNL     1       4.188   3.792  16.184  0.00  0.00    +0.000 NA
ATOM      4  C   UNL     1       3.537   3.735  17.371  0.00  0.00    +0.000 A 
ATOM      5  S   UNL     1       1.939   3.091  17.533  0.00  0.00    +0.000 S 
ATOM      6  C   UNL     1       1.937   3.429  19.175  0.00  0.00    +0.000 A 
ATOM      7  C   UNL     1       3.092   4.008  19.617  0.00  0.00    +0.000 A 
ATOM      8  C   UNL     1       4.025   4.181  18.580  0.00  0.00    +0.000 A 
ATOM      9  C   UNL     1       5.349   4.734  18.626  0.00  0.00    +0.000 A 
ATOM     10  O   UNL     1       5.798   5.201  19.670  0.00  0.00    +0.000 OA
ATOM     11  C   UNL     1       3.047   4.288  21.071  0.00  0.00    +0.000 C 
ATOM     12  C   UNL     1       1.813   3.450  21.522  0.00  0.00    +0.000 C 
ATOM     13  C   UNL     1       0.933   3.225  20.247  0.00  0.00    +0.000 C 
ENDROOT
BRANCH   2  14
ATOM     14  C   UNL     1       6.112   4.354  14.881  0.00  0.00    +0.000 A 
ATOM     15  C   UNL     1       5.649   3.554  13.822  0.00  0.00    +0.000 A 
ATOM     16  C   UNL     1       6.258   3.613  12.562  0.00  0.00    +0.000 A 
ATOM     17  C   UNL     1       7.348   4.453  12.351  0.00  0.00    +0.000 A 
ATOM     18  C   UNL     1       7.799   5.269  13.383  0.00  0.00    +0.000 A 
ATOM     19  C   UNL     1       7.154   5.252  14.623  0.00  0.00    +0.000 A 
ENDBRANCH   2  14
BRANCH   1  20
ATOM     20  C   UNL     1       7.427   5.146  17.518  0.00  0.00    +0.000 C 
BRANCH  20  22
ATOM     21  C   UNL     1       7.637   7.803  17.601  0.00  0.00    +0.000 C 
ATOM     22  C   UNL     1       7.543   6.605  17.570  0.00  0.00    +0.000 C 
ENDBRANCH  20  22
ENDBRANCH   1  20
TORSDOF 3
ENDMDL
MODEL 6
REMARK VINA RESULT:      -7.5      1.264      1.663
REMARK  Name = 
REMARK  3 active torsions:
REMARK  status: ('A' for Active; 'I' for Inactive)
REMARK    1  A    between atoms: C_2  and  C_3
REMARK    2  A    between atoms: C_3  and  N_4
REMARK    3  A    between atoms: C_5  and  C_6
REMARK                            x       y       z     vdW  Elec       q    Type
REMARK                         _______ _______ _______ _____ _____    ______ ____
ROOT
ATOM      1  N   UNL     1       6.017   4.550  17.410  0.00  0.00    +0.000 N 
ATOM      2  C   UNL     1       5.333   4.200  16.218  0.00  0.00    +0.000 A 
ATOM      3  N   UNL     1       4.103   3.755  16.206  0.00  0.00    +0.000 NA
ATOM      4  C   UNL     1       3.483   3.672  17.408  0.00  0.00    +0.000 A 
ATOM      5  S   UNL     1       1.868   3.077  17.588  0.00  0.00    +0.000 S 
ATOM      6  C   UNL     1       1.923   3.345  19.242  0.00  0.00    +0.000 A 
ATOM      7  C   UNL     1       3.109   3.865  19.675  0.00  0.00    +0.000 A 
ATOM      8  C   UNL     1       4.018   4.049  18.619  0.00  0.00    +0.000 A 
ATOM      9  C   UNL     1       5.362   4.555  18.650  0.00  0.00    +0.000 A 
ATOM     10  O   UNL     1       5.856   4.961  19.699  0.00  0.00    +0.000 OA
ATOM     11  C   UNL     1       3.113   4.086  21.140  0.00  0.00    +0.000 C 
ATOM     12  C   UNL     1       1.862   3.273  21.591  0.00  0.00    +0.000 C 
ATOM     13  C   UNL     1       0.941   3.131  20.334  0.00  0.00    +0.000 C 
ENDROOT
BRANCH   2  14
ATOM     14  C   UNL     1       6.009   4.306  14.872  0.00  0.00    +0.000 A 
ATOM     15  C   UNL     1       7.092   5.190  14.729  0.00  0.00    +0.000 A 
ATOM     16  C   UNL     1       7.770   5.300  13.508  0.00  0.00    +0.000 A 
ATOM     17  C   UNL     1       7.361   4.545  12.412  0.00  0.00    +0.000 A 
ATOM     18  C   UNL     1       6.307   3.647  12.548  0.00  0.00    +0.000 A 
ATOM     19  C   UNL     1       5.670   3.496  13.783  0.00  0.00    +0.000 A 
ENDBRANCH   2  14
BRANCH   1  20
ATOM     20  C   UNL     1       7.422   4.941  17.501  0.00  0.00    +0.000 C 
BRANCH  20  22
ATOM     21  C   UNL     1       7.728   7.577  17.758  0.00  0.00    +0.000 C 
ATOM     22  C   UNL     1       7.590   6.389  17.648  0.00  0.00    +0.000 C 
ENDBRANCH  20  22
ENDBRANCH   1  20
TORSDOF 3
ENDMDL
MODEL 7
REMARK VINA RESULT:      -7.2      4.722      7.939
REMARK  Name = 
REMARK  3 active torsions:
REMARK  status: ('A' for Active; 'I' for Inactive)
REMARK    1  A    between atoms: C_2  and  C_3
REMARK    2  A    between atoms: C_3  and  N_4
REMARK    3  A    between atoms: C_5  and  C_6
REMARK                            x       y       z     vdW  Elec       q    Type
REMARK                         _______ _______ _______ _____ _____    ______ ____
ROOT
ATOM      1  N   UNL     1       1.549   8.841  19.069  0.00  0.00    +0.000 N 
ATOM      2  C   UNL     1       1.180   8.563  20.411  0.00  0.00    +0.000 A 
ATOM      3  N   UNL     1       1.423   7.417  20.994  0.00  0.00    +0.000 NA
ATOM      4  C   UNL     1       2.087   6.496  20.255  0.00  0.00    +0.000 A 
ATOM      5  S   UNL     1       2.466   4.916  20.849  0.00  0.00    +0.000 S 
ATOM      6  C   UNL     1       3.241   4.529  19.414  0.00  0.00    +0.000 A 
ATOM      7  C   UNL     1       3.229   5.539  18.495  0.00  0.00    +0.000 A 
ATOM      8  C   UNL     1       2.556   6.677  18.972  0.00  0.00    +0.000 A 
ATOM      9  C   UNL     1       2.314   7.934  18.322  0.00  0.00    +0.000 A 
ATOM     10  O   UNL     1       2.769   8.160  17.203  0.00  0.00    +0.000 OA
ATOM     11  C   UNL     1       3.924   5.155  17.244  0.00  0.00    +0.000 C 
ATOM     12  C   UNL     1       4.048   3.610  17.407  0.00  0.00    +0.000 C 
ATOM     13  C   UNL     1       3.938   3.309  18.939  0.00  0.00    +0.000 C 
ENDROOT
BRANCH   2  14
ATOM     14  C   UNL     1       0.456   9.589  21.248  0.00  0.00    +0.000 A 
ATOM     15  C   UNL     1      -0.326   9.148  22.330  0.00  0.00    +0.000 A 
ATOM     16  C   UNL     1      -0.991  10.066  23.152  0.00  0.00    +0.000 A 
ATOM     17  C   UNL     1      -0.902  11.431  22.892  0.00  0.00    +0.000 A 
ATOM     18  C   UNL     1      -0.111  11.881  21.840  0.00  0.00    +0.000 A 
ATOM     19  C   UNL     1       0.599  10.967  21.056  0.00  0.00    +0.000 A 
ENDBRANCH   2  14
BRANCH   1  20
ATOM     20  C   UNL     1       1.206  10.053  18.327  0.00  0.00    +0.000 C 
BRANCH  20  22
ATOM     21  C   UNL     1      -1.353  10.088  17.580  0.00  0.00    +0.000 C 
ATOM     22  C   UNL     1      -0.197  10.073  17.910  0.00  0.00    +0.000 C 
ENDBRANCH  20  22
ENDBRANCH   1  20
TORSDOF 3
ENDMDL
MODEL 8
REMARK VINA RESULT:      -7.2      3.669      5.254
REMARK  Name = 
REMARK  3 active torsions:
REMARK  status: ('A' for Active; 'I' for Inactive)
REMARK    1  A    between atoms: C_2  and  C_3
REMARK    2  A    between atoms: C_3  and  N_4
REMARK    3  A    between atoms: C_5  and  C_6
REMARK                            x       y       z     vdW  Elec       q    Type
REMARK                         _______ _______ _______ _____ _____    ______ ____
ROOT
ATOM      1  N   UNL     1       3.057   5.876  19.179  0.00  0.00    +0.000 N 
ATOM      2  C   UNL     1       3.763   6.450  18.091  0.00  0.00    +0.000 A 
ATOM      3  N   UNL     1       3.538   7.662  17.654  0.00  0.00    +0.000 NA
ATOM      4  C   UNL     1       2.600   8.376  18.322  0.00  0.00    +0.000 A 
ATOM      5  S   UNL     1       2.147   9.983  17.867  0.00  0.00    +0.000 S 
ATOM      6  C   UNL     1       1.066  10.072  19.145  0.00  0.00    +0.000 A 
ATOM      7  C   UNL     1       1.024   8.940  19.908  0.00  0.00    +0.000 A 
ATOM      8  C   UNL     1       1.903   7.953  19.433  0.00  0.00    +0.000 A 
ATOM      9  C   UNL     1       2.149   6.631  19.936  0.00  0.00    +0.000 A 
ATOM     10  O   UNL     1       1.597   6.236  20.960  0.00  0.00    +0.000 OA
ATOM     11  C   UNL     1       0.057   9.063  21.024  0.00  0.00    +0.000 C 
ATOM     12  C   UNL     1      -0.759  10.323  20.606  0.00  0.00    +0.000 C 
ATOM     13  C   UNL     1       0.143  11.134  19.616  0.00  0.00    +0.000 C 
ENDROOT
BRANCH   2  14
ATOM     14  C   UNL     1       4.822   5.668  17.350  0.00  0.00    +0.000 A 
ATOM     15  C   UNL     1       4.427   4.833  16.292  0.00  0.00    +0.000 A 
ATOM     16  C   UNL     1       5.378   4.112  15.557  0.00  0.00    +0.000 A 
ATOM     17  C   UNL     1       6.728   4.200  15.885  0.00  0.00    +0.000 A 
ATOM     18  C   UNL     1       7.134   5.043  16.914  0.00  0.00    +0.000 A 
ATOM     19  C   UNL     1       6.190   5.807  17.608  0.00  0.00    +0.000 A 
ENDBRANCH   2  14
BRANCH   1  20
ATOM     20  C   UNL     1       3.181   4.494  19.639  0.00  0.00    +0.000 C 
BRANCH  20  22
ATOM     21  C   UNL     1       1.311   2.905  18.596  0.00  0.00    +0.000 C 
ATOM     22  C   UNL     1       2.150   3.623  19.071  0.00  0.00    +0.000 C 
ENDBRANCH  20  22
ENDBRANCH   1  20
TORSDOF 3
ENDMDL
MODEL 9
REMARK VINA RESULT:      -7.2      3.405      5.070
REMARK  Name = 
REMARK  3 active torsions:
REMARK  status: ('A' for Active; 'I' for Inactive)
REMARK    1  A    between atoms: C_2  and  C_3
REMARK    2  A    between atoms: C_3  and  N_4
REMARK    3  A    between atoms: C_5  and  C_6
REMARK                            x       y       z     vdW  Elec       q    Type
REMARK                         _______ _______ _______ _____ _____    ______ ____
ROOT
ATOM      1  N   UNL     1       3.058   5.538  18.950  0.00  0.00    +0.000 N 
ATOM      2  C   UNL     1       3.568   6.175  17.790  0.00  0.00    +0.000 A 
ATOM      3  N   UNL     1       3.282   7.410  17.470  0.00  0.00    +0.000 NA
ATOM      4  C   UNL     1       2.485   8.085  18.334  0.00  0.00    +0.000 A 
ATOM      5  S   UNL     1       1.977   9.716  18.060  0.00  0.00    +0.000 S 
ATOM      6  C   UNL     1       1.139   9.730  19.512  0.00  0.00    +0.000 A 
ATOM      7  C   UNL     1       1.220   8.555  20.204  0.00  0.00    +0.000 A 
ATOM      8  C   UNL     1       1.990   7.597  19.524  0.00  0.00    +0.000 A 
ATOM      9  C   UNL     1       2.307   6.247  19.899  0.00  0.00    +0.000 A 
ATOM     10  O   UNL     1       1.939   5.793  20.980  0.00  0.00    +0.000 OA
ATOM     11  C   UNL     1       0.466   8.612  21.478  0.00  0.00    +0.000 C 
ATOM     12  C   UNL     1      -0.396   9.896  21.284  0.00  0.00    +0.000 C 
ATOM     13  C   UNL     1       0.325  10.763  20.199  0.00  0.00    +0.000 C 
ENDROOT
BRANCH   2  14
ATOM     14  C   UNL     1       4.471   5.437  16.830  0.00  0.00    +0.000 A 
ATOM     15  C   UNL     1       5.229   6.181  15.910  0.00  0.00    +0.000 A 
ATOM     16  C   UNL     1       6.103   5.542  15.021  0.00  0.00    +0.000 A 
ATOM     17  C   UNL     1       6.213   4.154  15.026  0.00  0.00    +0.000 A 
ATOM     18  C   UNL     1       5.487   3.409  15.949  0.00  0.00    +0.000 A 
ATOM     19  C   UNL     1       4.660   4.052  16.874  0.00  0.00    +0.000 A 
ENDBRANCH   2  14
BRANCH   1  20
ATOM     20  C   UNL     1       3.246   4.131  19.301  0.00  0.00    +0.000 C 
BRANCH  20  22
ATOM     21  C   UNL     1       1.102   2.656  18.722  0.00  0.00    +0.000 C 
ATOM     22  C   UNL     1       2.072   3.316  18.982  0.00  0.00    +0.000 C 
ENDBRANCH  20  22
ENDBRANCH   1  20
TORSDOF 3
ENDMDL
