MODEL 1
REMARK VINA RESULT:      -8.6      0.000      0.000
REMARK  Name = 
REMARK  5 active torsions:
REMARK  status: ('A' for Active; 'I' for Inactive)
REMARK    1  A    between atoms: C_1  and  C_2
REMARK    2  A    between atoms: C_7  and  C_8
REMARK    3  A    between atoms: C_19  and  C_20
REMARK    4  A    between atoms: C_20  and  C_21
REMARK    5  A    between atoms: C_20  and  C_27
REMARK                            x       y       z     vdW  Elec       q    Type
REMARK                         _______ _______ _______ _____ _____    ______ ____
ROOT
ATOM      1  C   UNL     1       0.256   8.807  21.798  0.00  0.00    +0.000 C 
ATOM      2  C   UNL     1       1.048   8.502  20.573  0.00  0.00    +0.000 C 
ATOM      3  N   UNL     1       1.701   7.383  20.430  0.00  0.00    +0.000 NA
ATOM      4  N   UNL     1       2.273   7.420  19.157  0.00  0.00    +0.000 N 
ATOM      5  C   UNL     1       3.138   6.449  18.687  0.00  0.00    +0.000 A 
ATOM      6  N   UNL     1       3.707   6.381  17.503  0.00  0.00    +0.000 NA
ATOM      7  C   UNL     1       4.595   5.314  17.458  0.00  0.00    +0.000 A 
ATOM      8  C   UNL     1       4.651   4.563  18.615  0.00  0.00    +0.000 A 
ATOM      9  S   UNL     1       3.582   5.202  19.784  0.00  0.00    +0.000 S 
ATOM     10  C   UNL     1       1.980   8.571  18.423  0.00  0.00    +0.000 C 
ATOM     11  O   UNL     1       2.270   8.933  17.298  0.00  0.00    +0.000 OA
ATOM     12  C   UNL     1       1.193   9.381  19.402  0.00  0.00    +0.000 C 
ATOM     13  C   UNL     1       0.848  10.648  19.120  0.00  0.00    +0.000 C 
ENDROOT
BRANCH   7  14
ATOM     14  C   UNL     1       5.399   5.034  16.271  0.00  0.00    +0.000 A 
ATOM     15  C   UNL     1       4.856   4.355  15.169  0.00  0.00    +0.000 A 
ATOM     16  C   UNL     1       5.638   4.077  14.045  0.00  0.00    +0.000 A 
ATOM     17  C   UNL     1       6.970   4.478  14.008  0.00  0.00    +0.000 A 
ATOM     18  C   UNL     1       7.522   5.157  15.094  0.00  0.00    +0.000 A 
ATOM     19  C   UNL     1       6.741   5.431  16.221  0.00  0.00    +0.000 A 
ENDBRANCH   7  14
BRANCH  13  20
ATOM     20  C   UNL     1       0.170  11.692  19.979  0.00  0.00    +0.000 C 
BRANCH  20  21
ATOM     21  C   UNL     1       0.909  13.032  19.914  0.00  0.00    +0.000 A 
ATOM     22  C   UNL     1       1.235  13.637  18.687  0.00  0.00    +0.000 A 
ATOM     23  C   UNL     1       1.945  14.840  18.651  0.00  0.00    +0.000 A 
ATOM     24  C   UNL     1       2.325  15.467  19.834  0.00  0.00    +0.000 A 
ATOM     25  C   UNL     1       2.003  14.889  21.058  0.00  0.00    +0.000 A 
ATOM     26  C   UNL     1       1.303  13.681  21.099  0.00  0.00    +0.000 A 
ENDBRANCH  20  21
BRANCH  20  27
ATOM     27  C   UNL     1      -1.332  11.819  19.716  0.00  0.00    +0.000 A 
ATOM     28  C   UNL     1      -1.881  11.218  18.569  0.00  0.00    +0.000 A 
ATOM     29  C   UNL     1      -3.235  11.370  18.255  0.00  0.00    +0.000 A 
ATOM     30  C   UNL     1      -4.065  12.114  19.089  0.00  0.00    +0.000 A 
ATOM     31  C   UNL     1      -3.549  12.681  20.251  0.00  0.00    +0.000 A 
ATOM     32  C   UNL     1      -2.197  12.527  20.568  0.00  0.00    +0.000 A 
ENDBRANCH  20  27
ENDBRANCH  13  20
TORSDOF 4
ENDMDL
MODEL 2
REMARK VINA RESULT:      -8.6      0.092      1.208
REMARK  Name = 
REMARK  5 active torsions:
REMARK  status: ('A' for Active; 'I' for Inactive)
REMARK    1  A    between atoms: C_1  and  C_2
REMARK    2  A    between atoms: C_7  and  C_8
REMARK    3  A    between atoms: C_19  and  C_20
REMARK    4  A    between atoms: C_20  and  C_21
REMARK    5  A    between atoms: C_20  and  C_27
REMARK                            x       y       z     vdW  Elec       q    Type
REMARK                         _______ _______ _______ _____ _____    ______ ____
ROOT
ATOM      1  C   UNL     1       0.167   8.786  21.810  0.00  0.00    +0.000 C 
ATOM      2  C   UNL     1       0.979   8.487  20.595  0.00  0.00    +0.000 C 
ATOM      3  N   UNL     1       1.635   7.370  20.457  0.00  0.00    +0.000 NA
ATOM      4  N   UNL     1       2.226   7.414  19.193  0.00  0.00    +0.000 N 
ATOM      5  C   UNL     1       3.100   6.447  18.732  0.00  0.00    +0.000 A 
ATOM      6  N   UNL     1       3.688   6.385  17.557  0.00  0.00    +0.000 NA
ATOM      7  C   UNL     1       4.578   5.319  17.521  0.00  0.00    +0.000 A 
ATOM      8  C   UNL     1       4.617   4.563  18.675  0.00  0.00    +0.000 A 
ATOM      9  S   UNL     1       3.529   5.195  19.830  0.00  0.00    +0.000 S 
ATOM     10  C   UNL     1       1.943   8.568  18.460  0.00  0.00    +0.000 C 
ATOM     11  O   UNL     1       2.250   8.936  17.342  0.00  0.00    +0.000 OA
ATOM     12  C   UNL     1       1.140   9.373  19.431  0.00  0.00    +0.000 C 
ATOM     13  C   UNL     1       0.797  10.640  19.150  0.00  0.00    +0.000 C 
ENDROOT
BRANCH   7  14
ATOM     14  C   UNL     1       5.400   5.047  16.345  0.00  0.00    +0.000 A 
ATOM     15  C   UNL     1       6.740   5.464  16.282  0.00  0.00    +0.000 A 
ATOM     16  C   UNL     1       7.513   5.214  15.146  0.00  0.00    +0.000 A 
ATOM     17  C   UNL     1       6.958   4.541  14.060  0.00  0.00    +0.000 A 
ATOM     18  C   UNL     1       5.631   4.118  14.110  0.00  0.00    +0.000 A 
ATOM     19  C   UNL     1       4.855   4.372  15.245  0.00  0.00    +0.000 A 
ENDBRANCH   7  14
BRANCH  13  20
ATOM     20  C   UNL     1       0.105  11.679  20.004  0.00  0.00    +0.000 C 
BRANCH  20  21
ATOM     21  C   UNL     1       0.847  13.018  19.962  0.00  0.00    +0.000 A 
ATOM     22  C   UNL     1       1.123  13.746  21.132  0.00  0.00    +0.000 A 
ATOM     23  C   UNL     1       1.765  14.986  21.068  0.00  0.00    +0.000 A 
ATOM     24  C   UNL     1       2.159  15.509  19.840  0.00  0.00    +0.000 A 
ATOM     25  C   UNL     1       1.905  14.798  18.671  0.00  0.00    +0.000 A 
ATOM     26  C   UNL     1       1.252  13.564  18.730  0.00  0.00    +0.000 A 
ENDBRANCH  20  21
BRANCH  20  27
ATOM     27  C   UNL     1      -1.391  11.811  19.713  0.00  0.00    +0.000 A 
ATOM     28  C   UNL     1      -1.924  11.199  18.563  0.00  0.00    +0.000 A 
ATOM     29  C   UNL     1      -3.271  11.354  18.224  0.00  0.00    +0.000 A 
ATOM     30  C   UNL     1      -4.111  12.112  19.034  0.00  0.00    +0.000 A 
ATOM     31  C   UNL     1      -3.613  12.690  20.198  0.00  0.00    +0.000 A 
ATOM     32  C   UNL     1      -2.268  12.533  20.540  0.00  0.00    +0.000 A 
ENDBRANCH  20  27
ENDBRANCH  13  20
TORSDOF 4
ENDMDL
MODEL 3
REMARK VINA RESULT:      -8.6      0.108      1.206
REMARK  Name = 
REMARK  5 active torsions:
REMARK  status: ('A' for Active; 'I' for Inactive)
REMARK    1  A    between atoms: C_1  and  C_2
REMARK    2  A    between atoms: C_7  and  C_8
REMARK    3  A    between atoms: C_19  and  C_20
REMARK    4  A    between atoms: C_20  and  C_21
REMARK    5  A    between atoms: C_20  and  C_27
REMARK                            x       y       z     vdW  Elec       q    Type
REMARK                         _______ _______ _______ _____ _____    ______ ____
ROOT
ATOM      1  C   UNL     1       0.250   8.887  21.798  0.00  0.00    +0.000 C 
ATOM      2  C   UNL     1       1.039   8.563  20.575  0.00  0.00    +0.000 C 
ATOM      3  N   UNL     1       1.681   7.437  20.442  0.00  0.00    +0.000 NA
ATOM      4  N   UNL     1       2.252   7.457  19.168  0.00  0.00    +0.000 N 
ATOM      5  C   UNL     1       3.108   6.474  18.706  0.00  0.00    +0.000 A 
ATOM      6  N   UNL     1       3.675   6.389  17.523  0.00  0.00    +0.000 NA
ATOM      7  C   UNL     1       4.553   5.314  17.487  0.00  0.00    +0.000 A 
ATOM      8  C   UNL     1       4.604   4.574  18.651  0.00  0.00    +0.000 A 
ATOM      9  S   UNL     1       3.542   5.234  19.815  0.00  0.00    +0.000 S 
ATOM     10  C   UNL     1       1.968   8.603  18.423  0.00  0.00    +0.000 C 
ATOM     11  O   UNL     1       2.260   8.952  17.294  0.00  0.00    +0.000 OA
ATOM     12  C   UNL     1       1.189   9.430  19.395  0.00  0.00    +0.000 C 
ATOM     13  C   UNL     1       0.855  10.697  19.101  0.00  0.00    +0.000 C 
ENDROOT
BRANCH   7  14
ATOM     14  C   UNL     1       5.353   5.016  16.302  0.00  0.00    +0.000 A 
ATOM     15  C   UNL     1       4.798   4.346  15.199  0.00  0.00    +0.000 A 
ATOM     16  C   UNL     1       5.576   4.050  14.078  0.00  0.00    +0.000 A 
ATOM     17  C   UNL     1       6.917   4.424  14.042  0.00  0.00    +0.000 A 
ATOM     18  C   UNL     1       7.480   5.093  15.127  0.00  0.00    +0.000 A 
ATOM     19  C   UNL     1       6.703   5.385  16.253  0.00  0.00    +0.000 A 
ENDBRANCH   7  14
BRANCH  13  20
ATOM     20  C   UNL     1       0.188  11.755  19.952  0.00  0.00    +0.000 C 
BRANCH  20  21
ATOM     21  C   UNL     1       0.964  13.075  19.908  0.00  0.00    +0.000 A 
ATOM     22  C   UNL     1       1.221  13.819  21.072  0.00  0.00    +0.000 A 
ATOM     23  C   UNL     1       1.895  15.042  21.004  0.00  0.00    +0.000 A 
ATOM     24  C   UNL     1       2.339  15.531  19.779  0.00  0.00    +0.000 A 
ATOM     25  C   UNL     1       2.104  14.803  18.617  0.00  0.00    +0.000 A 
ATOM     26  C   UNL     1       1.420  13.587  18.679  0.00  0.00    +0.000 A 
ENDBRANCH  20  21
BRANCH  20  27
ATOM     27  C   UNL     1      -1.304  11.923  19.658  0.00  0.00    +0.000 A 
ATOM     28  C   UNL     1      -2.116  12.597  20.589  0.00  0.00    +0.000 A 
ATOM     29  C   UNL     1      -3.495  12.710  20.393  0.00  0.00    +0.000 A 
ATOM     30  C   UNL     1      -4.084  12.164  19.256  0.00  0.00    +0.000 A 
ATOM     31  C   UNL     1      -3.292  11.531  18.303  0.00  0.00    +0.000 A 
ATOM     32  C   UNL     1      -1.913  11.420  18.496  0.00  0.00    +0.000 A 
ENDBRANCH  20  27
ENDBRANCH  13  20
TORSDOF 4
ENDMDL
MODEL 4
REMARK VINA RESULT:      -8.5      0.292      1.239
REMARK  Name = 
REMARK  5 active torsions:
REMARK  status: ('A' for Active; 'I' for Inactive)
REMARK    1  A    between atoms: C_1  and  C_2
REMARK    2  A    between atoms: C_7  and  C_8
REMARK    3  A    between atoms: C_19  and  C_20
REMARK    4  A    between atoms: C_20  and  C_21
REMARK    5  A    between atoms: C_20  and  C_27
REMARK                            x       y       z     vdW  Elec       q    Type
REMARK                         _______ _______ _______ _____ _____    ______ ____
ROOT
ATOM      1  C   UNL     1      -0.025   8.992  21.848  0.00  0.00    +0.000 C 
ATOM      2  C   UNL     1       0.821   8.647  20.669  0.00  0.00    +0.000 C 
ATOM      3  N   UNL     1       1.459   7.514  20.582  0.00  0.00    +0.000 NA
ATOM      4  N   UNL     1       2.093   7.514  19.338  0.00  0.00    +0.000 N 
ATOM      5  C   UNL     1       2.962   6.519  18.930  0.00  0.00    +0.000 A 
ATOM      6  N   UNL     1       3.587   6.416  17.778  0.00  0.00    +0.000 NA
ATOM      7  C   UNL     1       4.456   5.333  17.798  0.00  0.00    +0.000 A 
ATOM      8  C   UNL     1       4.442   4.606  18.972  0.00  0.00    +0.000 A 
ATOM      9  S   UNL     1       3.330   5.288  20.074  0.00  0.00    +0.000 S 
ATOM     10  C   UNL     1       1.857   8.654  18.566  0.00  0.00    +0.000 C 
ATOM     11  O   UNL     1       2.208   8.986  17.450  0.00  0.00    +0.000 OA
ATOM     12  C   UNL     1       1.038   9.498  19.489  0.00  0.00    +0.000 C 
ATOM     13  C   UNL     1       0.730  10.764  19.164  0.00  0.00    +0.000 C 
ENDROOT
BRANCH   7  14
ATOM     14  C   UNL     1       5.312   5.014  16.658  0.00  0.00    +0.000 A 
ATOM     15  C   UNL     1       6.654   5.425  16.619  0.00  0.00    +0.000 A 
ATOM     16  C   UNL     1       7.459   5.130  15.516  0.00  0.00    +0.000 A 
ATOM     17  C   UNL     1       6.934   4.420  14.441  0.00  0.00    +0.000 A 
ATOM     18  C   UNL     1       5.604   4.002  14.467  0.00  0.00    +0.000 A 
ATOM     19  C   UNL     1       4.796   4.300  15.569  0.00  0.00    +0.000 A 
ENDBRANCH   7  14
BRANCH  13  20
ATOM     20  C   UNL     1       0.030  11.838  19.968  0.00  0.00    +0.000 C 
BRANCH  20  21
ATOM     21  C   UNL     1       0.781  13.171  19.889  0.00  0.00    +0.000 A 
ATOM     22  C   UNL     1       1.119  13.756  18.657  0.00  0.00    +0.000 A 
ATOM     23  C   UNL     1       1.840  14.953  18.608  0.00  0.00    +0.000 A 
ATOM     24  C   UNL     1       2.218  15.592  19.785  0.00  0.00    +0.000 A 
ATOM     25  C   UNL     1       1.884  15.034  21.015  0.00  0.00    +0.000 A 
ATOM     26  C   UNL     1       1.173  13.832  21.068  0.00  0.00    +0.000 A 
ENDBRANCH  20  21
BRANCH  20  27
ATOM     27  C   UNL     1      -1.461  11.967  19.648  0.00  0.00    +0.000 A 
ATOM     28  C   UNL     1      -2.302  12.635  20.557  0.00  0.00    +0.000 A 
ATOM     29  C   UNL     1      -3.681  12.712  20.337  0.00  0.00    +0.000 A 
ATOM     30  C   UNL     1      -4.239  12.135  19.200  0.00  0.00    +0.000 A 
ATOM     31  C   UNL     1      -3.417  11.507  18.268  0.00  0.00    +0.000 A 
ATOM     32  C   UNL     1      -2.039  11.432  18.485  0.00  0.00    +0.000 A 
ENDBRANCH  20  27
ENDBRANCH  13  20
TORSDOF 4
ENDMDL
MODEL 5
REMARK VINA RESULT:      -8.5      1.051      1.201
REMARK  Name = 
REMARK  5 active torsions:
REMARK  status: ('A' for Active; 'I' for Inactive)
REMARK    1  A    between atoms: C_1  and  C_2
REMARK    2  A    between atoms: C_7  and  C_8
REMARK    3  A    between atoms: C_19  and  C_20
REMARK    4  A    between atoms: C_20  and  C_21
REMARK    5  A    between atoms: C_20  and  C_27
REMARK                            x       y       z     vdW  Elec       q    Type
REMARK                         _______ _______ _______ _____ _____    ______ ____
ROOT
ATOM      1  C   UNL     1      -0.233   9.695  21.909  0.00  0.00    +0.000 C 
ATOM      2  C   UNL     1       0.570   9.254  20.733  0.00  0.00    +0.000 C 
ATOM      3  N   UNL     1       1.130   8.078  20.677  0.00  0.00    +0.000 NA
ATOM      4  N   UNL     1       1.744   7.993  19.426  0.00  0.00    +0.000 N 
ATOM      5  C   UNL     1       2.538   6.928  19.043  0.00  0.00    +0.000 A 
ATOM      6  N   UNL     1       3.138   6.744  17.887  0.00  0.00    +0.000 NA
ATOM      7  C   UNL     1       3.932   5.605  17.935  0.00  0.00    +0.000 A 
ATOM      8  C   UNL     1       3.886   4.921  19.133  0.00  0.00    +0.000 A 
ATOM      9  S   UNL     1       2.838   5.714  20.224  0.00  0.00    +0.000 S 
ATOM     10  C   UNL     1       1.574   9.120  18.619  0.00  0.00    +0.000 C 
ATOM     11  O   UNL     1       1.930   9.390  17.487  0.00  0.00    +0.000 OA
ATOM     12  C   UNL     1       0.827  10.049  19.522  0.00  0.00    +0.000 C 
ATOM     13  C   UNL     1       0.601  11.321  19.157  0.00  0.00    +0.000 C 
ENDROOT
BRANCH   7  14
ATOM     14  C   UNL     1       4.747   5.191  16.796  0.00  0.00    +0.000 A 
ATOM     15  C   UNL     1       5.077   3.842  16.590  0.00  0.00    +0.000 A 
ATOM     16  C   UNL     1       5.871   3.458  15.507  0.00  0.00    +0.000 A 
ATOM     17  C   UNL     1       6.344   4.417  14.616  0.00  0.00    +0.000 A 
ATOM     18  C   UNL     1       6.022   5.760  14.805  0.00  0.00    +0.000 A 
ATOM     19  C   UNL     1       5.230   6.146  15.891  0.00  0.00    +0.000 A 
ENDBRANCH   7  14
BRANCH  13  20
ATOM     20  C   UNL     1      -0.013  12.466  19.932  0.00  0.00    +0.000 C 
BRANCH  20  21
ATOM     21  C   UNL     1       0.552  13.814  19.474  0.00  0.00    +0.000 A 
ATOM     22  C   UNL     1      -0.286  14.879  19.104  0.00  0.00    +0.000 A 
ATOM     23  C   UNL     1       0.251  16.087  18.650  0.00  0.00    +0.000 A 
ATOM     24  C   UNL     1       1.630  16.258  18.576  0.00  0.00    +0.000 A 
ATOM     25  C   UNL     1       2.477  15.219  18.948  0.00  0.00    +0.000 A 
ATOM     26  C   UNL     1       1.944  14.005  19.391  0.00  0.00    +0.000 A 
ENDBRANCH  20  21
BRANCH  20  27
ATOM     27  C   UNL     1      -1.542  12.433  19.962  0.00  0.00    +0.000 A 
ATOM     28  C   UNL     1      -2.239  11.899  18.863  0.00  0.00    +0.000 A 
ATOM     29  C   UNL     1      -3.637  11.915  18.820  0.00  0.00    +0.000 A 
ATOM     30  C   UNL     1      -4.360  12.452  19.881  0.00  0.00    +0.000 A 
ATOM     31  C   UNL     1      -3.690  12.947  20.996  0.00  0.00    +0.000 A 
ATOM     32  C   UNL     1      -2.293  12.929  21.041  0.00  0.00    +0.000 A 
ENDBRANCH  20  27
ENDBRANCH  13  20
TORSDOF 4
ENDMDL
MODEL 6
REMARK VINA RESULT:      -8.4      2.873      5.183
REMARK  Name = 
REMARK  5 active torsions:
REMARK  status: ('A' for Active; 'I' for Inactive)
REMARK    1  A    between atoms: C_1  and  C_2
REMARK    2  A    between atoms: C_7  and  C_8
REMARK    3  A    between atoms: C_19  and  C_20
REMARK    4  A    between atoms: C_20  and  C_21
REMARK    5  A    between atoms: C_20  and  C_27
REMARK                            x       y       z     vdW  Elec       q    Type
REMARK                         _______ _______ _______ _____ _____    ______ ____
ROOT
ATOM      1  C   UNL     1       0.153  12.932  18.507  0.00  0.00    +0.000 C 
ATOM      2  C   UNL     1       0.326  11.584  19.121  0.00  0.00    +0.000 C 
ATOM      3  N   UNL     1       1.193  10.722  18.669  0.00  0.00    +0.000 NA
ATOM      4  N   UNL     1       1.117   9.610  19.509  0.00  0.00    +0.000 N 
ATOM      5  C   UNL     1       1.813   8.438  19.278  0.00  0.00    +0.000 A 
ATOM      6  N   UNL     1       1.828   7.349  20.016  0.00  0.00    +0.000 NA
ATOM      7  C   UNL     1       2.562   6.352  19.387  0.00  0.00    +0.000 A 
ATOM      8  C   UNL     1       3.128   6.727  18.184  0.00  0.00    +0.000 A 
ATOM      9  S   UNL     1       2.733   8.349  17.827  0.00  0.00    +0.000 S 
ATOM     10  C   UNL     1       0.202   9.734  20.556  0.00  0.00    +0.000 C 
ATOM     11  O   UNL     1      -0.108   9.003  21.477  0.00  0.00    +0.000 OA
ATOM     12  C   UNL     1      -0.423  11.064  20.276  0.00  0.00    +0.000 C 
ATOM     13  C   UNL     1      -1.479  11.486  20.989  0.00  0.00    +0.000 C 
ENDROOT
BRANCH   7  14
ATOM     14  C   UNL     1       2.703   5.020  19.969  0.00  0.00    +0.000 A 
ATOM     15  C   UNL     1       3.676   4.122  19.502  0.00  0.00    +0.000 A 
ATOM     16  C   UNL     1       3.791   2.844  20.053  0.00  0.00    +0.000 A 
ATOM     17  C   UNL     1       2.938   2.449  21.080  0.00  0.00    +0.000 A 
ATOM     18  C   UNL     1       1.970   3.332  21.557  0.00  0.00    +0.000 A 
ATOM     19  C   UNL     1       1.851   4.610  21.002  0.00  0.00    +0.000 A 
ENDBRANCH   7  14
BRANCH  13  20
ATOM     20  C   UNL     1      -2.346  12.714  20.820  0.00  0.00    +0.000 C 
BRANCH  20  21
ATOM     21  C   UNL     1      -3.504  12.450  19.852  0.00  0.00    +0.000 A 
ATOM     22  C   UNL     1      -3.324  11.713  18.669  0.00  0.00    +0.000 A 
ATOM     23  C   UNL     1      -4.385  11.519  17.780  0.00  0.00    +0.000 A 
ATOM     24  C   UNL     1      -5.644  12.040  18.066  0.00  0.00    +0.000 A 
ATOM     25  C   UNL     1      -5.844  12.763  19.237  0.00  0.00    +0.000 A 
ATOM     26  C   UNL     1      -4.783  12.970  20.123  0.00  0.00    +0.000 A 
ENDBRANCH  20  21
BRANCH  20  27
ATOM     27  C   UNL     1      -2.798  13.330  22.145  0.00  0.00    +0.000 A 
ATOM     28  C   UNL     1      -3.288  12.490  23.162  0.00  0.00    +0.000 A 
ATOM     29  C   UNL     1      -3.776  13.019  24.360  0.00  0.00    +0.000 A 
ATOM     30  C   UNL     1      -3.770  14.395  24.568  0.00  0.00    +0.000 A 
ATOM     31  C   UNL     1      -3.250  15.240  23.592  0.00  0.00    +0.000 A 
ATOM     32  C   UNL     1      -2.759  14.712  22.395  0.00  0.00    +0.000 A 
ENDBRANCH  20  27
ENDBRANCH  13  20
TORSDOF 4
ENDMDL
MODEL 7
REMARK VINA RESULT:      -8.4      2.854      5.199
REMARK  Name = 
REMARK  5 active torsions:
REMARK  status: ('A' for Active; 'I' for Inactive)
REMARK    1  A    between atoms: C_1  and  C_2
REMARK    2  A    between atoms: C_7  and  C_8
REMARK    3  A    between atoms: C_19  and  C_20
REMARK    4  A    between atoms: C_20  and  C_21
REMARK    5  A    between atoms: C_20  and  C_27
REMARK                            x       y       z     vdW  Elec       q    Type
REMARK                         _______ _______ _______ _____ _____    ______ ____
ROOT
ATOM      1  C   UNL     1       0.194  12.833  18.431  0.00  0.00    +0.000 C 
ATOM      2  C   UNL     1       0.354  11.489  19.055  0.00  0.00    +0.000 C 
ATOM      3  N   UNL     1       1.231  10.625  18.626  0.00  0.00    +0.000 NA
ATOM      4  N   UNL     1       1.137   9.517  19.469  0.00  0.00    +0.000 N 
ATOM      5  C   UNL     1       1.839   8.344  19.259  0.00  0.00    +0.000 A 
ATOM      6  N   UNL     1       1.838   7.259  20.002  0.00  0.00    +0.000 NA
ATOM      7  C   UNL     1       2.587   6.260  19.394  0.00  0.00    +0.000 A 
ATOM      8  C   UNL     1       3.178   6.629  18.203  0.00  0.00    +0.000 A 
ATOM      9  S   UNL     1       2.790   8.249  17.829  0.00  0.00    +0.000 S 
ATOM     10  C   UNL     1       0.199   9.646  20.495  0.00  0.00    +0.000 C 
ATOM     11  O   UNL     1      -0.131   8.918  21.413  0.00  0.00    +0.000 OA
ATOM     12  C   UNL     1      -0.420  10.973  20.196  0.00  0.00    +0.000 C 
ATOM     13  C   UNL     1      -1.492  11.398  20.883  0.00  0.00    +0.000 C 
ENDROOT
BRANCH   7  14
ATOM     14  C   UNL     1       2.715   4.930  19.985  0.00  0.00    +0.000 A 
ATOM     15  C   UNL     1       1.858   4.506  21.013  0.00  0.00    +0.000 A 
ATOM     16  C   UNL     1       2.000   3.239  21.584  0.00  0.00    +0.000 A 
ATOM     17  C   UNL     1       2.998   2.380  21.133  0.00  0.00    +0.000 A 
ATOM     18  C   UNL     1       3.854   2.786  20.111  0.00  0.00    +0.000 A 
ATOM     19  C   UNL     1       3.716   4.056  19.541  0.00  0.00    +0.000 A 
ENDBRANCH   7  14
BRANCH  13  20
ATOM     20  C   UNL     1      -2.356  12.625  20.689  0.00  0.00    +0.000 C 
BRANCH  20  21
ATOM     21  C   UNL     1      -3.523  12.340  19.739  0.00  0.00    +0.000 A 
ATOM     22  C   UNL     1      -4.848  12.657  20.083  0.00  0.00    +0.000 A 
ATOM     23  C   UNL     1      -5.903  12.352  19.218  0.00  0.00    +0.000 A 
ATOM     24  C   UNL     1      -5.651  11.743  17.992  0.00  0.00    +0.000 A 
ATOM     25  C   UNL     1      -4.345  11.430  17.629  0.00  0.00    +0.000 A 
ATOM     26  C   UNL     1      -3.288  11.724  18.496  0.00  0.00    +0.000 A 
ENDBRANCH  20  21
BRANCH  20  27
ATOM     27  C   UNL     1      -2.792  13.278  22.002  0.00  0.00    +0.000 A 
ATOM     28  C   UNL     1      -3.168  12.461  23.084  0.00  0.00    +0.000 A 
ATOM     29  C   UNL     1      -3.641  13.017  24.276  0.00  0.00    +0.000 A 
ATOM     30  C   UNL     1      -3.733  14.399  24.412  0.00  0.00    +0.000 A 
ATOM     31  C   UNL     1      -3.326  15.226  23.368  0.00  0.00    +0.000 A 
ATOM     32  C   UNL     1      -2.850  14.671  22.178  0.00  0.00    +0.000 A 
ENDBRANCH  20  27
ENDBRANCH  13  20
TORSDOF 4
ENDMDL
MODEL 8
REMARK VINA RESULT:      -8.3      1.096      1.460
REMARK  Name = 
REMARK  5 active torsions:
REMARK  status: ('A' for Active; 'I' for Inactive)
REMARK    1  A    between atoms: C_1  and  C_2
REMARK    2  A    between atoms: C_7  and  C_8
REMARK    3  A    between atoms: C_19  and  C_20
REMARK    4  A    between atoms: C_20  and  C_21
REMARK    5  A    between atoms: C_20  and  C_27
REMARK                            x       y       z     vdW  Elec       q    Type
REMARK                         _______ _______ _______ _____ _____    ______ ____
ROOT
ATOM      1  C   UNL     1      -0.412   9.399  22.592  0.00  0.00    +0.000 C 
ATOM      2  C   UNL     1       0.408   9.060  21.393  0.00  0.00    +0.000 C 
ATOM      3  N   UNL     1       0.911   7.871  21.211  0.00  0.00    +0.000 NA
ATOM      4  N   UNL     1       1.561   7.905  19.976  0.00  0.00    +0.000 N 
ATOM      5  C   UNL     1       2.315   6.853  19.489  0.00  0.00    +0.000 A 
ATOM      6  N   UNL     1       2.944   6.777  18.336  0.00  0.00    +0.000 NA
ATOM      7  C   UNL     1       3.680   5.602  18.267  0.00  0.00    +0.000 A 
ATOM      8  C   UNL     1       3.561   4.783  19.372  0.00  0.00    +0.000 A 
ATOM      9  S   UNL     1       2.517   5.493  20.522  0.00  0.00    +0.000 S 
ATOM     10  C   UNL     1       1.473   9.127  19.307  0.00  0.00    +0.000 C 
ATOM     11  O   UNL     1       1.880   9.511  18.226  0.00  0.00    +0.000 OA
ATOM     12  C   UNL     1       0.743   9.979  20.294  0.00  0.00    +0.000 C 
ATOM     13  C   UNL     1       0.591  11.296  20.080  0.00  0.00    +0.000 C 
ENDROOT
BRANCH   7  14
ATOM     14  C   UNL     1       4.512   5.285  17.109  0.00  0.00    +0.000 A 
ATOM     15  C   UNL     1       4.983   6.294  16.254  0.00  0.00    +0.000 A 
ATOM     16  C   UNL     1       5.763   5.979  15.139  0.00  0.00    +0.000 A 
ATOM     17  C   UNL     1       6.086   4.653  14.867  0.00  0.00    +0.000 A 
ATOM     18  C   UNL     1       5.629   3.640  15.710  0.00  0.00    +0.000 A 
ATOM     19  C   UNL     1       4.843   3.954  16.823  0.00  0.00    +0.000 A 
ENDBRANCH   7  14
BRANCH  13  20
ATOM     20  C   UNL     1       0.008  12.371  20.970  0.00  0.00    +0.000 C 
BRANCH  20  21
ATOM     21  C   UNL     1       0.670  13.727  20.713  0.00  0.00    +0.000 A 
ATOM     22  C   UNL     1       1.035  14.137  19.419  0.00  0.00    +0.000 A 
ATOM     23  C   UNL     1       1.676  15.362  19.212  0.00  0.00    +0.000 A 
ATOM     24  C   UNL     1       1.946  16.203  20.287  0.00  0.00    +0.000 A 
ATOM     25  C   UNL     1       1.584  15.820  21.575  0.00  0.00    +0.000 A 
ATOM     26  C   UNL     1       0.953  14.591  21.788  0.00  0.00    +0.000 A 
ENDBRANCH  20  21
BRANCH  20  27
ATOM     27  C   UNL     1      -1.521  12.431  20.935  0.00  0.00    +0.000 A 
ATOM     28  C   UNL     1      -2.186  12.268  19.706  0.00  0.00    +0.000 A 
ATOM     29  C   UNL     1      -3.576  12.387  19.619  0.00  0.00    +0.000 A 
ATOM     30  C   UNL     1      -4.326  12.657  20.760  0.00  0.00    +0.000 A 
ATOM     31  C   UNL     1      -3.690  12.779  21.992  0.00  0.00    +0.000 A 
ATOM     32  C   UNL     1      -2.301  12.657  22.081  0.00  0.00    +0.000 A 
ENDBRANCH  20  27
ENDBRANCH  13  20
TORSDOF 4
ENDMDL
MODEL 9
REMARK VINA RESULT:      -8.3      1.171      1.728
REMARK  Name = 
REMARK  5 active torsions:
REMARK  status: ('A' for Active; 'I' for Inactive)
REMARK    1  A    between atoms: C_1  and  C_2
REMARK    2  A    between atoms: C_7  and  C_8
REMARK    3  A    between atoms: C_19  and  C_20
REMARK    4  A    between atoms: C_20  and  C_21
REMARK    5  A    between atoms: C_20  and  C_27
REMARK                            x       y       z     vdW  Elec       q    Type
REMARK                         _______ _______ _______ _____ _____    ______ ____
ROOT
ATOM      1  C   UNL     1      -0.284  10.037  21.842  0.00  0.00    +0.000 C 
ATOM      2  C   UNL     1       0.533   9.549  20.695  0.00  0.00    +0.000 C 
ATOM      3  N   UNL     1       1.048   8.352  20.670  0.00  0.00    +0.000 NA
ATOM      4  N   UNL     1       1.692   8.226  19.437  0.00  0.00    +0.000 N 
ATOM      5  C   UNL     1       2.455   7.126  19.090  0.00  0.00    +0.000 A 
ATOM      6  N   UNL     1       3.078   6.903  17.953  0.00  0.00    +0.000 NA
ATOM      7  C   UNL     1       3.827   5.736  18.038  0.00  0.00    +0.000 A 
ATOM      8  C   UNL     1       3.722   5.072  19.243  0.00  0.00    +0.000 A 
ATOM      9  S   UNL     1       2.676   5.919  20.294  0.00  0.00    +0.000 S 
ATOM     10  C   UNL     1       1.588   9.347  18.611  0.00  0.00    +0.000 C 
ATOM     11  O   UNL     1       1.984   9.587  17.486  0.00  0.00    +0.000 OA
ATOM     12  C   UNL     1       0.853  10.316  19.480  0.00  0.00    +0.000 C 
ATOM     13  C   UNL     1       0.685  11.590  19.093  0.00  0.00    +0.000 C 
ENDROOT
BRANCH   7  14
ATOM     14  C   UNL     1       4.656   5.276  16.927  0.00  0.00    +0.000 A 
ATOM     15  C   UNL     1       5.137   6.171  15.959  0.00  0.00    +0.000 A 
ATOM     16  C   UNL     1       5.915   5.718  14.891  0.00  0.00    +0.000 A 
ATOM     17  C   UNL     1       6.224   4.366  14.779  0.00  0.00    +0.000 A 
ATOM     18  C   UNL     1       5.757   3.465  15.735  0.00  0.00    +0.000 A 
ATOM     19  C   UNL     1       4.974   3.917  16.802  0.00  0.00    +0.000 A 
ENDBRANCH   7  14
BRANCH  13  20
ATOM     20  C   UNL     1       0.095  12.769  19.835  0.00  0.00    +0.000 C 
BRANCH  20  21
ATOM     21  C   UNL     1       0.643  14.095  19.300  0.00  0.00    +0.000 A 
ATOM     22  C   UNL     1       2.019  14.297  19.094  0.00  0.00    +0.000 A 
ATOM     23  C   UNL     1       2.501  15.529  18.643  0.00  0.00    +0.000 A 
ATOM     24  C   UNL     1       1.618  16.571  18.373  0.00  0.00    +0.000 A 
ATOM     25  C   UNL     1       0.252  16.388  18.560  0.00  0.00    +0.000 A 
ATOM     26  C   UNL     1      -0.233  15.161  19.022  0.00  0.00    +0.000 A 
ENDBRANCH  20  21
BRANCH  20  27
ATOM     27  C   UNL     1      -1.432  12.738  19.917  0.00  0.00    +0.000 A 
ATOM     28  C   UNL     1      -2.073  13.321  21.025  0.00  0.00    +0.000 A 
ATOM     29  C   UNL     1      -3.462  13.251  21.172  0.00  0.00    +0.000 A 
ATOM     30  C   UNL     1      -4.234  12.609  20.208  0.00  0.00    +0.000 A 
ATOM     31  C   UNL     1      -3.622  12.063  19.083  0.00  0.00    +0.000 A 
ATOM     32  C   UNL     1      -2.235  12.135  18.933  0.00  0.00    +0.000 A 
ENDBRANCH  20  27
ENDBRANCH  13  20
TORSDOF 4
ENDMDL
