MODEL 1
REMARK VINA RESULT:      -7.0      0.000      0.000
REMARK  Name = 
REMARK  10 active torsions:
REMARK  status: ('A' for Active; 'I' for Inactive)
REMARK    1  A    between atoms: C_1  and  O_2
REMARK    2  A    between atoms: O_2  and  C_3
REMARK    3  A    between atoms: C_8  and  O_9
REMARK    4  A    between atoms: O_9  and  C_10
REMARK    5  A    between atoms: C_12  and  O_14
REMARK    6  A    between atoms: O_14  and  C_15
REMARK    7  A    between atoms: C_15  and  C_16
REMARK    8  A    between atoms: C_16  and  S_17
REMARK    9  A    between atoms: S_17  and  C_20
REMARK   10  A    between atoms: C_26  and  O_27
REMARK                            x       y       z     vdW  Elec       q    Type
REMARK                         _______ _______ _______ _____ _____    ______ ____
ROOT
ATOM      1  C   UNL     1      -3.500  11.828  18.277  0.00  0.00    +0.000 A 
ATOM      2  C   UNL     1      -4.574  11.913  19.180  0.00  0.00    +0.000 A 
ATOM      3  C   UNL     1      -4.433  12.582  20.399  0.00  0.00    +0.000 A 
ATOM      4  C   UNL     1      -3.204  13.146  20.744  0.00  0.00    +0.000 A 
ATOM      5  C   UNL     1      -2.117  13.018  19.874  0.00  0.00    +0.000 A 
ATOM      6  C   UNL     1      -2.255  12.375  18.635  0.00  0.00    +0.000 A 
ATOM      7  N   UNL     1      -3.006  13.862  21.951  0.00  0.00    +0.000 N 
ATOM      8  C   UNL     1      -2.496  13.220  23.068  0.00  0.00    +0.000 C 
ATOM      9  O   UNL     1      -2.098  13.777  24.085  0.00  0.00    +0.000 OA
ATOM     10  C   UNL     1      -3.708  15.126  22.129  0.00  0.00    +0.000 C 
ATOM     11  C   UNL     1      -5.167  15.098  21.592  0.00  0.00    +0.000 C 
ATOM     12  C   UNL     1      -6.060  16.197  22.184  0.00  0.00    +0.000 C 
ATOM     13  C   UNL     1      -7.317  15.470  22.673  0.00  0.00    +0.000 C 
ATOM     14  C   UNL     1      -6.850  14.050  22.936  0.00  0.00    +0.000 C 
ATOM     15  N   UNL     1      -5.846  13.850  21.920  0.00  0.00    +0.000 N 
ATOM     16  C   UNL     1      -5.595  12.635  21.322  0.00  0.00    +0.000 C 
ATOM     17  O   UNL     1      -6.274  11.634  21.495  0.00  0.00    +0.000 OA
ENDROOT
BRANCH   1  19
ATOM     18  C   UNL     1      -3.167   9.845  17.005  0.00  0.00    +0.000 C 
ATOM     19  O   UNL     1      -3.620  11.193  17.069  0.00  0.00    +0.000 OA
ENDBRANCH   1  19
BRANCH   6  20
ATOM     20  O   UNL     1      -1.088  12.404  17.918  0.00  0.00    +0.000 OA
ATOM     21  C   UNL     1      -0.060  13.302  18.304  0.00  0.00    +0.000 C 
ENDBRANCH   6  20
BRANCH  10  22
ATOM     22  O   UNL     1      -2.975  16.136  21.444  0.00  0.00    +0.000 OA
ATOM     23  H   UNL     1      -2.038  15.966  21.627  0.00  0.00    +0.000 HD
ENDBRANCH  10  22
BRANCH   8  24
ATOM     24  O   UNL     1      -2.536  11.862  22.946  0.00  0.00    +0.000 OA
BRANCH  24  25
ATOM     25  C   UNL     1      -1.310  11.151  23.147  0.00  0.00    +0.000 C 
BRANCH  25  26
ATOM     26  C   UNL     1      -0.509  10.871  21.892  0.00  0.00    +0.000 C 
BRANCH  26  27
ATOM     27  S   UNL     1       0.295   9.292  22.081  0.00  0.00    +0.000 S 
ATOM     28  O   UNL     1       1.409   9.456  22.997  0.00  0.00    +0.000 OA
ATOM     29  O   UNL     1      -0.722   8.287  22.330  0.00  0.00    +0.000 OA
BRANCH  27  30
ATOM     30  C   UNL     1       0.971   8.968  20.474  0.00  0.00    +0.000 A 
ATOM     31  C   UNL     1       1.772   7.840  20.279  0.00  0.00    +0.000 A 
ATOM     32  C   UNL     1       2.316   7.596  19.019  0.00  0.00    +0.000 A 
ATOM     33  C   UNL     1       2.043   8.464  17.961  0.00  0.00    +0.000 A 
ATOM     34  C   UNL     1       1.211   9.570  18.153  0.00  0.00    +0.000 A 
ATOM     35  C   UNL     1       0.666   9.823  19.411  0.00  0.00    +0.000 A 
ENDBRANCH  27  30
ENDBRANCH  26  27
ENDBRANCH  25  26
ENDBRANCH  24  25
ENDBRANCH   8  24
TORSDOF 8
ENDMDL
MODEL 2
REMARK VINA RESULT:      -7.0      1.168      1.521
REMARK  Name = 
REMARK  10 active torsions:
REMARK  status: ('A' for Active; 'I' for Inactive)
REMARK    1  A    between atoms: C_1  and  O_2
REMARK    2  A    between atoms: O_2  and  C_3
REMARK    3  A    between atoms: C_8  and  O_9
REMARK    4  A    between atoms: O_9  and  C_10
REMARK    5  A    between atoms: C_12  and  O_14
REMARK    6  A    between atoms: O_14  and  C_15
REMARK    7  A    between atoms: C_15  and  C_16
REMARK    8  A    between atoms: C_16  and  S_17
REMARK    9  A    between atoms: S_17  and  C_20
REMARK   10  A    between atoms: C_26  and  O_27
REMARK                            x       y       z     vdW  Elec       q    Type
REMARK                         _______ _______ _______ _____ _____    ______ ____
ROOT
ATOM      1  C   UNL     1      -4.590  11.912  19.024  0.00  0.00    +0.000 A 
ATOM      2  C   UNL     1      -5.214  12.456  20.159  0.00  0.00    +0.000 A 
ATOM      3  C   UNL     1      -4.469  13.122  21.136  0.00  0.00    +0.000 A 
ATOM      4  C   UNL     1      -3.083  13.224  21.003  0.00  0.00    +0.000 A 
ATOM      5  C   UNL     1      -2.450  12.637  19.904  0.00  0.00    +0.000 A 
ATOM      6  C   UNL     1      -3.191  11.992  18.902  0.00  0.00    +0.000 A 
ATOM      7  N   UNL     1      -2.277  13.912  21.943  0.00  0.00    +0.000 N 
ATOM      8  C   UNL     1      -1.659  13.220  22.973  0.00  0.00    +0.000 C 
ATOM      9  O   UNL     1      -0.789  13.673  23.708  0.00  0.00    +0.000 OA
ATOM     10  C   UNL     1      -2.434  15.355  22.065  0.00  0.00    +0.000 C 
ATOM     11  C   UNL     1      -3.916  15.819  21.978  0.00  0.00    +0.000 C 
ATOM     12  C   UNL     1      -4.158  17.213  22.575  0.00  0.00    +0.000 C 
ATOM     13  C   UNL     1      -5.343  17.038  23.530  0.00  0.00    +0.000 C 
ATOM     14  C   UNL     1      -5.297  15.571  23.920  0.00  0.00    +0.000 C 
ATOM     15  N   UNL     1      -4.809  14.937  22.720  0.00  0.00    +0.000 N 
ATOM     16  C   UNL     1      -5.175  13.670  22.321  0.00  0.00    +0.000 C 
ATOM     17  O   UNL     1      -6.041  13.005  22.869  0.00  0.00    +0.000 OA
ENDROOT
BRANCH   1  19
ATOM     18  C   UNL     1      -6.592  10.783  18.404  0.00  0.00    +0.000 C 
ATOM     19  O   UNL     1      -5.302  11.270  18.045  0.00  0.00    +0.000 OA
ENDBRANCH   1  19
BRANCH   6  20
ATOM     20  O   UNL     1      -2.386  11.534  17.893  0.00  0.00    +0.000 OA
ATOM     21  C   UNL     1      -2.338  10.142  17.623  0.00  0.00    +0.000 C 
ENDBRANCH   6  20
BRANCH  10  22
ATOM     22  O   UNL     1      -1.688  15.968  21.019  0.00  0.00    +0.000 OA
ATOM     23  H   UNL     1      -2.258  15.963  20.236  0.00  0.00    +0.000 HD
ENDBRANCH  10  22
BRANCH   8  24
ATOM     24  O   UNL     1      -2.170  11.966  23.132  0.00  0.00    +0.000 OA
BRANCH  24  25
ATOM     25  C   UNL     1      -1.241  10.878  23.157  0.00  0.00    +0.000 C 
BRANCH  25  26
ATOM     26  C   UNL     1      -0.331  10.773  21.949  0.00  0.00    +0.000 C 
BRANCH  26  27
ATOM     27  S   UNL     1       0.437   9.165  21.963  0.00  0.00    +0.000 S 
ATOM     28  O   UNL     1       1.558   9.206  22.884  0.00  0.00    +0.000 OA
ATOM     29  O   UNL     1      -0.602   8.163  22.110  0.00  0.00    +0.000 OA
BRANCH  27  30
ATOM     30  C   UNL     1       1.099   9.000  20.326  0.00  0.00    +0.000 A 
ATOM     31  C   UNL     1       1.858   7.872  20.002  0.00  0.00    +0.000 A 
ATOM     32  C   UNL     1       2.391   7.752  18.720  0.00  0.00    +0.000 A 
ATOM     33  C   UNL     1       2.149   8.743  17.768  0.00  0.00    +0.000 A 
ATOM     34  C   UNL     1       1.359   9.850  18.087  0.00  0.00    +0.000 A 
ATOM     35  C   UNL     1       0.824   9.980  19.368  0.00  0.00    +0.000 A 
ENDBRANCH  27  30
ENDBRANCH  26  27
ENDBRANCH  25  26
ENDBRANCH  24  25
ENDBRANCH   8  24
TORSDOF 8
ENDMDL
MODEL 3
REMARK VINA RESULT:      -6.9      2.164      4.686
REMARK  Name = 
REMARK  10 active torsions:
REMARK  status: ('A' for Active; 'I' for Inactive)
REMARK    1  A    between atoms: C_1  and  O_2
REMARK    2  A    between atoms: O_2  and  C_3
REMARK    3  A    between atoms: C_8  and  O_9
REMARK    4  A    between atoms: O_9  and  C_10
REMARK    5  A    between atoms: C_12  and  O_14
REMARK    6  A    between atoms: O_14  and  C_15
REMARK    7  A    between atoms: C_15  and  C_16
REMARK    8  A    between atoms: C_16  and  S_17
REMARK    9  A    between atoms: S_17  and  C_20
REMARK   10  A    between atoms: C_26  and  O_27
REMARK                            x       y       z     vdW  Elec       q    Type
REMARK                         _______ _______ _______ _____ _____    ______ ____
ROOT
ATOM      1  C   UNL     1      -0.391  13.721  22.120  0.00  0.00    +0.000 A 
ATOM      2  C   UNL     1      -1.312  14.718  21.754  0.00  0.00    +0.000 A 
ATOM      3  C   UNL     1      -2.686  14.464  21.771  0.00  0.00    +0.000 A 
ATOM      4  C   UNL     1      -3.154  13.197  22.122  0.00  0.00    +0.000 A 
ATOM      5  C   UNL     1      -2.241  12.186  22.434  0.00  0.00    +0.000 A 
ATOM      6  C   UNL     1      -0.861  12.437  22.450  0.00  0.00    +0.000 A 
ATOM      7  N   UNL     1      -4.535  12.886  22.187  0.00  0.00    +0.000 N 
ATOM      8  C   UNL     1      -5.172  12.308  21.101  0.00  0.00    +0.000 C 
ATOM      9  O   UNL     1      -6.296  11.817  21.118  0.00  0.00    +0.000 OA
ATOM     10  C   UNL     1      -5.344  13.538  23.208  0.00  0.00    +0.000 C 
ATOM     11  C   UNL     1      -4.978  15.036  23.417  0.00  0.00    +0.000 C 
ATOM     12  C   UNL     1      -6.089  15.850  24.094  0.00  0.00    +0.000 C 
ATOM     13  C   UNL     1      -6.279  17.083  23.206  0.00  0.00    +0.000 C 
ATOM     14  C   UNL     1      -5.803  16.635  21.836  0.00  0.00    +0.000 C 
ATOM     15  N   UNL     1      -4.735  15.719  22.153  0.00  0.00    +0.000 N 
ATOM     16  C   UNL     1      -3.616  15.548  21.367  0.00  0.00    +0.000 C 
ATOM     17  O   UNL     1      -3.352  16.238  20.393  0.00  0.00    +0.000 OA
ENDROOT
BRANCH   1  19
ATOM     18  C   UNL     1       1.380  15.303  21.968  0.00  0.00    +0.000 C 
ATOM     19  O   UNL     1       0.959  13.952  22.128  0.00  0.00    +0.000 OA
ENDBRANCH   1  19
BRANCH   6  20
ATOM     20  O   UNL     1      -0.150  11.329  22.829  0.00  0.00    +0.000 OA
ATOM     21  C   UNL     1      -0.849  10.157  23.216  0.00  0.00    +0.000 C 
ENDBRANCH   6  20
BRANCH  10  22
ATOM     22  O   UNL     1      -5.159  12.834  24.431  0.00  0.00    +0.000 OA
ATOM     23  H   UNL     1      -4.586  12.079  24.229  0.00  0.00    +0.000 HD
ENDBRANCH  10  22
BRANCH   8  24
ATOM     24  O   UNL     1      -4.429  12.393  19.961  0.00  0.00    +0.000 OA
BRANCH  24  25
ATOM     25  C   UNL     1      -4.825  11.571  18.858  0.00  0.00    +0.000 C 
BRANCH  25  26
ATOM     26  C   UNL     1      -4.166  11.899  17.534  0.00  0.00    +0.000 C 
BRANCH  26  27
ATOM     27  S   UNL     1      -3.008  10.601  17.146  0.00  0.00    +0.000 S 
ATOM     28  O   UNL     1      -3.454   9.385  17.802  0.00  0.00    +0.000 OA
ATOM     29  O   UNL     1      -2.761  10.620  15.717  0.00  0.00    +0.000 OA
BRANCH  27  30
ATOM     30  C   UNL     1      -1.512  11.118  17.945  0.00  0.00    +0.000 A 
ATOM     31  C   UNL     1      -1.241  12.482  18.081  0.00  0.00    +0.000 A 
ATOM     32  C   UNL     1      -0.057  12.887  18.694  0.00  0.00    +0.000 A 
ATOM     33  C   UNL     1       0.837  11.934  19.184  0.00  0.00    +0.000 A 
ATOM     34  C   UNL     1       0.543  10.572  19.079  0.00  0.00    +0.000 A 
ATOM     35  C   UNL     1      -0.638  10.158  18.463  0.00  0.00    +0.000 A 
ENDBRANCH  27  30
ENDBRANCH  26  27
ENDBRANCH  25  26
ENDBRANCH  24  25
ENDBRANCH   8  24
TORSDOF 8
ENDMDL
MODEL 4
REMARK VINA RESULT:      -6.7      1.549      1.940
REMARK  Name = 
REMARK  10 active torsions:
REMARK  status: ('A' for Active; 'I' for Inactive)
REMARK    1  A    between atoms: C_1  and  O_2
REMARK    2  A    between atoms: O_2  and  C_3
REMARK    3  A    between atoms: C_8  and  O_9
REMARK    4  A    between atoms: O_9  and  C_10
REMARK    5  A    between atoms: C_12  and  O_14
REMARK    6  A    between atoms: O_14  and  C_15
REMARK    7  A    between atoms: C_15  and  C_16
REMARK    8  A    between atoms: C_16  and  S_17
REMARK    9  A    between atoms: S_17  and  C_20
REMARK   10  A    between atoms: C_26  and  O_27
REMARK                            x       y       z     vdW  Elec       q    Type
REMARK                         _______ _______ _______ _____ _____    ______ ____
ROOT
ATOM      1  C   UNL     1      -4.802  11.775  19.023  0.00  0.00    +0.000 A 
ATOM      2  C   UNL     1      -5.242  12.269  20.263  0.00  0.00    +0.000 A 
ATOM      3  C   UNL     1      -4.339  12.819  21.176  0.00  0.00    +0.000 A 
ATOM      4  C   UNL     1      -2.977  12.852  20.872  0.00  0.00    +0.000 A 
ATOM      5  C   UNL     1      -2.527  12.313  19.664  0.00  0.00    +0.000 A 
ATOM      6  C   UNL     1      -3.428  11.785  18.727  0.00  0.00    +0.000 A 
ATOM      7  N   UNL     1      -2.016  13.423  21.742  0.00  0.00    +0.000 N 
ATOM      8  C   UNL     1      -1.321  12.624  22.636  0.00  0.00    +0.000 C 
ATOM      9  O   UNL     1      -0.337  12.972  23.280  0.00  0.00    +0.000 OA
ATOM     10  C   UNL     1      -2.063  14.860  21.977  0.00  0.00    +0.000 C 
ATOM     11  C   UNL     1      -3.510  15.412  22.115  0.00  0.00    +0.000 C 
ATOM     12  C   UNL     1      -3.584  16.769  22.828  0.00  0.00    +0.000 C 
ATOM     13  C   UNL     1      -4.648  16.591  23.915  0.00  0.00    +0.000 C 
ATOM     14  C   UNL     1      -4.650  15.100  24.198  0.00  0.00    +0.000 C 
ATOM     15  N   UNL     1      -4.358  14.529  22.906  0.00  0.00    +0.000 N 
ATOM     16  C   UNL     1      -4.854  13.318  22.476  0.00  0.00    +0.000 C 
ATOM     17  O   UNL     1      -5.685  12.663  23.087  0.00  0.00    +0.000 OA
ENDROOT
BRANCH   1  19
ATOM     18  C   UNL     1      -6.730  10.441  18.613  0.00  0.00    +0.000 C 
ATOM     19  O   UNL     1      -5.672  11.248  18.105  0.00  0.00    +0.000 OA
ENDBRANCH   1  19
BRANCH   6  20
ATOM     20  O   UNL     1      -2.787  11.358  17.594  0.00  0.00    +0.000 OA
ATOM     21  C   UNL     1      -1.757  10.388  17.705  0.00  0.00    +0.000 C 
ENDBRANCH   6  20
BRANCH  10  22
ATOM     22  O   UNL     1      -1.415  15.505  20.887  0.00  0.00    +0.000 OA
ATOM     23  H   UNL     1      -0.926  14.816  20.412  0.00  0.00    +0.000 HD
ENDBRANCH  10  22
BRANCH   8  24
ATOM     24  O   UNL     1      -1.888  11.392  22.777  0.00  0.00    +0.000 OA
BRANCH  24  25
ATOM     25  C   UNL     1      -1.013  10.296  23.062  0.00  0.00    +0.000 C 
BRANCH  25  26
ATOM     26  C   UNL     1      -0.591   9.473  21.862  0.00  0.00    +0.000 C 
BRANCH  26  27
ATOM     27  S   UNL     1       1.093   9.891  21.459  0.00  0.00    +0.000 S 
ATOM     28  O   UNL     1       1.092  11.173  20.778  0.00  0.00    +0.000 OA
ATOM     29  O   UNL     1       1.911   9.683  22.639  0.00  0.00    +0.000 OA
BRANCH  27  30
ATOM     30  C   UNL     1       1.561   8.659  20.272  0.00  0.00    +0.000 A 
ATOM     31  C   UNL     1       1.773   7.344  20.693  0.00  0.00    +0.000 A 
ATOM     32  C   UNL     1       2.156   6.380  19.762  0.00  0.00    +0.000 A 
ATOM     33  C   UNL     1       2.306   6.729  18.419  0.00  0.00    +0.000 A 
ATOM     34  C   UNL     1       2.057   8.037  17.997  0.00  0.00    +0.000 A 
ATOM     35  C   UNL     1       1.676   9.008  18.923  0.00  0.00    +0.000 A 
ENDBRANCH  27  30
ENDBRANCH  26  27
ENDBRANCH  25  26
ENDBRANCH  24  25
ENDBRANCH   8  24
TORSDOF 8
ENDMDL
MODEL 5
REMARK VINA RESULT:      -6.7      3.159      7.123
REMARK  Name = 
REMARK  10 active torsions:
REMARK  status: ('A' for Active; 'I' for Inactive)
REMARK    1  A    between atoms: C_1  and  O_2
REMARK    2  A    between atoms: O_2  and  C_3
REMARK    3  A    between atoms: C_8  and  O_9
REMARK    4  A    between atoms: O_9  and  C_10
REMARK    5  A    between atoms: C_12  and  O_14
REMARK    6  A    between atoms: O_14  and  C_15
REMARK    7  A    between atoms: C_15  and  C_16
REMARK    8  A    between atoms: C_16  and  S_17
REMARK    9  A    between atoms: S_17  and  C_20
REMARK   10  A    between atoms: C_26  and  O_27
REMARK                            x       y       z     vdW  Elec       q    Type
REMARK                         _______ _______ _______ _____ _____    ______ ____
ROOT
ATOM      1  C   UNL     1       0.730  15.578  20.745  0.00  0.00    +0.000 A 
ATOM      2  C   UNL     1       0.450  14.532  21.640  0.00  0.00    +0.000 A 
ATOM      3  C   UNL     1      -0.211  13.379  21.209  0.00  0.00    +0.000 A 
ATOM      4  C   UNL     1      -0.629  13.273  19.881  0.00  0.00    +0.000 A 
ATOM      5  C   UNL     1      -0.402  14.333  19.000  0.00  0.00    +0.000 A 
ATOM      6  C   UNL     1       0.286  15.483  19.414  0.00  0.00    +0.000 A 
ATOM      7  N   UNL     1      -1.276  12.118  19.376  0.00  0.00    +0.000 N 
ATOM      8  C   UNL     1      -2.660  12.057  19.329  0.00  0.00    +0.000 C 
ATOM      9  O   UNL     1      -3.311  11.207  18.732  0.00  0.00    +0.000 OA
ATOM     10  C   UNL     1      -0.518  10.876  19.303  0.00  0.00    +0.000 C 
ATOM     11  C   UNL     1       0.407  10.649  20.532  0.00  0.00    +0.000 C 
ATOM     12  C   UNL     1       0.825   9.184  20.723  0.00  0.00    +0.000 C 
ATOM     13  C   UNL     1       0.518   8.869  22.190  0.00  0.00    +0.000 C 
ATOM     14  C   UNL     1      -0.581   9.848  22.562  0.00  0.00    +0.000 C 
ATOM     15  N   UNL     1      -0.247  11.014  21.782  0.00  0.00    +0.000 N 
ATOM     16  C   UNL     1      -0.491  12.306  22.196  0.00  0.00    +0.000 C 
ATOM     17  O   UNL     1      -0.897  12.602  23.310  0.00  0.00    +0.000 OA
ENDROOT
BRANCH   1  19
ATOM     18  C   UNL     1       2.811  16.697  21.028  0.00  0.00    +0.000 C 
ATOM     19  O   UNL     1       1.392  16.711  21.141  0.00  0.00    +0.000 OA
ENDBRANCH   1  19
BRANCH   6  20
ATOM     20  O   UNL     1       0.446  16.375  18.386  0.00  0.00    +0.000 OA
ATOM     21  C   UNL     1      -0.619  17.253  18.060  0.00  0.00    +0.000 C 
ENDBRANCH   6  20
BRANCH  10  22
ATOM     22  O   UNL     1       0.273  10.913  18.120  0.00  0.00    +0.000 OA
ATOM     23  H   UNL     1       1.099  11.360  18.357  0.00  0.00    +0.000 HD
ENDBRANCH  10  22
BRANCH   8  24
ATOM     24  O   UNL     1      -3.246  13.032  20.081  0.00  0.00    +0.000 OA
BRANCH  24  25
ATOM     25  C   UNL     1      -4.379  12.657  20.871  0.00  0.00    +0.000 C 
BRANCH  25  26
ATOM     26  C   UNL     1      -5.498  13.677  20.926  0.00  0.00    +0.000 C 
BRANCH  26  27
ATOM     27  S   UNL     1      -6.707  13.250  19.689  0.00  0.00    +0.000 S 
ATOM     28  O   UNL     1      -7.916  14.009  19.954  0.00  0.00    +0.000 OA
ATOM     29  O   UNL     1      -6.070  13.309  18.387  0.00  0.00    +0.000 OA
BRANCH  27  30
ATOM     30  C   UNL     1      -7.066  11.545  20.022  0.00  0.00    +0.000 A 
ATOM     31  C   UNL     1      -7.648  11.191  21.242  0.00  0.00    +0.000 A 
ATOM     32  C   UNL     1      -7.915   9.849  21.508  0.00  0.00    +0.000 A 
ATOM     33  C   UNL     1      -7.619   8.876  20.553  0.00  0.00    +0.000 A 
ATOM     34  C   UNL     1      -7.072   9.240  19.320  0.00  0.00    +0.000 A 
ATOM     35  C   UNL     1      -6.799  10.580  19.046  0.00  0.00    +0.000 A 
ENDBRANCH  27  30
ENDBRANCH  26  27
ENDBRANCH  25  26
ENDBRANCH  24  25
ENDBRANCH   8  24
TORSDOF 8
ENDMDL
MODEL 6
REMARK VINA RESULT:      -6.6      2.777      5.158
REMARK  Name = 
REMARK  10 active torsions:
REMARK  status: ('A' for Active; 'I' for Inactive)
REMARK    1  A    between atoms: C_1  and  O_2
REMARK    2  A    between atoms: O_2  and  C_3
REMARK    3  A    between atoms: C_8  and  O_9
REMARK    4  A    between atoms: O_9  and  C_10
REMARK    5  A    between atoms: C_12  and  O_14
REMARK    6  A    between atoms: O_14  and  C_15
REMARK    7  A    between atoms: C_15  and  C_16
REMARK    8  A    between atoms: C_16  and  S_17
REMARK    9  A    between atoms: S_17  and  C_20
REMARK   10  A    between atoms: C_26  and  O_27
REMARK                            x       y       z     vdW  Elec       q    Type
REMARK                         _______ _______ _______ _____ _____    ______ ____
ROOT
ATOM      1  C   UNL     1      -0.227  13.092  21.626  0.00  0.00    +0.000 A 
ATOM      2  C   UNL     1      -1.091  14.161  21.331  0.00  0.00    +0.000 A 
ATOM      3  C   UNL     1      -2.357  14.240  21.916  0.00  0.00    +0.000 A 
ATOM      4  C   UNL     1      -2.788  13.231  22.779  0.00  0.00    +0.000 A 
ATOM      5  C   UNL     1      -1.955  12.138  23.033  0.00  0.00    +0.000 A 
ATOM      6  C   UNL     1      -0.670  12.063  22.476  0.00  0.00    +0.000 A 
ATOM      7  N   UNL     1      -4.048  13.269  23.427  0.00  0.00    +0.000 N 
ATOM      8  C   UNL     1      -5.138  12.617  22.872  0.00  0.00    +0.000 C 
ATOM      9  O   UNL     1      -6.205  12.414  23.440  0.00  0.00    +0.000 OA
ATOM     10  C   UNL     1      -4.285  14.308  24.421  0.00  0.00    +0.000 C 
ATOM     11  C   UNL     1      -3.690  15.688  24.018  0.00  0.00    +0.000 C 
ATOM     12  C   UNL     1      -4.321  16.870  24.768  0.00  0.00    +0.000 C 
ATOM     13  C   UNL     1      -4.709  17.873  23.677  0.00  0.00    +0.000 C 
ATOM     14  C   UNL     1      -4.893  17.022  22.433  0.00  0.00    +0.000 C 
ATOM     15  N   UNL     1      -3.906  15.985  22.608  0.00  0.00    +0.000 N 
ATOM     16  C   UNL     1      -3.236  15.384  21.564  0.00  0.00    +0.000 C 
ATOM     17  O   UNL     1      -3.313  15.750  20.401  0.00  0.00    +0.000 OA
ENDROOT
BRANCH   1  19
ATOM     18  C   UNL     1       1.212  13.605  19.801  0.00  0.00    +0.000 C 
ATOM     19  O   UNL     1       1.025  13.003  21.078  0.00  0.00    +0.000 OA
ENDBRANCH   1  19
BRANCH   6  20
ATOM     20  O   UNL     1      -0.003  10.941  22.891  0.00  0.00    +0.000 OA
ATOM     21  C   UNL     1      -0.138   9.741  22.148  0.00  0.00    +0.000 C 
ENDBRANCH   6  20
BRANCH  10  22
ATOM     22  O   UNL     1      -3.701  13.884  25.647  0.00  0.00    +0.000 OA
ATOM     23  H   UNL     1      -2.745  14.012  25.554  0.00  0.00    +0.000 HD
ENDBRANCH  10  22
BRANCH   8  24
ATOM     24  O   UNL     1      -4.922  12.262  21.574  0.00  0.00    +0.000 OA
BRANCH  24  25
ATOM     25  C   UNL     1      -5.956  12.566  20.631  0.00  0.00    +0.000 C 
BRANCH  25  26
ATOM     26  C   UNL     1      -5.477  13.046  19.276  0.00  0.00    +0.000 C 
BRANCH  26  27
ATOM     27  S   UNL     1      -6.123  11.945  18.032  0.00  0.00    +0.000 S 
ATOM     28  O   UNL     1      -6.889  10.908  18.697  0.00  0.00    +0.000 OA
ATOM     29  O   UNL     1      -6.722  12.745  16.980  0.00  0.00    +0.000 OA
BRANCH  27  30
ATOM     30  C   UNL     1      -4.674  11.182  17.351  0.00  0.00    +0.000 A 
ATOM     31  C   UNL     1      -3.881  10.366  18.162  0.00  0.00    +0.000 A 
ATOM     32  C   UNL     1      -2.734   9.780  17.630  0.00  0.00    +0.000 A 
ATOM     33  C   UNL     1      -2.396   9.995  16.293  0.00  0.00    +0.000 A 
ATOM     34  C   UNL     1      -3.213  10.782  15.477  0.00  0.00    +0.000 A 
ATOM     35  C   UNL     1      -4.361  11.375  16.002  0.00  0.00    +0.000 A 
ENDBRANCH  27  30
ENDBRANCH  26  27
ENDBRANCH  25  26
ENDBRANCH  24  25
ENDBRANCH   8  24
TORSDOF 8
ENDMDL
MODEL 7
REMARK VINA RESULT:      -6.5      2.750      5.053
REMARK  Name = 
REMARK  10 active torsions:
REMARK  status: ('A' for Active; 'I' for Inactive)
REMARK    1  A    between atoms: C_1  and  O_2
REMARK    2  A    between atoms: O_2  and  C_3
REMARK    3  A    between atoms: C_8  and  O_9
REMARK    4  A    between atoms: O_9  and  C_10
REMARK    5  A    between atoms: C_12  and  O_14
REMARK    6  A    between atoms: O_14  and  C_15
REMARK    7  A    between atoms: C_15  and  C_16
REMARK    8  A    between atoms: C_16  and  S_17
REMARK    9  A    between atoms: S_17  and  C_20
REMARK   10  A    between atoms: C_26  and  O_27
REMARK                            x       y       z     vdW  Elec       q    Type
REMARK                         _______ _______ _______ _____ _____    ______ ____
ROOT
ATOM      1  C   UNL     1      -0.704  13.623  21.085  0.00  0.00    +0.000 A 
ATOM      2  C   UNL     1      -1.718  14.587  20.949  0.00  0.00    +0.000 A 
ATOM      3  C   UNL     1      -2.843  14.564  21.775  0.00  0.00    +0.000 A 
ATOM      4  C   UNL     1      -2.984  13.554  22.730  0.00  0.00    +0.000 A 
ATOM      5  C   UNL     1      -2.005  12.562  22.834  0.00  0.00    +0.000 A 
ATOM      6  C   UNL     1      -0.857  12.592  22.029  0.00  0.00    +0.000 A 
ATOM      7  N   UNL     1      -4.086  13.494  23.618  0.00  0.00    +0.000 N 
ATOM      8  C   UNL     1      -5.189  12.713  23.309  0.00  0.00    +0.000 C 
ATOM      9  O   UNL     1      -6.095  12.428  24.086  0.00  0.00    +0.000 OA
ATOM     10  C   UNL     1      -4.230  14.545  24.616  0.00  0.00    +0.000 C 
ATOM     11  C   UNL     1      -3.878  15.959  24.072  0.00  0.00    +0.000 C 
ATOM     12  C   UNL     1      -4.469  17.103  24.908  0.00  0.00    +0.000 C 
ATOM     13  C   UNL     1      -5.171  18.014  23.898  0.00  0.00    +0.000 C 
ATOM     14  C   UNL     1      -5.507  17.098  22.735  0.00  0.00    +0.000 C 
ATOM     15  N   UNL     1      -4.400  16.173  22.728  0.00  0.00    +0.000 N 
ATOM     16  C   UNL     1      -3.891  15.598  21.584  0.00  0.00    +0.000 C 
ATOM     17  O   UNL     1      -4.236  15.905  20.453  0.00  0.00    +0.000 OA
ENDROOT
BRANCH   1  19
ATOM     18  C   UNL     1       1.366  14.668  20.549  0.00  0.00    +0.000 C 
ATOM     19  O   UNL     1       0.417  13.637  20.297  0.00  0.00    +0.000 OA
ENDBRANCH   1  19
BRANCH   6  20
ATOM     20  O   UNL     1      -0.005  11.561  22.326  0.00  0.00    +0.000 OA
ATOM     21  C   UNL     1      -0.373  10.236  21.976  0.00  0.00    +0.000 C 
ENDBRANCH   6  20
BRANCH  10  22
ATOM     22  O   UNL     1      -3.372  14.234  25.708  0.00  0.00    +0.000 OA
ATOM     23  H   UNL     1      -3.826  13.555  26.229  0.00  0.00    +0.000 HD
ENDBRANCH  10  22
BRANCH   8  24
ATOM     24  O   UNL     1      -5.199  12.327  22.002  0.00  0.00    +0.000 OA
BRANCH  24  25
ATOM     25  C   UNL     1      -6.389  12.588  21.251  0.00  0.00    +0.000 C 
BRANCH  25  26
ATOM     26  C   UNL     1      -6.169  13.125  19.851  0.00  0.00    +0.000 C 
BRANCH  26  27
ATOM     27  S   UNL     1      -6.330  11.774  18.700  0.00  0.00    +0.000 S 
ATOM     28  O   UNL     1      -6.710  10.587  19.445  0.00  0.00    +0.000 OA
ATOM     29  O   UNL     1      -7.126  12.224  17.574  0.00  0.00    +0.000 OA
BRANCH  27  30
ATOM     30  C   UNL     1      -4.676  11.524  18.109  0.00  0.00    +0.000 A 
ATOM     31  C   UNL     1      -4.476  10.987  16.835  0.00  0.00    +0.000 A 
ATOM     32  C   UNL     1      -3.176  10.777  16.378  0.00  0.00    +0.000 A 
ATOM     33  C   UNL     1      -2.089  11.120  17.184  0.00  0.00    +0.000 A 
ATOM     34  C   UNL     1      -2.296  11.691  18.442  0.00  0.00    +0.000 A 
ATOM     35  C   UNL     1      -3.593  11.902  18.908  0.00  0.00    +0.000 A 
ENDBRANCH  27  30
ENDBRANCH  26  27
ENDBRANCH  25  26
ENDBRANCH  24  25
ENDBRANCH   8  24
TORSDOF 8
ENDMDL
MODEL 8
REMARK VINA RESULT:      -6.4      2.808      7.458
REMARK  Name = 
REMARK  10 active torsions:
REMARK  status: ('A' for Active; 'I' for Inactive)
REMARK    1  A    between atoms: C_1  and  O_2
REMARK    2  A    between atoms: O_2  and  C_3
REMARK    3  A    between atoms: C_8  and  O_9
REMARK    4  A    between atoms: O_9  and  C_10
REMARK    5  A    between atoms: C_12  and  O_14
REMARK    6  A    between atoms: O_14  and  C_15
REMARK    7  A    between atoms: C_15  and  C_16
REMARK    8  A    between atoms: C_16  and  S_17
REMARK    9  A    between atoms: S_17  and  C_20
REMARK   10  A    between atoms: C_26  and  O_27
REMARK                            x       y       z     vdW  Elec       q    Type
REMARK                         _______ _______ _______ _____ _____    ______ ____
ROOT
ATOM      1  C   UNL     1       0.290  14.741  21.008  0.00  0.00    +0.000 A 
ATOM      2  C   UNL     1      -0.002  13.526  21.653  0.00  0.00    +0.000 A 
ATOM      3  C   UNL     1      -0.316  12.382  20.916  0.00  0.00    +0.000 A 
ATOM      4  C   UNL     1      -0.374  12.447  19.522  0.00  0.00    +0.000 A 
ATOM      5  C   UNL     1      -0.138  13.665  18.878  0.00  0.00    +0.000 A 
ATOM      6  C   UNL     1       0.207  14.813  19.606  0.00  0.00    +0.000 A 
ATOM      7  N   UNL     1      -0.656  11.315  18.718  0.00  0.00    +0.000 N 
ATOM      8  C   UNL     1      -1.952  11.066  18.294  0.00  0.00    +0.000 C 
ATOM      9  O   UNL     1      -2.272  10.246  17.440  0.00  0.00    +0.000 OA
ATOM     10  C   UNL     1       0.311  10.226  18.690  0.00  0.00    +0.000 C 
ATOM     11  C   UNL     1       0.936   9.926  20.083  0.00  0.00    +0.000 C 
ATOM     12  C   UNL     1       1.556   8.526  20.188  0.00  0.00    +0.000 C 
ATOM     13  C   UNL     1       0.966   7.923  21.466  0.00  0.00    +0.000 C 
ATOM     14  C   UNL     1      -0.351   8.655  21.653  0.00  0.00    +0.000 C 
ATOM     15  N   UNL     1      -0.057   9.974  21.148  0.00  0.00    +0.000 N 
ATOM     16  C   UNL     1      -0.626  11.126  21.645  0.00  0.00    +0.000 C 
ATOM     17  O   UNL     1      -1.337  11.165  22.638  0.00  0.00    +0.000 OA
ENDROOT
BRANCH   1  19
ATOM     18  C   UNL     1      -0.464  16.663  22.192  0.00  0.00    +0.000 C 
ATOM     19  O   UNL     1       0.617  15.871  21.709  0.00  0.00    +0.000 OA
ENDBRANCH   1  19
BRANCH   6  20
ATOM     20  O   UNL     1       0.445  15.881  18.782  0.00  0.00    +0.000 OA
ATOM     21  C   UNL     1      -0.586  16.831  18.566  0.00  0.00    +0.000 C 
ENDBRANCH   6  20
BRANCH  10  22
ATOM     22  O   UNL     1       1.345  10.580  17.777  0.00  0.00    +0.000 OA
ATOM     23  H   UNL     1       2.182  10.451  18.248  0.00  0.00    +0.000 HD
ENDBRANCH  10  22
BRANCH   8  24
ATOM     24  O   UNL     1      -2.871  11.802  18.981  0.00  0.00    +0.000 OA
BRANCH  24  25
ATOM     25  C   UNL     1      -4.240  11.681  18.580  0.00  0.00    +0.000 C 
BRANCH  25  26
ATOM     26  C   UNL     1      -5.146  12.815  19.015  0.00  0.00    +0.000 C 
BRANCH  26  27
ATOM     27  S   UNL     1      -6.692  12.118  19.563  0.00  0.00    +0.000 S 
ATOM     28  O   UNL     1      -7.771  12.889  18.972  0.00  0.00    +0.000 OA
ATOM     29  O   UNL     1      -6.632  10.679  19.390  0.00  0.00    +0.000 OA
BRANCH  27  30
ATOM     30  C   UNL     1      -6.703  12.438  21.308  0.00  0.00    +0.000 A 
ATOM     31  C   UNL     1      -5.504  12.732  21.961  0.00  0.00    +0.000 A 
ATOM     32  C   UNL     1      -5.512  12.967  23.334  0.00  0.00    +0.000 A 
ATOM     33  C   UNL     1      -6.714  12.926  24.042  0.00  0.00    +0.000 A 
ATOM     34  C   UNL     1      -7.916  12.668  23.377  0.00  0.00    +0.000 A 
ATOM     35  C   UNL     1      -7.916  12.429  22.003  0.00  0.00    +0.000 A 
ENDBRANCH  27  30
ENDBRANCH  26  27
ENDBRANCH  25  26
ENDBRANCH  24  25
ENDBRANCH   8  24
TORSDOF 8
ENDMDL
MODEL 9
REMARK VINA RESULT:      -6.4      4.168      6.966
REMARK  Name = 
REMARK  10 active torsions:
REMARK  status: ('A' for Active; 'I' for Inactive)
REMARK    1  A    between atoms: C_1  and  O_2
REMARK    2  A    between atoms: O_2  and  C_3
REMARK    3  A    between atoms: C_8  and  O_9
REMARK    4  A    between atoms: O_9  and  C_10
REMARK    5  A    between atoms: C_12  and  O_14
REMARK    6  A    between atoms: O_14  and  C_15
REMARK    7  A    between atoms: C_15  and  C_16
REMARK    8  A    between atoms: C_16  and  S_17
REMARK    9  A    between atoms: S_17  and  C_20
REMARK   10  A    between atoms: C_26  and  O_27
REMARK                            x       y       z     vdW  Elec       q    Type
REMARK                         _______ _______ _______ _____ _____    ______ ____
ROOT
ATOM      1  C   UNL     1      -3.428  11.430  18.608  0.00  0.00    +0.000 A 
ATOM      2  C   UNL     1      -2.313  10.638  18.283  0.00  0.00    +0.000 A 
ATOM      3  C   UNL     1      -1.127  10.738  19.014  0.00  0.00    +0.000 A 
ATOM      4  C   UNL     1      -1.031  11.656  20.061  0.00  0.00    +0.000 A 
ATOM      5  C   UNL     1      -2.117  12.484  20.354  0.00  0.00    +0.000 A 
ATOM      6  C   UNL     1      -3.323  12.372  19.646  0.00  0.00    +0.000 A 
ATOM      7  N   UNL     1       0.134  11.783  20.858  0.00  0.00    +0.000 N 
ATOM      8  C   UNL     1       1.089  12.739  20.552  0.00  0.00    +0.000 C 
ATOM      9  O   UNL     1       2.019  13.070  21.280  0.00  0.00    +0.000 OA
ATOM     10  C   UNL     1       0.509  10.668  21.717  0.00  0.00    +0.000 C 
ATOM     11  C   UNL     1       0.297   9.280  21.048  0.00  0.00    +0.000 C 
ATOM     12  C   UNL     1       1.111   8.154  21.700  0.00  0.00    +0.000 C 
ATOM     13  C   UNL     1       1.828   7.456  20.540  0.00  0.00    +0.000 C 
ATOM     14  C   UNL     1       1.927   8.523  19.465  0.00  0.00    +0.000 C 
ATOM     15  N   UNL     1       0.713   9.278  19.651  0.00  0.00    +0.000 N 
ATOM     16  C   UNL     1       0.025   9.886  18.623  0.00  0.00    +0.000 C 
ATOM     17  O   UNL     1       0.299   9.747  17.441  0.00  0.00    +0.000 OA
ENDROOT
BRANCH   1  19
ATOM     18  C   UNL     1      -4.545  11.553  16.510  0.00  0.00    +0.000 C 
ATOM     19  O   UNL     1      -4.607  11.337  17.916  0.00  0.00    +0.000 OA
ENDBRANCH   1  19
BRANCH   6  20
ATOM     20  O   UNL     1      -4.272  13.238  20.124  0.00  0.00    +0.000 OA
ATOM     21  C   UNL     1      -4.853  12.994  21.395  0.00  0.00    +0.000 C 
ENDBRANCH   6  20
BRANCH  10  22
ATOM     22  O   UNL     1      -0.274  10.743  22.903  0.00  0.00    +0.000 OA
ATOM     23  H   UNL     1      -0.023   9.981  23.446  0.00  0.00    +0.000 HD
ENDBRANCH  10  22
BRANCH   8  24
ATOM     24  O   UNL     1       0.923  13.252  19.299  0.00  0.00    +0.000 OA
BRANCH  24  25
ATOM     25  C   UNL     1       1.226  14.639  19.114  0.00  0.00    +0.000 C 
BRANCH  25  26
ATOM     26  C   UNL     1       2.468  14.928  18.296  0.00  0.00    +0.000 C 
BRANCH  26  27
ATOM     27  S   UNL     1       3.341  16.280  19.062  0.00  0.00    +0.000 S 
ATOM     28  O   UNL     1       2.928  17.512  18.414  0.00  0.00    +0.000 OA
ATOM     29  O   UNL     1       3.238  16.133  20.502  0.00  0.00    +0.000 OA
BRANCH  27  30
ATOM     30  C   UNL     1       5.035  15.990  18.623  0.00  0.00    +0.000 A 
ATOM     31  C   UNL     1       5.376  14.827  17.928  0.00  0.00    +0.000 A 
ATOM     32  C   UNL     1       6.709  14.593  17.598  0.00  0.00    +0.000 A 
ATOM     33  C   UNL     1       7.688  15.525  17.946  0.00  0.00    +0.000 A 
ATOM     34  C   UNL     1       7.336  16.704  18.608  0.00  0.00    +0.000 A 
ATOM     35  C   UNL     1       6.004  16.945  18.945  0.00  0.00    +0.000 A 
ENDBRANCH  27  30
ENDBRANCH  26  27
ENDBRANCH  25  26
ENDBRANCH  24  25
ENDBRANCH   8  24
TORSDOF 8
ENDMDL
