MODEL 1
REMARK VINA RESULT:      -7.7      0.000      0.000
REMARK  Name = 
REMARK  10 active torsions:
REMARK  status: ('A' for Active; 'I' for Inactive)
REMARK    1  A    between atoms: C_1  and  O_2
REMARK    2  A    between atoms: O_2  and  C_3
REMARK    3  A    between atoms: C_3  and  C_4
REMARK    4  A    between atoms: C_4  and  C_5
REMARK    5  A    between atoms: C_4  and  O_23
REMARK    6  A    between atoms: C_5  and  N_6
REMARK    7  A    between atoms: O_23  and  C_24
REMARK    8  A    between atoms: C_24  and  C_26
REMARK    9  A    between atoms: C_29  and  O_30
REMARK   10  A    between atoms: O_30  and  C_31
REMARK                            x       y       z     vdW  Elec       q    Type
REMARK                         _______ _______ _______ _____ _____    ______ ____
ROOT
ATOM      1  N   UNL     1       1.292  10.028  18.698  0.00  0.00    +0.000 NA
ATOM      2  C   UNL     1       1.259   9.490  20.086  0.00  0.00    +0.000 C 
ATOM      3  C   UNL     1       1.377   7.934  20.328  0.00  0.00    +0.000 C 
ATOM      4  N   UNL     1       2.055   7.192  19.246  0.00  0.00    +0.000 N 
ATOM      5  C   UNL     1       3.015   6.213  19.399  0.00  0.00    +0.000 C 
ATOM      6  N   UNL     1       4.139   6.258  18.733  0.00  0.00    +0.000 NA
ATOM      7  S   UNL     1       4.967   4.857  18.854  0.00  0.00    +0.000 S 
ATOM      8  O   UNL     1       6.178   5.041  19.621  0.00  0.00    +0.000 OA
ATOM      9  O   UNL     1       4.943   4.161  17.583  0.00  0.00    +0.000 OA
ATOM     10  C   UNL     1       3.814   4.069  19.884  0.00  0.00    +0.000 A 
ATOM     11  C   UNL     1       3.822   2.752  20.302  0.00  0.00    +0.000 A 
ATOM     12  C   UNL     1       2.726   2.323  21.047  0.00  0.00    +0.000 A 
ATOM     13  C   UNL     1       1.669   3.208  21.330  0.00  0.00    +0.000 A 
ATOM     14  C   UNL     1       1.681   4.533  20.867  0.00  0.00    +0.000 A 
ATOM     15  C   UNL     1       2.779   4.954  20.141  0.00  0.00    +0.000 A 
ATOM     16  C   UNL     1       1.929   7.781  17.909  0.00  0.00    +0.000 C 
ATOM     17  C   UNL     1       2.318   9.255  17.979  0.00  0.00    +0.000 C 
ENDROOT
BRANCH   1  18
ATOM     18  C   UNL     1      -0.035  10.042  18.014  0.00  0.00    +0.000 C 
BRANCH  18  19
ATOM     19  C   UNL     1      -1.141  10.929  18.695  0.00  0.00    +0.000 C 
BRANCH  19  20
ATOM     20  C   UNL     1      -2.468  10.931  17.910  0.00  0.00    +0.000 C 
BRANCH  20  22
ATOM     21  C   UNL     1      -3.419  10.796  15.747  0.00  0.00    +0.000 C 
ATOM     22  O   UNL     1      -2.299  11.202  16.525  0.00  0.00    +0.000 OA
ENDBRANCH  20  22
ENDBRANCH  19  20
BRANCH  19  23
ATOM     23  O   UNL     1      -0.752  12.325  18.784  0.00  0.00    +0.000 OA
BRANCH  23  24
ATOM     24  C   UNL     1      -0.431  12.742  20.036  0.00  0.00    +0.000 C 
ATOM     25  O   UNL     1       0.680  13.106  20.405  0.00  0.00    +0.000 OA
BRANCH  24  26
ATOM     26  C   UNL     1      -1.611  12.755  20.928  0.00  0.00    +0.000 A 
ATOM     27  C   UNL     1      -1.529  12.079  22.151  0.00  0.00    +0.000 A 
ATOM     28  C   UNL     1      -2.640  12.027  22.995  0.00  0.00    +0.000 A 
ATOM     29  C   UNL     1      -3.835  12.652  22.631  0.00  0.00    +0.000 A 
ATOM     30  C   UNL     1      -3.919  13.317  21.406  0.00  0.00    +0.000 A 
ATOM     31  C   UNL     1      -2.808  13.374  20.556  0.00  0.00    +0.000 A 
BRANCH  29  32
ATOM     32  O   UNL     1      -4.860  12.502  23.524  0.00  0.00    +0.000 OA
ATOM     33  C   UNL     1      -4.479  12.394  24.893  0.00  0.00    +0.000 C 
ENDBRANCH  29  32
ENDBRANCH  24  26
ENDBRANCH  23  24
ENDBRANCH  19  23
ENDBRANCH  18  19
ENDBRANCH   1  18
TORSDOF 8
ENDMDL
MODEL 2
REMARK VINA RESULT:      -7.6      2.821      9.225
REMARK  Name = 
REMARK  10 active torsions:
REMARK  status: ('A' for Active; 'I' for Inactive)
REMARK    1  A    between atoms: C_1  and  O_2
REMARK    2  A    between atoms: O_2  and  C_3
REMARK    3  A    between atoms: C_3  and  C_4
REMARK    4  A    between atoms: C_4  and  C_5
REMARK    5  A    between atoms: C_4  and  O_23
REMARK    6  A    between atoms: C_5  and  N_6
REMARK    7  A    between atoms: O_23  and  C_24
REMARK    8  A    between atoms: C_24  and  C_26
REMARK    9  A    between atoms: C_29  and  O_30
REMARK   10  A    between atoms: O_30  and  C_31
REMARK                            x       y       z     vdW  Elec       q    Type
REMARK                         _______ _______ _______ _____ _____    ______ ____
ROOT
ATOM      1  N   UNL     1       3.029   6.915  18.027  0.00  0.00    +0.000 NA
ATOM      2  C   UNL     1       2.248   6.641  19.265  0.00  0.00    +0.000 C 
ATOM      3  C   UNL     1       1.592   7.836  20.061  0.00  0.00    +0.000 C 
ATOM      4  N   UNL     1       1.326   9.042  19.252  0.00  0.00    +0.000 N 
ATOM      5  C   UNL     1       0.174   9.801  19.266  0.00  0.00    +0.000 C 
ATOM      6  N   UNL     1      -0.437  10.123  18.155  0.00  0.00    +0.000 NA
ATOM      7  S   UNL     1      -1.585  11.257  18.406  0.00  0.00    +0.000 S 
ATOM      8  O   UNL     1      -2.905  10.705  18.199  0.00  0.00    +0.000 OA
ATOM      9  O   UNL     1      -1.163  12.517  17.830  0.00  0.00    +0.000 OA
ATOM     10  C   UNL     1      -1.332  11.375  20.120  0.00  0.00    +0.000 A 
ATOM     11  C   UNL     1      -1.911  12.273  20.995  0.00  0.00    +0.000 A 
ATOM     12  C   UNL     1      -1.470  12.237  22.315  0.00  0.00    +0.000 A 
ATOM     13  C   UNL     1      -0.470  11.327  22.705  0.00  0.00    +0.000 A 
ATOM     14  C   UNL     1       0.116  10.445  21.783  0.00  0.00    +0.000 A 
ATOM     15  C   UNL     1      -0.338  10.479  20.478  0.00  0.00    +0.000 A 
ATOM     16  C   UNL     1       2.229   9.245  18.115  0.00  0.00    +0.000 C 
ATOM     17  C   UNL     1       2.291   7.959  17.296  0.00  0.00    +0.000 C 
ENDROOT
BRANCH   1  18
ATOM     18  C   UNL     1       4.462   7.253  18.269  0.00  0.00    +0.000 C 
BRANCH  18  19
ATOM     19  C   UNL     1       5.510   6.305  17.578  0.00  0.00    +0.000 C 
BRANCH  19  20
ATOM     20  C   UNL     1       6.705   7.075  16.980  0.00  0.00    +0.000 C 
BRANCH  20  22
ATOM     21  C   UNL     1       8.142   8.704  17.916  0.00  0.00    +0.000 C 
ATOM     22  O   UNL     1       7.728   7.343  17.928  0.00  0.00    +0.000 OA
ENDBRANCH  20  22
ENDBRANCH  19  20
BRANCH  19  23
ATOM     23  O   UNL     1       4.939   5.568  16.465  0.00  0.00    +0.000 OA
BRANCH  23  24
ATOM     24  C   UNL     1       5.082   4.220  16.548  0.00  0.00    +0.000 C 
ATOM     25  O   UNL     1       5.881   3.546  15.908  0.00  0.00    +0.000 OA
BRANCH  24  26
ATOM     26  C   UNL     1       4.173   3.634  17.556  0.00  0.00    +0.000 A 
ATOM     27  C   UNL     1       2.824   3.465  17.220  0.00  0.00    +0.000 A 
ATOM     28  C   UNL     1       1.928   2.963  18.164  0.00  0.00    +0.000 A 
ATOM     29  C   UNL     1       2.367   2.619  19.445  0.00  0.00    +0.000 A 
ATOM     30  C   UNL     1       3.710   2.798  19.783  0.00  0.00    +0.000 A 
ATOM     31  C   UNL     1       4.615   3.300  18.840  0.00  0.00    +0.000 A 
BRANCH  29  32
ATOM     32  O   UNL     1       1.390   2.170  20.290  0.00  0.00    +0.000 OA
ATOM     33  C   UNL     1       1.403   2.721  21.603  0.00  0.00    +0.000 C 
ENDBRANCH  29  32
ENDBRANCH  24  26
ENDBRANCH  23  24
ENDBRANCH  19  23
ENDBRANCH  18  19
ENDBRANCH   1  18
TORSDOF 8
ENDMDL
MODEL 3
REMARK VINA RESULT:      -7.6      2.736      9.279
REMARK  Name = 
REMARK  10 active torsions:
REMARK  status: ('A' for Active; 'I' for Inactive)
REMARK    1  A    between atoms: C_1  and  O_2
REMARK    2  A    between atoms: O_2  and  C_3
REMARK    3  A    between atoms: C_3  and  C_4
REMARK    4  A    between atoms: C_4  and  C_5
REMARK    5  A    between atoms: C_4  and  O_23
REMARK    6  A    between atoms: C_5  and  N_6
REMARK    7  A    between atoms: O_23  and  C_24
REMARK    8  A    between atoms: C_24  and  C_26
REMARK    9  A    between atoms: C_29  and  O_30
REMARK   10  A    between atoms: O_30  and  C_31
REMARK                            x       y       z     vdW  Elec       q    Type
REMARK                         _______ _______ _______ _____ _____    ______ ____
ROOT
ATOM      1  N   UNL     1       2.903   7.006  18.130  0.00  0.00    +0.000 NA
ATOM      2  C   UNL     1       2.246   6.907  19.463  0.00  0.00    +0.000 C 
ATOM      3  C   UNL     1       1.601   8.191  20.118  0.00  0.00    +0.000 C 
ATOM      4  N   UNL     1       1.206   9.240  19.157  0.00  0.00    +0.000 N 
ATOM      5  C   UNL     1       0.022   9.948  19.158  0.00  0.00    +0.000 C 
ATOM      6  N   UNL     1      -0.697  10.065  18.073  0.00  0.00    +0.000 NA
ATOM      7  S   UNL     1      -1.875  11.181  18.247  0.00  0.00    +0.000 S 
ATOM      8  O   UNL     1      -3.178  10.556  18.253  0.00  0.00    +0.000 OA
ATOM      9  O   UNL     1      -1.569  12.347  17.443  0.00  0.00    +0.000 OA
ATOM     10  C   UNL     1      -1.483  11.583  19.890  0.00  0.00    +0.000 A 
ATOM     11  C   UNL     1      -2.029  12.590  20.662  0.00  0.00    +0.000 A 
ATOM     12  C   UNL     1      -1.476  12.783  21.925  0.00  0.00    +0.000 A 
ATOM     13  C   UNL     1      -0.401  11.985  22.359  0.00  0.00    +0.000 A 
ATOM     14  C   UNL     1       0.148  10.988  21.537  0.00  0.00    +0.000 A 
ATOM     15  C   UNL     1      -0.418  10.794  20.291  0.00  0.00    +0.000 A 
ATOM     16  C   UNL     1       1.997   9.289  17.924  0.00  0.00    +0.000 C 
ATOM     17  C   UNL     1       2.053   7.890  17.316  0.00  0.00    +0.000 C 
ENDROOT
BRANCH   1  18
ATOM     18  C   UNL     1       4.332   7.430  18.182  0.00  0.00    +0.000 C 
BRANCH  18  19
ATOM     19  C   UNL     1       5.375   6.370  17.668  0.00  0.00    +0.000 C 
BRANCH  19  20
ATOM     20  C   UNL     1       6.720   7.007  17.264  0.00  0.00    +0.000 C 
BRANCH  20  22
ATOM     21  C   UNL     1       7.768   5.724  18.953  0.00  0.00    +0.000 C 
ATOM     22  O   UNL     1       7.844   6.213  17.618  0.00  0.00    +0.000 OA
ENDBRANCH  20  22
ENDBRANCH  19  20
BRANCH  19  23
ATOM     23  O   UNL     1       4.914   5.671  16.483  0.00  0.00    +0.000 OA
BRANCH  23  24
ATOM     24  C   UNL     1       4.974   4.318  16.566  0.00  0.00    +0.000 C 
ATOM     25  O   UNL     1       5.749   3.597  15.947  0.00  0.00    +0.000 OA
BRANCH  24  26
ATOM     26  C   UNL     1       4.003   3.787  17.548  0.00  0.00    +0.000 A 
ATOM     27  C   UNL     1       4.483   3.342  18.786  0.00  0.00    +0.000 A 
ATOM     28  C   UNL     1       3.603   2.788  19.716  0.00  0.00    +0.000 A 
ATOM     29  C   UNL     1       2.241   2.679  19.425  0.00  0.00    +0.000 A 
ATOM     30  C   UNL     1       1.765   3.113  18.186  0.00  0.00    +0.000 A 
ATOM     31  C   UNL     1       2.643   3.671  17.249  0.00  0.00    +0.000 A 
BRANCH  29  32
ATOM     32  O   UNL     1       1.487   2.089  20.402  0.00  0.00    +0.000 OA
ATOM     33  C   UNL     1       1.512   2.727  21.675  0.00  0.00    +0.000 C 
ENDBRANCH  29  32
ENDBRANCH  24  26
ENDBRANCH  23  24
ENDBRANCH  19  23
ENDBRANCH  18  19
ENDBRANCH   1  18
TORSDOF 8
ENDMDL
MODEL 4
REMARK VINA RESULT:      -7.5      2.172      2.535
REMARK  Name = 
REMARK  10 active torsions:
REMARK  status: ('A' for Active; 'I' for Inactive)
REMARK    1  A    between atoms: C_1  and  O_2
REMARK    2  A    between atoms: O_2  and  C_3
REMARK    3  A    between atoms: C_3  and  C_4
REMARK    4  A    between atoms: C_4  and  C_5
REMARK    5  A    between atoms: C_4  and  O_23
REMARK    6  A    between atoms: C_5  and  N_6
REMARK    7  A    between atoms: O_23  and  C_24
REMARK    8  A    between atoms: C_24  and  C_26
REMARK    9  A    between atoms: C_29  and  O_30
REMARK   10  A    between atoms: O_30  and  C_31
REMARK                            x       y       z     vdW  Elec       q    Type
REMARK                         _______ _______ _______ _____ _____    ______ ____
ROOT
ATOM      1  N   UNL     1       1.126  10.180  19.669  0.00  0.00    +0.000 NA
ATOM      2  C   UNL     1       1.409   9.002  20.535  0.00  0.00    +0.000 C 
ATOM      3  C   UNL     1       1.736   7.604  19.878  0.00  0.00    +0.000 C 
ATOM      4  N   UNL     1       2.277   7.680  18.506  0.00  0.00    +0.000 N 
ATOM      5  C   UNL     1       3.348   6.968  18.007  0.00  0.00    +0.000 C 
ATOM      6  N   UNL     1       4.318   7.566  17.366  0.00  0.00    +0.000 NA
ATOM      7  S   UNL     1       5.300   6.495  16.623  0.00  0.00    +0.000 S 
ATOM      8  O   UNL     1       6.606   6.479  17.244  0.00  0.00    +0.000 OA
ATOM      9  O   UNL     1       5.116   6.574  15.188  0.00  0.00    +0.000 OA
ATOM     10  C   UNL     1       4.448   5.083  17.165  0.00  0.00    +0.000 A 
ATOM     11  C   UNL     1       4.674   3.771  16.795  0.00  0.00    +0.000 A 
ATOM     12  C   UNL     1       3.788   2.818  17.289  0.00  0.00    +0.000 A 
ATOM     13  C   UNL     1       2.713   3.206  18.111  0.00  0.00    +0.000 A 
ATOM     14  C   UNL     1       2.497   4.552  18.445  0.00  0.00    +0.000 A 
ATOM     15  C   UNL     1       3.390   5.489  17.962  0.00  0.00    +0.000 A 
ATOM     16  C   UNL     1       1.844   8.843  17.726  0.00  0.00    +0.000 C 
ATOM     17  C   UNL     1       2.080  10.107  18.549  0.00  0.00    +0.000 C 
ENDROOT
BRANCH   1  18
ATOM     18  C   UNL     1      -0.297  10.296  19.237  0.00  0.00    +0.000 C 
BRANCH  18  19
ATOM     19  C   UNL     1      -1.227  11.142  20.181  0.00  0.00    +0.000 C 
BRANCH  19  20
ATOM     20  C   UNL     1      -2.066  12.183  19.413  0.00  0.00    +0.000 C 
BRANCH  20  22
ATOM     21  C   UNL     1      -3.579  11.410  17.766  0.00  0.00    +0.000 C 
ATOM     22  O   UNL     1      -2.254  11.850  18.045  0.00  0.00    +0.000 OA
ENDBRANCH  20  22
ENDBRANCH  19  20
BRANCH  19  23
ATOM     23  O   UNL     1      -0.474  11.908  21.158  0.00  0.00    +0.000 OA
BRANCH  23  24
ATOM     24  C   UNL     1      -0.786  11.636  22.451  0.00  0.00    +0.000 C 
ATOM     25  O   UNL     1      -0.310  10.731  23.126  0.00  0.00    +0.000 OA
BRANCH  24  26
ATOM     26  C   UNL     1      -1.763  12.607  22.993  0.00  0.00    +0.000 A 
ATOM     27  C   UNL     1      -1.398  13.957  23.052  0.00  0.00    +0.000 A 
ATOM     28  C   UNL     1      -2.274  14.892  23.605  0.00  0.00    +0.000 A 
ATOM     29  C   UNL     1      -3.520  14.493  24.095  0.00  0.00    +0.000 A 
ATOM     30  C   UNL     1      -3.879  13.144  24.045  0.00  0.00    +0.000 A 
ATOM     31  C   UNL     1      -3.004  12.201  23.490  0.00  0.00    +0.000 A 
BRANCH  29  32
ATOM     32  O   UNL     1      -4.273  15.494  24.641  0.00  0.00    +0.000 OA
ATOM     33  C   UNL     1      -3.554  16.643  25.081  0.00  0.00    +0.000 C 
ENDBRANCH  29  32
ENDBRANCH  24  26
ENDBRANCH  23  24
ENDBRANCH  19  23
ENDBRANCH  18  19
ENDBRANCH   1  18
TORSDOF 8
ENDMDL
MODEL 5
REMARK VINA RESULT:      -7.4      3.225      9.500
REMARK  Name = 
REMARK  10 active torsions:
REMARK  status: ('A' for Active; 'I' for Inactive)
REMARK    1  A    between atoms: C_1  and  O_2
REMARK    2  A    between atoms: O_2  and  C_3
REMARK    3  A    between atoms: C_3  and  C_4
REMARK    4  A    between atoms: C_4  and  C_5
REMARK    5  A    between atoms: C_4  and  O_23
REMARK    6  A    between atoms: C_5  and  N_6
REMARK    7  A    between atoms: O_23  and  C_24
REMARK    8  A    between atoms: C_24  and  C_26
REMARK    9  A    between atoms: C_29  and  O_30
REMARK   10  A    between atoms: O_30  and  C_31
REMARK                            x       y       z     vdW  Elec       q    Type
REMARK                         _______ _______ _______ _____ _____    ______ ____
ROOT
ATOM      1  N   UNL     1       3.202   6.725  18.812  0.00  0.00    +0.000 NA
ATOM      2  C   UNL     1       2.803   7.698  17.758  0.00  0.00    +0.000 C 
ATOM      3  C   UNL     1       1.485   8.549  17.933  0.00  0.00    +0.000 C 
ATOM      4  N   UNL     1       1.052   8.733  19.333  0.00  0.00    +0.000 N 
ATOM      5  C   UNL     1       0.619   9.909  19.909  0.00  0.00    +0.000 C 
ATOM      6  N   UNL     1       1.116  10.329  21.044  0.00  0.00    +0.000 NA
ATOM      7  S   UNL     1       0.245  11.563  21.662  0.00  0.00    +0.000 S 
ATOM      8  O   UNL     1       1.005  12.793  21.632  0.00  0.00    +0.000 OA
ATOM      9  O   UNL     1      -0.474  11.116  22.838  0.00  0.00    +0.000 OA
ATOM     10  C   UNL     1      -0.903  11.628  20.362  0.00  0.00    +0.000 A 
ATOM     11  C   UNL     1      -2.044  12.402  20.286  0.00  0.00    +0.000 A 
ATOM     12  C   UNL     1      -2.866  12.202  19.179  0.00  0.00    +0.000 A 
ATOM     13  C   UNL     1      -2.529  11.239  18.209  0.00  0.00    +0.000 A 
ATOM     14  C   UNL     1      -1.374  10.451  18.332  0.00  0.00    +0.000 A 
ATOM     15  C   UNL     1      -0.558  10.666  19.426  0.00  0.00    +0.000 A 
ATOM     16  C   UNL     1       1.428   7.654  20.251  0.00  0.00    +0.000 C 
ATOM     17  C   UNL     1       2.922   7.377  20.102  0.00  0.00    +0.000 C 
ENDROOT
BRANCH   1  18
ATOM     18  C   UNL     1       2.574   5.378  18.673  0.00  0.00    +0.000 C 
BRANCH  18  19
ATOM     19  C   UNL     1       3.199   4.447  17.571  0.00  0.00    +0.000 C 
BRANCH  19  20
ATOM     20  C   UNL     1       2.366   3.172  17.327  0.00  0.00    +0.000 C 
BRANCH  20  22
ATOM     21  C   UNL     1       0.799   2.244  18.837  0.00  0.00    +0.000 C 
ATOM     22  O   UNL     1       1.053   3.251  17.864  0.00  0.00    +0.000 OA
ENDBRANCH  20  22
ENDBRANCH  19  20
BRANCH  19  23
ATOM     23  O   UNL     1       4.521   3.971  17.934  0.00  0.00    +0.000 OA
BRANCH  23  24
ATOM     24  C   UNL     1       5.483   4.213  17.007  0.00  0.00    +0.000 C 
ATOM     25  O   UNL     1       5.617   3.617  15.945  0.00  0.00    +0.000 OA
BRANCH  24  26
ATOM     26  C   UNL     1       6.355   5.339  17.405  0.00  0.00    +0.000 A 
ATOM     27  C   UNL     1       7.224   5.158  18.488  0.00  0.00    +0.000 A 
ATOM     28  C   UNL     1       8.025   6.216  18.923  0.00  0.00    +0.000 A 
ATOM     29  C   UNL     1       7.973   7.455  18.281  0.00  0.00    +0.000 A 
ATOM     30  C   UNL     1       7.099   7.637  17.207  0.00  0.00    +0.000 A 
ATOM     31  C   UNL     1       6.294   6.580  16.765  0.00  0.00    +0.000 A 
BRANCH  29  32
ATOM     32  O   UNL     1       8.779   8.419  18.819  0.00  0.00    +0.000 OA
ATOM     33  C   UNL     1       8.599   9.736  18.307  0.00  0.00    +0.000 C 
ENDBRANCH  29  32
ENDBRANCH  24  26
ENDBRANCH  23  24
ENDBRANCH  19  23
ENDBRANCH  18  19
ENDBRANCH   1  18
TORSDOF 8
ENDMDL
MODEL 6
REMARK VINA RESULT:      -7.4      2.747      3.948
REMARK  Name = 
REMARK  10 active torsions:
REMARK  status: ('A' for Active; 'I' for Inactive)
REMARK    1  A    between atoms: C_1  and  O_2
REMARK    2  A    between atoms: O_2  and  C_3
REMARK    3  A    between atoms: C_3  and  C_4
REMARK    4  A    between atoms: C_4  and  C_5
REMARK    5  A    between atoms: C_4  and  O_23
REMARK    6  A    between atoms: C_5  and  N_6
REMARK    7  A    between atoms: O_23  and  C_24
REMARK    8  A    between atoms: C_24  and  C_26
REMARK    9  A    between atoms: C_29  and  O_30
REMARK   10  A    between atoms: O_30  and  C_31
REMARK                            x       y       z     vdW  Elec       q    Type
REMARK                         _______ _______ _______ _____ _____    ______ ____
ROOT
ATOM      1  N   UNL     1       0.345   9.820  19.810  0.00  0.00    +0.000 NA
ATOM      2  C   UNL     1       0.718   9.758  18.370  0.00  0.00    +0.000 C 
ATOM      3  C   UNL     1       1.930   8.857  17.909  0.00  0.00    +0.000 C 
ATOM      4  N   UNL     1       2.245   7.738  18.819  0.00  0.00    +0.000 N 
ATOM      5  C   UNL     1       2.519   6.436  18.453  0.00  0.00    +0.000 C 
ATOM      6  N   UNL     1       1.906   5.430  19.022  0.00  0.00    +0.000 NA
ATOM      7  S   UNL     1       2.605   4.005  18.641  0.00  0.00    +0.000 S 
ATOM      8  O   UNL     1       1.732   3.212  17.807  0.00  0.00    +0.000 OA
ATOM      9  O   UNL     1       3.282   3.466  19.803  0.00  0.00    +0.000 OA
ATOM     10  C   UNL     1       3.828   4.687  17.615  0.00  0.00    +0.000 A 
ATOM     11  C   UNL     1       4.890   4.032  17.023  0.00  0.00    +0.000 A 
ATOM     12  C   UNL     1       5.802   4.818  16.322  0.00  0.00    +0.000 A 
ATOM     13  C   UNL     1       5.629   6.213  16.253  0.00  0.00    +0.000 A 
ATOM     14  C   UNL     1       4.553   6.850  16.889  0.00  0.00    +0.000 A 
ATOM     15  C   UNL     1       3.646   6.060  17.570  0.00  0.00    +0.000 A 
ATOM     16  C   UNL     1       1.915   7.965  20.229  0.00  0.00    +0.000 C 
ATOM     17  C   UNL     1       0.470   8.447  20.327  0.00  0.00    +0.000 C 
ENDROOT
BRANCH   1  18
ATOM     18  C   UNL     1       1.112  10.828  20.599  0.00  0.00    +0.000 C 
BRANCH  18  19
ATOM     19  C   UNL     1       0.296  12.089  21.065  0.00  0.00    +0.000 C 
BRANCH  19  20
ATOM     20  C   UNL     1       0.976  13.416  20.670  0.00  0.00    +0.000 C 
BRANCH  20  22
ATOM     21  C   UNL     1       2.146  15.084  21.873  0.00  0.00    +0.000 C 
ATOM     22  O   UNL     1       2.113  13.720  21.465  0.00  0.00    +0.000 OA
ENDBRANCH  20  22
ENDBRANCH  19  20
BRANCH  19  23
ATOM     23  O   UNL     1       0.152  12.152  22.507  0.00  0.00    +0.000 OA
BRANCH  23  24
ATOM     24  C   UNL     1      -1.001  11.615  22.984  0.00  0.00    +0.000 C 
ATOM     25  O   UNL     1      -1.217  10.420  23.149  0.00  0.00    +0.000 OA
BRANCH  24  26
ATOM     26  C   UNL     1      -1.986  12.661  23.336  0.00  0.00    +0.000 A 
ATOM     27  C   UNL     1      -1.521  13.956  23.595  0.00  0.00    +0.000 A 
ATOM     28  C   UNL     1      -2.417  14.954  23.980  0.00  0.00    +0.000 A 
ATOM     29  C   UNL     1      -3.780  14.674  24.103  0.00  0.00    +0.000 A 
ATOM     30  C   UNL     1      -4.242  13.380  23.854  0.00  0.00    +0.000 A 
ATOM     31  C   UNL     1      -3.348  12.374  23.466  0.00  0.00    +0.000 A 
BRANCH  29  32
ATOM     32  O   UNL     1      -4.550  15.725  24.518  0.00  0.00    +0.000 OA
ATOM     33  C   UNL     1      -5.853  15.804  23.947  0.00  0.00    +0.000 C 
ENDBRANCH  29  32
ENDBRANCH  24  26
ENDBRANCH  23  24
ENDBRANCH  19  23
ENDBRANCH  18  19
ENDBRANCH   1  18
TORSDOF 8
ENDMDL
MODEL 7
REMARK VINA RESULT:      -7.4      2.180      2.609
REMARK  Name = 
REMARK  10 active torsions:
REMARK  status: ('A' for Active; 'I' for Inactive)
REMARK    1  A    between atoms: C_1  and  O_2
REMARK    2  A    between atoms: O_2  and  C_3
REMARK    3  A    between atoms: C_3  and  C_4
REMARK    4  A    between atoms: C_4  and  C_5
REMARK    5  A    between atoms: C_4  and  O_23
REMARK    6  A    between atoms: C_5  and  N_6
REMARK    7  A    between atoms: O_23  and  C_24
REMARK    8  A    between atoms: C_24  and  C_26
REMARK    9  A    between atoms: C_29  and  O_30
REMARK   10  A    between atoms: O_30  and  C_31
REMARK                            x       y       z     vdW  Elec       q    Type
REMARK                         _______ _______ _______ _____ _____    ______ ____
ROOT
ATOM      1  N   UNL     1       1.085  10.329  19.662  0.00  0.00    +0.000 NA
ATOM      2  C   UNL     1       1.356   9.155  20.537  0.00  0.00    +0.000 C 
ATOM      3  C   UNL     1       1.667   7.749  19.891  0.00  0.00    +0.000 C 
ATOM      4  N   UNL     1       2.208   7.808  18.518  0.00  0.00    +0.000 N 
ATOM      5  C   UNL     1       3.271   7.081  18.024  0.00  0.00    +0.000 C 
ATOM      6  N   UNL     1       4.247   7.663  17.378  0.00  0.00    +0.000 NA
ATOM      7  S   UNL     1       5.217   6.576  16.642  0.00  0.00    +0.000 S 
ATOM      8  O   UNL     1       6.523   6.550  17.262  0.00  0.00    +0.000 OA
ATOM      9  O   UNL     1       5.033   6.645  15.207  0.00  0.00    +0.000 OA
ATOM     10  C   UNL     1       4.351   5.177  17.196  0.00  0.00    +0.000 A 
ATOM     11  C   UNL     1       4.562   3.860  16.836  0.00  0.00    +0.000 A 
ATOM     12  C   UNL     1       3.666   2.920  17.339  0.00  0.00    +0.000 A 
ATOM     13  C   UNL     1       2.596   3.326  18.158  0.00  0.00    +0.000 A 
ATOM     14  C   UNL     1       2.395   4.677  18.482  0.00  0.00    +0.000 A 
ATOM     15  C   UNL     1       3.297   5.601  17.990  0.00  0.00    +0.000 A 
ATOM     16  C   UNL     1       1.787   8.969  17.729  0.00  0.00    +0.000 C 
ATOM     17  C   UNL     1       2.037  10.237  18.542  0.00  0.00    +0.000 C 
ENDROOT
BRANCH   1  18
ATOM     18  C   UNL     1      -0.337  10.457  19.230  0.00  0.00    +0.000 C 
BRANCH  18  19
ATOM     19  C   UNL     1      -1.275  11.256  20.207  0.00  0.00    +0.000 C 
BRANCH  19  20
ATOM     20  C   UNL     1      -2.162  12.283  19.474  0.00  0.00    +0.000 C 
BRANCH  20  22
ATOM     21  C   UNL     1      -4.523  12.416  19.520  0.00  0.00    +0.000 C 
ATOM     22  O   UNL     1      -3.386  11.733  19.007  0.00  0.00    +0.000 OA
ENDBRANCH  20  22
ENDBRANCH  19  20
BRANCH  19  23
ATOM     23  O   UNL     1      -0.528  12.028  21.183  0.00  0.00    +0.000 OA
BRANCH  23  24
ATOM     24  C   UNL     1      -0.845  11.763  22.476  0.00  0.00    +0.000 C 
ATOM     25  O   UNL     1      -0.415  10.826  23.139  0.00  0.00    +0.000 OA
BRANCH  24  26
ATOM     26  C   UNL     1      -1.760  12.782  23.035  0.00  0.00    +0.000 A 
ATOM     27  C   UNL     1      -3.134  12.513  23.040  0.00  0.00    +0.000 A 
ATOM     28  C   UNL     1      -4.030  13.473  23.513  0.00  0.00    +0.000 A 
ATOM     29  C   UNL     1      -3.566  14.702  23.990  0.00  0.00    +0.000 A 
ATOM     30  C   UNL     1      -2.197  14.973  23.974  0.00  0.00    +0.000 A 
ATOM     31  C   UNL     1      -1.292  14.014  23.502  0.00  0.00    +0.000 A 
BRANCH  29  32
ATOM     32  O   UNL     1      -4.542  15.570  24.394  0.00  0.00    +0.000 OA
ATOM     33  C   UNL     1      -5.844  15.328  23.869  0.00  0.00    +0.000 C 
ENDBRANCH  29  32
ENDBRANCH  24  26
ENDBRANCH  23  24
ENDBRANCH  19  23
ENDBRANCH  18  19
ENDBRANCH   1  18
TORSDOF 8
ENDMDL
MODEL 8
REMARK VINA RESULT:      -7.3      2.590      3.801
REMARK  Name = 
REMARK  10 active torsions:
REMARK  status: ('A' for Active; 'I' for Inactive)
REMARK    1  A    between atoms: C_1  and  O_2
REMARK    2  A    between atoms: O_2  and  C_3
REMARK    3  A    between atoms: C_3  and  C_4
REMARK    4  A    between atoms: C_4  and  C_5
REMARK    5  A    between atoms: C_4  and  O_23
REMARK    6  A    between atoms: C_5  and  N_6
REMARK    7  A    between atoms: O_23  and  C_24
REMARK    8  A    between atoms: C_24  and  C_26
REMARK    9  A    between atoms: C_29  and  O_30
REMARK   10  A    between atoms: O_30  and  C_31
REMARK                            x       y       z     vdW  Elec       q    Type
REMARK                         _______ _______ _______ _____ _____    ______ ____
ROOT
ATOM      1  N   UNL     1       0.315   9.870  19.988  0.00  0.00    +0.000 NA
ATOM      2  C   UNL     1       0.696   9.852  18.549  0.00  0.00    +0.000 C 
ATOM      3  C   UNL     1       1.901   8.953  18.066  0.00  0.00    +0.000 C 
ATOM      4  N   UNL     1       2.199   7.802  18.940  0.00  0.00    +0.000 N 
ATOM      5  C   UNL     1       2.462   6.510  18.533  0.00  0.00    +0.000 C 
ATOM      6  N   UNL     1       1.836   5.493  19.065  0.00  0.00    +0.000 NA
ATOM      7  S   UNL     1       2.523   4.074  18.642  0.00  0.00    +0.000 S 
ATOM      8  O   UNL     1       1.646   3.317  17.777  0.00  0.00    +0.000 OA
ATOM      9  O   UNL     1       3.187   3.489  19.789  0.00  0.00    +0.000 OA
ATOM     10  C   UNL     1       3.758   4.776  17.646  0.00  0.00    +0.000 A 
ATOM     11  C   UNL     1       4.817   4.129  17.038  0.00  0.00    +0.000 A 
ATOM     12  C   UNL     1       5.741   4.929  16.369  0.00  0.00    +0.000 A 
ATOM     13  C   UNL     1       5.583   6.327  16.344  0.00  0.00    +0.000 A 
ATOM     14  C   UNL     1       4.509   6.954  16.995  0.00  0.00    +0.000 A 
ATOM     15  C   UNL     1       3.591   6.152  17.644  0.00  0.00    +0.000 A 
ATOM     16  C   UNL     1       1.863   7.986  20.355  0.00  0.00    +0.000 C 
ATOM     17  C   UNL     1       0.422   8.479  20.461  0.00  0.00    +0.000 C 
ENDROOT
BRANCH   1  18
ATOM     18  C   UNL     1       1.087  10.844  20.814  0.00  0.00    +0.000 C 
BRANCH  18  19
ATOM     19  C   UNL     1       0.507  12.305  20.861  0.00  0.00    +0.000 C 
BRANCH  19  20
ATOM     20  C   UNL     1       1.557  13.374  20.499  0.00  0.00    +0.000 C 
BRANCH  20  22
ATOM     21  C   UNL     1       2.451  15.157  21.771  0.00  0.00    +0.000 C 
ATOM     22  O   UNL     1       2.379  13.746  21.597  0.00  0.00    +0.000 OA
ENDBRANCH  20  22
ENDBRANCH  19  20
BRANCH  19  23
ATOM     23  O   UNL     1       0.036  12.670  22.185  0.00  0.00    +0.000 OA
BRANCH  23  24
ATOM     24  C   UNL     1      -0.836  11.789  22.737  0.00  0.00    +0.000 C 
ATOM     25  O   UNL     1      -0.534  10.753  23.319  0.00  0.00    +0.000 OA
BRANCH  24  26
ATOM     26  C   UNL     1      -2.237  12.244  22.597  0.00  0.00    +0.000 A 
ATOM     27  C   UNL     1      -3.033  12.313  23.746  0.00  0.00    +0.000 A 
ATOM     28  C   UNL     1      -4.373  12.689  23.643  0.00  0.00    +0.000 A 
ATOM     29  C   UNL     1      -4.927  13.007  22.401  0.00  0.00    +0.000 A 
ATOM     30  C   UNL     1      -4.134  12.928  21.254  0.00  0.00    +0.000 A 
ATOM     31  C   UNL     1      -2.789  12.552  21.350  0.00  0.00    +0.000 A 
BRANCH  29  32
ATOM     32  O   UNL     1      -6.256  13.328  22.426  0.00  0.00    +0.000 OA
ATOM     33  C   UNL     1      -6.972  12.916  23.586  0.00  0.00    +0.000 C 
ENDBRANCH  29  32
ENDBRANCH  24  26
ENDBRANCH  23  24
ENDBRANCH  19  23
ENDBRANCH  18  19
ENDBRANCH   1  18
TORSDOF 8
ENDMDL
MODEL 9
REMARK VINA RESULT:      -7.3      2.423      4.143
REMARK  Name = 
REMARK  10 active torsions:
REMARK  status: ('A' for Active; 'I' for Inactive)
REMARK    1  A    between atoms: C_1  and  O_2
REMARK    2  A    between atoms: O_2  and  C_3
REMARK    3  A    between atoms: C_3  and  C_4
REMARK    4  A    between atoms: C_4  and  C_5
REMARK    5  A    between atoms: C_4  and  O_23
REMARK    6  A    between atoms: C_5  and  N_6
REMARK    7  A    between atoms: O_23  and  C_24
REMARK    8  A    between atoms: C_24  and  C_26
REMARK    9  A    between atoms: C_29  and  O_30
REMARK   10  A    between atoms: O_30  and  C_31
REMARK                            x       y       z     vdW  Elec       q    Type
REMARK                         _______ _______ _______ _____ _____    ______ ____
ROOT
ATOM      1  N   UNL     1       1.040  10.250  18.816  0.00  0.00    +0.000 NA
ATOM      2  C   UNL     1       1.238   9.693  20.182  0.00  0.00    +0.000 C 
ATOM      3  C   UNL     1       1.457   8.141  20.373  0.00  0.00    +0.000 C 
ATOM      4  N   UNL     1       1.996   7.444  19.188  0.00  0.00    +0.000 N 
ATOM      5  C   UNL     1       3.008   6.507  19.179  0.00  0.00    +0.000 C 
ATOM      6  N   UNL     1       4.017   6.610  18.353  0.00  0.00    +0.000 NA
ATOM      7  S   UNL     1       4.913   5.246  18.323  0.00  0.00    +0.000 S 
ATOM      8  O   UNL     1       6.216   5.474  18.905  0.00  0.00    +0.000 OA
ATOM      9  O   UNL     1       4.728   4.566  17.057  0.00  0.00    +0.000 OA
ATOM     10  C   UNL     1       3.960   4.394  19.498  0.00  0.00    +0.000 A 
ATOM     11  C   UNL     1       4.086   3.074  19.884  0.00  0.00    +0.000 A 
ATOM     12  C   UNL     1       3.133   2.586  20.775  0.00  0.00    +0.000 A 
ATOM     13  C   UNL     1       2.094   3.420  21.229  0.00  0.00    +0.000 A 
ATOM     14  C   UNL     1       1.981   4.750  20.795  0.00  0.00    +0.000 A 
ATOM     15  C   UNL     1       2.939   5.229  19.922  0.00  0.00    +0.000 A 
ATOM     16  C   UNL     1       1.647   8.044  17.897  0.00  0.00    +0.000 C 
ATOM     17  C   UNL     1       1.980   9.533  17.937  0.00  0.00    +0.000 C 
ENDROOT
BRANCH   1  18
ATOM     18  C   UNL     1      -0.372  10.214  18.337  0.00  0.00    +0.000 C 
BRANCH  18  19
ATOM     19  C   UNL     1      -1.159  11.572  18.436  0.00  0.00    +0.000 C 
BRANCH  19  20
ATOM     20  C   UNL     1      -2.298  11.676  17.402  0.00  0.00    +0.000 C 
BRANCH  20  22
ATOM     21  C   UNL     1      -2.982  10.760  15.331  0.00  0.00    +0.000 C 
ATOM     22  O   UNL     1      -2.461  10.495  16.628  0.00  0.00    +0.000 OA
ENDBRANCH  20  22
ENDBRANCH  19  20
BRANCH  19  23
ATOM     23  O   UNL     1      -0.310  12.722  18.181  0.00  0.00    +0.000 OA
BRANCH  23  24
ATOM     24  C   UNL     1      -0.173  13.567  19.234  0.00  0.00    +0.000 C 
ATOM     25  O   UNL     1      -0.888  13.590  20.230  0.00  0.00    +0.000 OA
BRANCH  24  26
ATOM     26  C   UNL     1       0.995  14.460  19.071  0.00  0.00    +0.000 A 
ATOM     27  C   UNL     1       0.766  15.825  18.861  0.00  0.00    +0.000 A 
ATOM     28  C   UNL     1       1.842  16.688  18.651  0.00  0.00    +0.000 A 
ATOM     29  C   UNL     1       3.152  16.202  18.656  0.00  0.00    +0.000 A 
ATOM     30  C   UNL     1       3.379  14.839  18.855  0.00  0.00    +0.000 A 
ATOM     31  C   UNL     1       2.303  13.968  19.067  0.00  0.00    +0.000 A 
BRANCH  29  32
ATOM     32  O   UNL     1       4.116  17.138  18.407  0.00  0.00    +0.000 OA
ATOM     33  C   UNL     1       5.441  16.784  18.793  0.00  0.00    +0.000 C 
ENDBRANCH  29  32
ENDBRANCH  24  26
ENDBRANCH  23  24
ENDBRANCH  19  23
ENDBRANCH  18  19
ENDBRANCH   1  18
TORSDOF 8
ENDMDL
