MODEL 1
REMARK VINA RESULT:      -8.1      0.000      0.000
REMARK  Name = 
REMARK  5 active torsions:
REMARK  status: ('A' for Active; 'I' for Inactive)
REMARK    1  A    between atoms: C_1  and  N_2
REMARK    2  A    between atoms: N_2  and  C_3
REMARK    3  A    between atoms: C_9  and  C_10
REMARK    4  A    between atoms: N_20  and  C_21
REMARK    5  A    between atoms: C_21  and  C_22
REMARK                            x       y       z     vdW  Elec       q    Type
REMARK                         _______ _______ _______ _____ _____    ______ ____
ROOT
ATOM      1  C   UNL     1       2.014   2.510  21.748  0.00  0.00    +0.000 C 
ATOM      2  N   UNL     1       2.227   3.751  21.033  0.00  0.00    +0.000 N 
ATOM      3  C   UNL     1       1.416   4.912  21.331  0.00  0.00    +0.000 C 
ATOM      4  C   UNL     1       2.801   3.680  19.780  0.00  0.00    +0.000 A 
ATOM      5  N   UNL     1       3.122   2.475  19.281  0.00  0.00    +0.000 NA
ATOM      6  C   UNL     1       3.754   2.438  18.090  0.00  0.00    +0.000 A 
ATOM      7  C   UNL     1       4.123   3.552  17.379  0.00  0.00    +0.000 A 
ATOM      8  N   UNL     1       4.840   3.439  16.175  0.00  0.00    +0.000 NA
ATOM      9  C   UNL     1       5.251   4.537  15.607  0.00  0.00    +0.000 A 
ATOM     10  C   UNL     1       4.989   5.917  16.233  0.00  0.00    +0.000 A 
ATOM     11  O   UNL     1       5.531   6.910  15.763  0.00  0.00    +0.000 OA
ATOM     12  N   UNL     1       4.162   5.949  17.342  0.00  0.00    +0.000 N 
ATOM     13  C   UNL     1       3.751   4.749  17.968  0.00  0.00    +0.000 A 
ATOM     14  N   UNL     1       3.073   4.824  19.131  0.00  0.00    +0.000 NA
ENDROOT
BRANCH   9  15
ATOM     15  C   UNL     1       6.022   4.448  14.333  0.00  0.00    +0.000 A 
ATOM     16  C   UNL     1       7.152   5.236  14.095  0.00  0.00    +0.000 A 
ATOM     17  C   UNL     1       7.865   5.083  12.908  0.00  0.00    +0.000 A 
ATOM     18  F   UNL     1       8.963   5.825  12.710  0.00  0.00    +0.000 F 
ATOM     19  C   UNL     1       7.461   4.182  11.940  0.00  0.00    +0.000 A 
ATOM     20  C   UNL     1       6.322   3.425  12.165  0.00  0.00    +0.000 A 
ATOM     21  F   UNL     1       5.916   2.553  11.233  0.00  0.00    +0.000 F 
ATOM     22  C   UNL     1       5.595   3.547  13.347  0.00  0.00    +0.000 A 
ENDBRANCH   9  15
BRANCH  12  23
ATOM     23  C   UNL     1       3.851   7.231  17.966  0.00  0.00    +0.000 C 
BRANCH  23  24
ATOM     24  C   UNL     1       2.380   7.670  17.840  0.00  0.00    +0.000 C 
ATOM     25  C   UNL     1       1.657   7.930  19.158  0.00  0.00    +0.000 C 
ATOM     26  C   UNL     1       1.853   9.410  19.371  0.00  0.00    +0.000 C 
ATOM     27  C   UNL     1       1.761   9.928  17.955  0.00  0.00    +0.000 C 
ATOM     28  O   UNL     1       2.350   8.924  17.117  0.00  0.00    +0.000 OA
ENDBRANCH  23  24
ENDBRANCH  12  23
TORSDOF 3
ENDMDL
MODEL 2
REMARK VINA RESULT:      -8.0      7.465     11.432
REMARK  Name = 
REMARK  5 active torsions:
REMARK  status: ('A' for Active; 'I' for Inactive)
REMARK    1  A    between atoms: C_1  and  N_2
REMARK    2  A    between atoms: N_2  and  C_3
REMARK    3  A    between atoms: C_9  and  C_10
REMARK    4  A    between atoms: N_20  and  C_21
REMARK    5  A    between atoms: C_21  and  C_22
REMARK                            x       y       z     vdW  Elec       q    Type
REMARK                         _______ _______ _______ _____ _____    ______ ____
ROOT
ATOM      1  C   UNL     1       2.848   6.501  19.646  0.00  0.00    +0.000 C 
ATOM      2  N   UNL     1       2.052   7.575  19.092  0.00  0.00    +0.000 N 
ATOM      3  C   UNL     1       2.259   8.007  17.726  0.00  0.00    +0.000 C 
ATOM      4  C   UNL     1       1.502   8.487  19.971  0.00  0.00    +0.000 A 
ATOM      5  N   UNL     1       1.737   8.343  21.285  0.00  0.00    +0.000 NA
ATOM      6  C   UNL     1       1.125   9.198  22.129  0.00  0.00    +0.000 A 
ATOM      7  C   UNL     1       0.247  10.176  21.731  0.00  0.00    +0.000 A 
ATOM      8  N   UNL     1      -0.407  10.989  22.673  0.00  0.00    +0.000 NA
ATOM      9  C   UNL     1      -1.306  11.823  22.235  0.00  0.00    +0.000 A 
ATOM     10  C   UNL     1      -1.667  11.912  20.743  0.00  0.00    +0.000 A 
ATOM     11  O   UNL     1      -2.629  12.584  20.389  0.00  0.00    +0.000 OA
ATOM     12  N   UNL     1      -0.883  11.178  19.869  0.00  0.00    +0.000 N 
ATOM     13  C   UNL     1       0.066  10.252  20.360  0.00  0.00    +0.000 A 
ATOM     14  N   UNL     1       0.701   9.449  19.483  0.00  0.00    +0.000 NA
ENDROOT
BRANCH   9  15
ATOM     15  C   UNL     1      -2.024  12.693  23.212  0.00  0.00    +0.000 A 
ATOM     16  C   UNL     1      -1.517  13.934  23.611  0.00  0.00    +0.000 A 
ATOM     17  C   UNL     1      -2.247  14.729  24.491  0.00  0.00    +0.000 A 
ATOM     18  F   UNL     1      -1.761  15.928  24.838  0.00  0.00    +0.000 F 
ATOM     19  C   UNL     1      -3.458  14.304  25.006  0.00  0.00    +0.000 A 
ATOM     20  C   UNL     1      -3.943  13.060  24.634  0.00  0.00    +0.000 A 
ATOM     21  F   UNL     1      -5.111  12.633  25.129  0.00  0.00    +0.000 F 
ATOM     22  C   UNL     1      -3.241  12.247  23.746  0.00  0.00    +0.000 A 
ENDBRANCH   9  15
BRANCH  12  23
ATOM     23  C   UNL     1      -1.155  11.241  18.437  0.00  0.00    +0.000 C 
BRANCH  23  24
ATOM     24  C   UNL     1      -2.166  10.198  17.926  0.00  0.00    +0.000 C 
ATOM     25  C   UNL     1      -3.586  10.712  17.709  0.00  0.00    +0.000 C 
ATOM     26  C   UNL     1      -3.589  11.106  16.254  0.00  0.00    +0.000 C 
ATOM     27  C   UNL     1      -2.714  10.033  15.653  0.00  0.00    +0.000 C 
ATOM     28  O   UNL     1      -1.710   9.732  16.633  0.00  0.00    +0.000 OA
ENDBRANCH  23  24
ENDBRANCH  12  23
TORSDOF 3
ENDMDL
MODEL 3
REMARK VINA RESULT:      -8.0      0.086      1.553
REMARK  Name = 
REMARK  5 active torsions:
REMARK  status: ('A' for Active; 'I' for Inactive)
REMARK    1  A    between atoms: C_1  and  N_2
REMARK    2  A    between atoms: N_2  and  C_3
REMARK    3  A    between atoms: C_9  and  C_10
REMARK    4  A    between atoms: N_20  and  C_21
REMARK    5  A    between atoms: C_21  and  C_22
REMARK                            x       y       z     vdW  Elec       q    Type
REMARK                         _______ _______ _______ _____ _____    ______ ____
ROOT
ATOM      1  C   UNL     1       2.094   2.532  21.775  0.00  0.00    +0.000 C 
ATOM      2  N   UNL     1       2.294   3.765  21.043  0.00  0.00    +0.000 N 
ATOM      3  C   UNL     1       1.474   4.923  21.328  0.00  0.00    +0.000 C 
ATOM      4  C   UNL     1       2.865   3.682  19.789  0.00  0.00    +0.000 A 
ATOM      5  N   UNL     1       3.195   2.473  19.306  0.00  0.00    +0.000 NA
ATOM      6  C   UNL     1       3.823   2.425  18.113  0.00  0.00    +0.000 A 
ATOM      7  C   UNL     1       4.182   3.533  17.386  0.00  0.00    +0.000 A 
ATOM      8  N   UNL     1       4.896   3.409  16.182  0.00  0.00    +0.000 NA
ATOM      9  C   UNL     1       5.296   4.503  15.598  0.00  0.00    +0.000 A 
ATOM     10  C   UNL     1       5.024   5.889  16.206  0.00  0.00    +0.000 A 
ATOM     11  O   UNL     1       5.557   6.880  15.720  0.00  0.00    +0.000 OA
ATOM     12  N   UNL     1       4.200   5.929  17.317  0.00  0.00    +0.000 N 
ATOM     13  C   UNL     1       3.801   4.735  17.960  0.00  0.00    +0.000 A 
ATOM     14  N   UNL     1       3.125   4.820  19.124  0.00  0.00    +0.000 NA
ENDROOT
BRANCH   9  15
ATOM     15  C   UNL     1       6.064   4.402  14.323  0.00  0.00    +0.000 A 
ATOM     16  C   UNL     1       5.686   3.531  13.297  0.00  0.00    +0.000 A 
ATOM     17  C   UNL     1       6.409   3.507  12.107  0.00  0.00    +0.000 A 
ATOM     18  F   UNL     1       6.014   2.688  11.123  0.00  0.00    +0.000 F 
ATOM     19  C   UNL     1       7.519   4.312  11.926  0.00  0.00    +0.000 A 
ATOM     20  C   UNL     1       7.911   5.152  12.956  0.00  0.00    +0.000 A 
ATOM     21  F   UNL     1       8.987   5.932  12.797  0.00  0.00    +0.000 F 
ATOM     22  C   UNL     1       7.200   5.206  14.154  0.00  0.00    +0.000 A 
ENDBRANCH   9  15
BRANCH  12  23
ATOM     23  C   UNL     1       3.880   7.216  17.925  0.00  0.00    +0.000 C 
BRANCH  23  24
ATOM     24  C   UNL     1       2.410   7.651  17.780  0.00  0.00    +0.000 C 
ATOM     25  C   UNL     1       1.659   7.874  19.089  0.00  0.00    +0.000 C 
ATOM     26  C   UNL     1       1.841   9.349  19.342  0.00  0.00    +0.000 C 
ATOM     27  C   UNL     1       1.775   9.901  17.938  0.00  0.00    +0.000 C 
ATOM     28  O   UNL     1       2.386   8.922  17.087  0.00  0.00    +0.000 OA
ENDBRANCH  23  24
ENDBRANCH  12  23
TORSDOF 3
ENDMDL
MODEL 4
REMARK VINA RESULT:      -7.9      7.400     11.454
REMARK  Name = 
REMARK  5 active torsions:
REMARK  status: ('A' for Active; 'I' for Inactive)
REMARK    1  A    between atoms: C_1  and  N_2
REMARK    2  A    between atoms: N_2  and  C_3
REMARK    3  A    between atoms: C_9  and  C_10
REMARK    4  A    between atoms: N_20  and  C_21
REMARK    5  A    between atoms: C_21  and  C_22
REMARK                            x       y       z     vdW  Elec       q    Type
REMARK                         _______ _______ _______ _____ _____    ______ ____
ROOT
ATOM      1  C   UNL     1       2.883   6.440  19.586  0.00  0.00    +0.000 C 
ATOM      2  N   UNL     1       2.092   7.516  19.027  0.00  0.00    +0.000 N 
ATOM      3  C   UNL     1       2.312   7.950  17.664  0.00  0.00    +0.000 C 
ATOM      4  C   UNL     1       1.534   8.425  19.903  0.00  0.00    +0.000 A 
ATOM      5  N   UNL     1       1.758   8.279  21.219  0.00  0.00    +0.000 NA
ATOM      6  C   UNL     1       1.138   9.133  22.059  0.00  0.00    +0.000 A 
ATOM      7  C   UNL     1       0.264  10.111  21.656  0.00  0.00    +0.000 A 
ATOM      8  N   UNL     1      -0.398  10.922  22.593  0.00  0.00    +0.000 NA
ATOM      9  C   UNL     1      -1.293  11.758  22.148  0.00  0.00    +0.000 A 
ATOM     10  C   UNL     1      -1.641  11.850  20.653  0.00  0.00    +0.000 A 
ATOM     11  O   UNL     1      -2.599  12.523  20.292  0.00  0.00    +0.000 OA
ATOM     12  N   UNL     1      -0.849  11.118  19.785  0.00  0.00    +0.000 N 
ATOM     13  C   UNL     1       0.095  10.190  20.283  0.00  0.00    +0.000 A 
ATOM     14  N   UNL     1       0.738   9.389  19.410  0.00  0.00    +0.000 NA
ENDROOT
BRANCH   9  15
ATOM     15  C   UNL     1      -2.019  12.626  23.121  0.00  0.00    +0.000 A 
ATOM     16  C   UNL     1      -3.243  12.246  23.682  0.00  0.00    +0.000 A 
ATOM     17  C   UNL     1      -3.859  13.070  24.620  0.00  0.00    +0.000 A 
ATOM     18  F   UNL     1      -5.016  12.677  25.170  0.00  0.00    +0.000 F 
ATOM     19  C   UNL     1      -3.299  14.278  24.993  0.00  0.00    +0.000 A 
ATOM     20  C   UNL     1      -2.102  14.667  24.412  0.00  0.00    +0.000 A 
ATOM     21  F   UNL     1      -1.551  15.837  24.758  0.00  0.00    +0.000 F 
ATOM     22  C   UNL     1      -1.455  13.859  23.478  0.00  0.00    +0.000 A 
ENDBRANCH   9  15
BRANCH  12  23
ATOM     23  C   UNL     1      -1.108  11.184  18.351  0.00  0.00    +0.000 C 
BRANCH  23  24
ATOM     24  C   UNL     1      -2.084  10.117  17.822  0.00  0.00    +0.000 C 
ATOM     25  C   UNL     1      -3.551  10.533  17.777  0.00  0.00    +0.000 C 
ATOM     26  C   UNL     1      -3.714  11.063  16.375  0.00  0.00    +0.000 C 
ATOM     27  C   UNL     1      -2.822  10.125  15.598  0.00  0.00    +0.000 C 
ATOM     28  O   UNL     1      -1.716   9.813  16.455  0.00  0.00    +0.000 OA
ENDBRANCH  23  24
ENDBRANCH  12  23
TORSDOF 3
ENDMDL
MODEL 5
REMARK VINA RESULT:      -7.9      4.940      7.480
REMARK  Name = 
REMARK  5 active torsions:
REMARK  status: ('A' for Active; 'I' for Inactive)
REMARK    1  A    between atoms: C_1  and  N_2
REMARK    2  A    between atoms: N_2  and  C_3
REMARK    3  A    between atoms: C_9  and  C_10
REMARK    4  A    between atoms: N_20  and  C_21
REMARK    5  A    between atoms: C_21  and  C_22
REMARK                            x       y       z     vdW  Elec       q    Type
REMARK                         _______ _______ _______ _____ _____    ______ ____
ROOT
ATOM      1  C   UNL     1      -2.038  12.967  23.732  0.00  0.00    +0.000 C 
ATOM      2  N   UNL     1      -2.037  12.626  22.325  0.00  0.00    +0.000 N 
ATOM      3  C   UNL     1      -3.163  12.982  21.488  0.00  0.00    +0.000 C 
ATOM      4  C   UNL     1      -1.254  11.563  21.922  0.00  0.00    +0.000 A 
ATOM      5  N   UNL     1      -0.547  10.892  22.845  0.00  0.00    +0.000 NA
ATOM      6  C   UNL     1       0.270   9.909  22.416  0.00  0.00    +0.000 A 
ATOM      7  C   UNL     1       0.453   9.580  21.096  0.00  0.00    +0.000 A 
ATOM      8  N   UNL     1       1.373   8.588  20.716  0.00  0.00    +0.000 NA
ATOM      9  C   UNL     1       1.574   8.401  19.443  0.00  0.00    +0.000 A 
ATOM     10  C   UNL     1       0.855   9.246  18.379  0.00  0.00    +0.000 A 
ATOM     11  O   UNL     1       1.192   9.158  17.204  0.00  0.00    +0.000 OA
ATOM     12  N   UNL     1      -0.132  10.104  18.831  0.00  0.00    +0.000 N 
ATOM     13  C   UNL     1      -0.317  10.322  20.215  0.00  0.00    +0.000 A 
ATOM     14  N   UNL     1      -1.183  11.277  20.611  0.00  0.00    +0.000 NA
ENDROOT
BRANCH   9  15
ATOM     15  C   UNL     1       2.552   7.360  19.011  0.00  0.00    +0.000 A 
ATOM     16  C   UNL     1       2.702   6.152  19.700  0.00  0.00    +0.000 A 
ATOM     17  C   UNL     1       3.596   5.193  19.230  0.00  0.00    +0.000 A 
ATOM     18  F   UNL     1       3.704   4.030  19.885  0.00  0.00    +0.000 F 
ATOM     19  C   UNL     1       4.365   5.421  18.104  0.00  0.00    +0.000 A 
ATOM     20  C   UNL     1       4.238   6.631  17.441  0.00  0.00    +0.000 A 
ATOM     21  F   UNL     1       4.982   6.867  16.353  0.00  0.00    +0.000 F 
ATOM     22  C   UNL     1       3.344   7.606  17.880  0.00  0.00    +0.000 A 
ENDBRANCH   9  15
BRANCH  12  23
ATOM     23  C   UNL     1      -0.872  10.914  17.868  0.00  0.00    +0.000 C 
BRANCH  23  24
ATOM     24  C   UNL     1      -1.918  10.140  17.043  0.00  0.00    +0.000 C 
ATOM     25  C   UNL     1      -3.125   9.631  17.825  0.00  0.00    +0.000 C 
ATOM     26  C   UNL     1      -4.134  10.738  17.658  0.00  0.00    +0.000 C 
ATOM     27  C   UNL     1      -3.859  11.179  16.240  0.00  0.00    +0.000 C 
ATOM     28  O   UNL     1      -2.446  11.039  16.038  0.00  0.00    +0.000 OA
ENDBRANCH  23  24
ENDBRANCH  12  23
TORSDOF 3
ENDMDL
MODEL 6
REMARK VINA RESULT:      -7.8      4.991      7.502
REMARK  Name = 
REMARK  5 active torsions:
REMARK  status: ('A' for Active; 'I' for Inactive)
REMARK    1  A    between atoms: C_1  and  N_2
REMARK    2  A    between atoms: N_2  and  C_3
REMARK    3  A    between atoms: C_9  and  C_10
REMARK    4  A    between atoms: N_20  and  C_21
REMARK    5  A    between atoms: C_21  and  C_22
REMARK                            x       y       z     vdW  Elec       q    Type
REMARK                         _______ _______ _______ _____ _____    ______ ____
ROOT
ATOM      1  C   UNL     1      -1.810  13.208  23.682  0.00  0.00    +0.000 C 
ATOM      2  N   UNL     1      -1.932  12.769  22.309  0.00  0.00    +0.000 N 
ATOM      3  C   UNL     1      -3.150  13.022  21.568  0.00  0.00    +0.000 C 
ATOM      4  C   UNL     1      -1.148  11.708  21.901  0.00  0.00    +0.000 A 
ATOM      5  N   UNL     1      -0.324  11.131  22.791  0.00  0.00    +0.000 NA
ATOM      6  C   UNL     1       0.488  10.150  22.349  0.00  0.00    +0.000 A 
ATOM      7  C   UNL     1       0.554   9.735  21.042  0.00  0.00    +0.000 A 
ATOM      8  N   UNL     1       1.474   8.752  20.639  0.00  0.00    +0.000 NA
ATOM      9  C   UNL     1       1.557   8.482  19.367  0.00  0.00    +0.000 A 
ATOM     10  C   UNL     1       0.700   9.222  18.327  0.00  0.00    +0.000 A 
ATOM     11  O   UNL     1       0.923   9.063  17.132  0.00  0.00    +0.000 OA
ATOM     12  N   UNL     1      -0.274  10.074  18.817  0.00  0.00    +0.000 N 
ATOM     13  C   UNL     1      -0.331  10.384  20.196  0.00  0.00    +0.000 A 
ATOM     14  N   UNL     1      -1.194  11.332  20.612  0.00  0.00    +0.000 NA
ENDROOT
BRANCH   9  15
ATOM     15  C   UNL     1       2.531   7.449  18.909  0.00  0.00    +0.000 A 
ATOM     16  C   UNL     1       3.339   7.641  17.783  0.00  0.00    +0.000 A 
ATOM     17  C   UNL     1       4.266   6.666  17.422  0.00  0.00    +0.000 A 
ATOM     18  F   UNL     1       5.052   6.879  16.360  0.00  0.00    +0.000 F 
ATOM     19  C   UNL     1       4.388   5.491  18.141  0.00  0.00    +0.000 A 
ATOM     20  C   UNL     1       3.564   5.290  19.238  0.00  0.00    +0.000 A 
ATOM     21  F   UNL     1       3.667   4.154  19.939  0.00  0.00    +0.000 F 
ATOM     22  C   UNL     1       2.635   6.252  19.631  0.00  0.00    +0.000 A 
ENDBRANCH   9  15
BRANCH  12  23
ATOM     23  C   UNL     1      -1.140  10.785  17.883  0.00  0.00    +0.000 C 
BRANCH  23  24
ATOM     24  C   UNL     1      -2.346   9.973  17.375  0.00  0.00    +0.000 C 
ATOM     25  C   UNL     1      -3.714  10.486  17.814  0.00  0.00    +0.000 C 
ATOM     26  C   UNL     1      -4.123  11.390  16.678  0.00  0.00    +0.000 C 
ATOM     27  C   UNL     1      -3.568  10.641  15.490  0.00  0.00    +0.000 C 
ATOM     28  O   UNL     1      -2.346  10.031  15.928  0.00  0.00    +0.000 OA
ENDBRANCH  23  24
ENDBRANCH  12  23
TORSDOF 3
ENDMDL
MODEL 7
REMARK VINA RESULT:      -7.6      1.927      4.151
REMARK  Name = 
REMARK  5 active torsions:
REMARK  status: ('A' for Active; 'I' for Inactive)
REMARK    1  A    between atoms: C_1  and  N_2
REMARK    2  A    between atoms: N_2  and  C_3
REMARK    3  A    between atoms: C_9  and  C_10
REMARK    4  A    between atoms: N_20  and  C_21
REMARK    5  A    between atoms: C_21  and  C_22
REMARK                            x       y       z     vdW  Elec       q    Type
REMARK                         _______ _______ _______ _____ _____    ______ ____
ROOT
ATOM      1  C   UNL     1       0.760   9.475  20.113  0.00  0.00    +0.000 C 
ATOM      2  N   UNL     1       1.456   8.213  20.245  0.00  0.00    +0.000 N 
ATOM      3  C   UNL     1       1.689   7.642  21.554  0.00  0.00    +0.000 C 
ATOM      4  C   UNL     1       2.311   7.841  19.227  0.00  0.00    +0.000 A 
ATOM      5  N   UNL     1       2.466   8.665  18.177  0.00  0.00    +0.000 NA
ATOM      6  C   UNL     1       3.245   8.243  17.160  0.00  0.00    +0.000 A 
ATOM      7  C   UNL     1       3.853   7.013  17.113  0.00  0.00    +0.000 A 
ATOM      8  N   UNL     1       4.597   6.615  15.990  0.00  0.00    +0.000 NA
ATOM      9  C   UNL     1       5.057   5.396  15.967  0.00  0.00    +0.000 A 
ATOM     10  C   UNL     1       4.784   4.408  17.112  0.00  0.00    +0.000 A 
ATOM     11  O   UNL     1       5.087   3.228  16.982  0.00  0.00    +0.000 OA
ATOM     12  N   UNL     1       4.163   4.919  18.239  0.00  0.00    +0.000 N 
ATOM     13  C   UNL     1       3.639   6.233  18.237  0.00  0.00    +0.000 A 
ATOM     14  N   UNL     1       2.911   6.641  19.296  0.00  0.00    +0.000 NA
ENDROOT
BRANCH   9  15
ATOM     15  C   UNL     1       5.842   4.942  14.782  0.00  0.00    +0.000 A 
ATOM     16  C   UNL     1       5.392   3.916  13.944  0.00  0.00    +0.000 A 
ATOM     17  C   UNL     1       6.139   3.559  12.825  0.00  0.00    +0.000 A 
ATOM     18  F   UNL     1       5.678   2.595  12.017  0.00  0.00    +0.000 F 
ATOM     19  C   UNL     1       7.340   4.181  12.535  0.00  0.00    +0.000 A 
ATOM     20  C   UNL     1       7.799   5.176  13.384  0.00  0.00    +0.000 A 
ATOM     21  F   UNL     1       8.963   5.783  13.119  0.00  0.00    +0.000 F 
ATOM     22  C   UNL     1       7.068   5.563  14.506  0.00  0.00    +0.000 A 
ENDBRANCH   9  15
BRANCH  12  23
ATOM     23  C   UNL     1       3.902   4.040  19.373  0.00  0.00    +0.000 C 
BRANCH  23  24
ATOM     24  C   UNL     1       2.694   3.102  19.197  0.00  0.00    +0.000 C 
ATOM     25  C   UNL     1       2.383   2.200  20.389  0.00  0.00    +0.000 C 
ATOM     26  C   UNL     1       1.371   2.999  21.169  0.00  0.00    +0.000 C 
ATOM     27  C   UNL     1       0.582   3.646  20.057  0.00  0.00    +0.000 C 
ATOM     28  O   UNL     1       1.516   3.922  19.003  0.00  0.00    +0.000 OA
ENDBRANCH  23  24
ENDBRANCH  12  23
TORSDOF 3
ENDMDL
MODEL 8
REMARK VINA RESULT:      -7.6      4.606      8.288
REMARK  Name = 
REMARK  5 active torsions:
REMARK  status: ('A' for Active; 'I' for Inactive)
REMARK    1  A    between atoms: C_1  and  N_2
REMARK    2  A    between atoms: N_2  and  C_3
REMARK    3  A    between atoms: C_9  and  C_10
REMARK    4  A    between atoms: N_20  and  C_21
REMARK    5  A    between atoms: C_21  and  C_22
REMARK                            x       y       z     vdW  Elec       q    Type
REMARK                         _______ _______ _______ _____ _____    ______ ____
ROOT
ATOM      1  C   UNL     1       6.653   4.838  16.188  0.00  0.00    +0.000 C 
ATOM      2  N   UNL     1       5.694   4.702  17.264  0.00  0.00    +0.000 N 
ATOM      3  C   UNL     1       5.362   3.393  17.783  0.00  0.00    +0.000 C 
ATOM      4  C   UNL     1       4.760   5.706  17.422  0.00  0.00    +0.000 A 
ATOM      5  N   UNL     1       4.775   6.746  16.572  0.00  0.00    +0.000 NA
ATOM      6  C   UNL     1       3.904   7.750  16.796  0.00  0.00    +0.000 A 
ATOM      7  C   UNL     1       3.034   7.794  17.858  0.00  0.00    +0.000 A 
ATOM      8  N   UNL     1       2.201   8.906  18.066  0.00  0.00    +0.000 NA
ATOM      9  C   UNL     1       1.478   8.929  19.150  0.00  0.00    +0.000 A 
ATOM     10  C   UNL     1       1.542   7.797  20.188  0.00  0.00    +0.000 A 
ATOM     11  O   UNL     1       0.980   7.930  21.268  0.00  0.00    +0.000 OA
ATOM     12  N   UNL     1       2.282   6.679  19.842  0.00  0.00    +0.000 N 
ATOM     13  C   UNL     1       3.087   6.681  18.680  0.00  0.00    +0.000 A 
ATOM     14  N   UNL     1       3.907   5.634  18.458  0.00  0.00    +0.000 NA
ENDROOT
BRANCH   9  15
ATOM     15  C   UNL     1       0.591  10.101  19.402  0.00  0.00    +0.000 A 
ATOM     16  C   UNL     1      -0.671  10.217  18.808  0.00  0.00    +0.000 A 
ATOM     17  C   UNL     1      -1.481  11.308  19.111  0.00  0.00    +0.000 A 
ATOM     18  F   UNL     1      -2.698  11.388  18.557  0.00  0.00    +0.000 F 
ATOM     19  C   UNL     1      -1.054  12.302  19.972  0.00  0.00    +0.000 A 
ATOM     20  C   UNL     1       0.209  12.201  20.536  0.00  0.00    +0.000 A 
ATOM     21  F   UNL     1       0.638  13.160  21.366  0.00  0.00    +0.000 F 
ATOM     22  C   UNL     1       1.039  11.116  20.260  0.00  0.00    +0.000 A 
ENDBRANCH   9  15
BRANCH  12  23
ATOM     23  C   UNL     1       2.359   5.556  20.771  0.00  0.00    +0.000 C 
BRANCH  23  24
ATOM     24  C   UNL     1       1.249   4.502  20.604  0.00  0.00    +0.000 C 
ATOM     25  C   UNL     1       1.167   3.848  19.228  0.00  0.00    +0.000 C 
ATOM     26  C   UNL     1       2.015   2.611  19.385  0.00  0.00    +0.000 C 
ATOM     27  C   UNL     1       1.695   2.210  20.805  0.00  0.00    +0.000 C 
ATOM     28  O   UNL     1       1.510   3.428  21.539  0.00  0.00    +0.000 OA
ENDBRANCH  23  24
ENDBRANCH  12  23
TORSDOF 3
ENDMDL
MODEL 9
REMARK VINA RESULT:      -7.6      4.605      8.229
REMARK  Name = 
REMARK  5 active torsions:
REMARK  status: ('A' for Active; 'I' for Inactive)
REMARK    1  A    between atoms: C_1  and  N_2
REMARK    2  A    between atoms: N_2  and  C_3
REMARK    3  A    between atoms: C_9  and  C_10
REMARK    4  A    between atoms: N_20  and  C_21
REMARK    5  A    between atoms: C_21  and  C_22
REMARK                            x       y       z     vdW  Elec       q    Type
REMARK                         _______ _______ _______ _____ _____    ______ ____
ROOT
ATOM      1  C   UNL     1       6.605   4.998  16.089  0.00  0.00    +0.000 C 
ATOM      2  N   UNL     1       5.668   4.817  17.178  0.00  0.00    +0.000 N 
ATOM      3  C   UNL     1       5.365   3.488  17.665  0.00  0.00    +0.000 C 
ATOM      4  C   UNL     1       4.721   5.801  17.381  0.00  0.00    +0.000 A 
ATOM      5  N   UNL     1       4.705   6.865  16.561  0.00  0.00    +0.000 NA
ATOM      6  C   UNL     1       3.823   7.849  16.829  0.00  0.00    +0.000 A 
ATOM      7  C   UNL     1       2.973   7.849  17.907  0.00  0.00    +0.000 A 
ATOM      8  N   UNL     1       2.126   8.942  18.161  0.00  0.00    +0.000 NA
ATOM      9  C   UNL     1       1.423   8.923  19.258  0.00  0.00    +0.000 A 
ATOM     10  C   UNL     1       1.523   7.762  20.262  0.00  0.00    +0.000 A 
ATOM     11  O   UNL     1       0.979   7.856  21.356  0.00  0.00    +0.000 OA
ATOM     12  N   UNL     1       2.273   6.666  19.871  0.00  0.00    +0.000 N 
ATOM     13  C   UNL     1       3.057   6.714  18.695  0.00  0.00    +0.000 A 
ATOM     14  N   UNL     1       3.889   5.686  18.430  0.00  0.00    +0.000 NA
ENDROOT
BRANCH   9  15
ATOM     15  C   UNL     1       0.523  10.073  19.560  0.00  0.00    +0.000 A 
ATOM     16  C   UNL     1       0.861  11.053  20.499  0.00  0.00    +0.000 A 
ATOM     17  C   UNL     1       0.007  12.132  20.713  0.00  0.00    +0.000 A 
ATOM     18  F   UNL     1       0.362  13.076  21.594  0.00  0.00    +0.000 F 
ATOM     19  C   UNL     1      -1.191  12.244  20.031  0.00  0.00    +0.000 A 
ATOM     20  C   UNL     1      -1.539  11.256  19.123  0.00  0.00    +0.000 A 
ATOM     21  F   UNL     1      -2.699  11.349  18.461  0.00  0.00    +0.000 F 
ATOM     22  C   UNL     1      -0.700  10.170  18.880  0.00  0.00    +0.000 A 
ENDBRANCH   9  15
BRANCH  12  23
ATOM     23  C   UNL     1       2.385   5.520  20.766  0.00  0.00    +0.000 C 
BRANCH  23  24
ATOM     24  C   UNL     1       1.245   4.492  20.643  0.00  0.00    +0.000 C 
ATOM     25  C   UNL     1       1.144   3.781  19.296  0.00  0.00    +0.000 C 
ATOM     26  C   UNL     1       1.957   2.529  19.507  0.00  0.00    +0.000 C 
ATOM     27  C   UNL     1       1.625   2.198  20.942  0.00  0.00    +0.000 C 
ATOM     28  O   UNL     1       1.475   3.451  21.623  0.00  0.00    +0.000 OA
ENDBRANCH  23  24
ENDBRANCH  12  23
TORSDOF 3
ENDMDL
