MODEL 1
REMARK VINA RESULT:      -8.7      0.000      0.000
REMARK  Name = 
REMARK  8 active torsions:
REMARK  status: ('A' for Active; 'I' for Inactive)
REMARK    1  A    between atoms: C_2  and  C_3
REMARK    2  A    between atoms: C_3  and  C_4
REMARK    3  A    between atoms: C_3  and  N_13
REMARK    4  A    between atoms: C_8  and  N_9
REMARK    5  A    between atoms: C_17  and  C_19
REMARK    6  A    between atoms: C_19  and  C_20
REMARK    7  A    between atoms: C_20  and  C_21
REMARK    8  A    between atoms: C_20  and  C_27
REMARK                            x       y       z     vdW  Elec       q    Type
REMARK                         _______ _______ _______ _____ _____    ______ ____
ROOT
ATOM      1  N   UNL     1       2.724   4.026  18.919  0.00  0.00    +0.000 NA
ATOM      2  C   UNL     1       1.773   4.469  19.984  0.00  0.00    +0.000 C 
ATOM      3  C   UNL     1       1.920   5.951  20.363  0.00  0.00    +0.000 C 
ATOM      4  N   UNL     1       1.744   6.869  19.238  0.00  0.00    +0.000 N 
ATOM      5  C   UNL     1       1.760   8.202  19.631  0.00  0.00    +0.000 C 
ATOM      6  O   UNL     1       2.080   8.532  20.775  0.00  0.00    +0.000 OA
ATOM      7  C   UNL     1       2.337   6.443  17.959  0.00  0.00    +0.000 C 
ATOM      8  C   UNL     1       2.450   4.900  17.749  0.00  0.00    +0.000 C 
ENDROOT
BRANCH   1   9
ATOM      9  C   UNL     1       4.105   4.049  19.473  0.00  0.00    +0.000 C 
BRANCH   9  10
ATOM     10  C   UNL     1       5.273   4.639  18.623  0.00  0.00    +0.000 A 
ATOM     11  C   UNL     1       6.260   5.382  19.325  0.00  0.00    +0.000 A 
ATOM     12  C   UNL     1       7.335   6.005  18.686  0.00  0.00    +0.000 A 
ATOM     13  C   UNL     1       7.511   5.848  17.322  0.00  0.00    +0.000 A 
ATOM     14  C   UNL     1       6.644   5.002  16.625  0.00  0.00    +0.000 A 
ATOM     15  C   UNL     1       5.512   4.408  17.256  0.00  0.00    +0.000 A 
BRANCH  14  16
ATOM     16  N   UNL     1       6.984   4.684  15.222  0.00  0.00    +0.000 N 
ATOM     17  O   UNL     1       6.410   3.719  14.700  0.00  0.00    +0.000 OA
ATOM     18  O   UNL     1       7.801   5.425  14.656  0.00  0.00    +0.000 OA
ENDBRANCH  14  16
ENDBRANCH   9  10
BRANCH   9  20
ATOM     19  N   UNL     1       4.998   1.644  20.546  0.00  0.00    +0.000 NA
ATOM     20  C   UNL     1       4.593   2.735  20.059  0.00  0.00    +0.000 C 
ENDBRANCH   9  20
ENDBRANCH   1   9
BRANCH   5  21
ATOM     21  C   UNL     1       1.346   9.280  18.650  0.00  0.00    +0.000 C 
BRANCH  21  22
ATOM     22  C   UNL     1       0.532  10.421  19.296  0.00  0.00    +0.000 C 
BRANCH  22  23
ATOM     23  C   UNL     1       1.301  11.740  19.366  0.00  0.00    +0.000 A 
ATOM     24  C   UNL     1       2.011  12.263  18.276  0.00  0.00    +0.000 A 
ATOM     25  C   UNL     1       2.834  13.386  18.432  0.00  0.00    +0.000 A 
ATOM     26  C   UNL     1       2.952  14.007  19.674  0.00  0.00    +0.000 A 
ATOM     27  C   UNL     1       2.231  13.522  20.760  0.00  0.00    +0.000 A 
ATOM     28  C   UNL     1       1.413  12.402  20.603  0.00  0.00    +0.000 A 
ENDBRANCH  22  23
BRANCH  22  29
ATOM     29  C   UNL     1      -0.873  10.505  18.686  0.00  0.00    +0.000 A 
ATOM     30  C   UNL     1      -1.162   9.777  17.521  0.00  0.00    +0.000 A 
ATOM     31  C   UNL     1      -2.330  10.025  16.794  0.00  0.00    +0.000 A 
ATOM     32  C   UNL     1      -3.238  10.987  17.231  0.00  0.00    +0.000 A 
ATOM     33  C   UNL     1      -3.014  11.650  18.432  0.00  0.00    +0.000 A 
ATOM     34  C   UNL     1      -1.853  11.394  19.165  0.00  0.00    +0.000 A 
ENDBRANCH  22  29
ENDBRANCH  21  22
ENDBRANCH   5  21
TORSDOF 8
ENDMDL
MODEL 2
REMARK VINA RESULT:      -8.5      3.685      9.960
REMARK  Name = 
REMARK  8 active torsions:
REMARK  status: ('A' for Active; 'I' for Inactive)
REMARK    1  A    between atoms: C_2  and  C_3
REMARK    2  A    between atoms: C_3  and  C_4
REMARK    3  A    between atoms: C_3  and  N_13
REMARK    4  A    between atoms: C_8  and  N_9
REMARK    5  A    between atoms: C_17  and  C_19
REMARK    6  A    between atoms: C_19  and  C_20
REMARK    7  A    between atoms: C_20  and  C_21
REMARK    8  A    between atoms: C_20  and  C_27
REMARK                            x       y       z     vdW  Elec       q    Type
REMARK                         _______ _______ _______ _____ _____    ______ ____
ROOT
ATOM      1  N   UNL     1      -0.279  12.049  19.595  0.00  0.00    +0.000 NA
ATOM      2  C   UNL     1       0.603  11.654  20.735  0.00  0.00    +0.000 C 
ATOM      3  C   UNL     1       0.799  10.135  20.863  0.00  0.00    +0.000 C 
ATOM      4  N   UNL     1       1.358   9.508  19.666  0.00  0.00    +0.000 N 
ATOM      5  C   UNL     1       1.639   8.159  19.852  0.00  0.00    +0.000 C 
ATOM      6  O   UNL     1       1.266   7.558  20.862  0.00  0.00    +0.000 OA
ATOM      7  C   UNL     1       0.851  10.010  18.378  0.00  0.00    +0.000 C 
ATOM      8  C   UNL     1       0.368  11.496  18.377  0.00  0.00    +0.000 C 
ENDROOT
BRANCH   1   9
ATOM      9  C   UNL     1      -1.667  11.600  19.887  0.00  0.00    +0.000 C 
BRANCH   9  10
ATOM     10  C   UNL     1      -2.693  11.438  18.723  0.00  0.00    +0.000 A 
ATOM     11  C   UNL     1      -2.333  10.550  17.675  0.00  0.00    +0.000 A 
ATOM     12  C   UNL     1      -3.134  10.345  16.548  0.00  0.00    +0.000 A 
ATOM     13  C   UNL     1      -4.368  10.964  16.458  0.00  0.00    +0.000 A 
ATOM     14  C   UNL     1      -4.819  11.728  17.539  0.00  0.00    +0.000 A 
ATOM     15  C   UNL     1      -3.986  11.990  18.666  0.00  0.00    +0.000 A 
BRANCH  14  16
ATOM     16  N   UNL     1      -6.220  12.196  17.505  0.00  0.00    +0.000 N 
ATOM     17  O   UNL     1      -7.058  11.532  18.130  0.00  0.00    +0.000 OA
ATOM     18  O   UNL     1      -6.454  13.237  16.875  0.00  0.00    +0.000 OA
ENDBRANCH  14  16
ENDBRANCH   9  10
BRANCH   9  20
ATOM     19  N   UNL     1      -2.954  12.969  21.937  0.00  0.00    +0.000 NA
ATOM     20  C   UNL     1      -2.370  12.348  21.007  0.00  0.00    +0.000 C 
ENDBRANCH   9  20
ENDBRANCH   1   9
BRANCH   5  21
ATOM     21  C   UNL     1       2.448   7.409  18.814  0.00  0.00    +0.000 C 
BRANCH  21  22
ATOM     22  C   UNL     1       3.188   6.178  19.380  0.00  0.00    +0.000 C 
BRANCH  22  23
ATOM     23  C   UNL     1       2.297   4.941  19.489  0.00  0.00    +0.000 A 
ATOM     24  C   UNL     1       2.050   4.290  20.705  0.00  0.00    +0.000 A 
ATOM     25  C   UNL     1       1.364   3.068  20.734  0.00  0.00    +0.000 A 
ATOM     26  C   UNL     1       0.911   2.485  19.553  0.00  0.00    +0.000 A 
ATOM     27  C   UNL     1       1.120   3.131  18.340  0.00  0.00    +0.000 A 
ATOM     28  C   UNL     1       1.804   4.347  18.311  0.00  0.00    +0.000 A 
ENDBRANCH  22  23
BRANCH  22  29
ATOM     29  C   UNL     1       4.528   5.969  18.665  0.00  0.00    +0.000 A 
ATOM     30  C   UNL     1       5.565   5.296  19.330  0.00  0.00    +0.000 A 
ATOM     31  C   UNL     1       6.869   5.313  18.825  0.00  0.00    +0.000 A 
ATOM     32  C   UNL     1       7.152   5.983  17.636  0.00  0.00    +0.000 A 
ATOM     33  C   UNL     1       6.121   6.574  16.916  0.00  0.00    +0.000 A 
ATOM     34  C   UNL     1       4.816   6.546  17.414  0.00  0.00    +0.000 A 
ENDBRANCH  22  29
ENDBRANCH  21  22
ENDBRANCH   5  21
TORSDOF 8
ENDMDL
MODEL 3
REMARK VINA RESULT:      -8.4      3.606      9.847
REMARK  Name = 
REMARK  8 active torsions:
REMARK  status: ('A' for Active; 'I' for Inactive)
REMARK    1  A    between atoms: C_2  and  C_3
REMARK    2  A    between atoms: C_3  and  C_4
REMARK    3  A    between atoms: C_3  and  N_13
REMARK    4  A    between atoms: C_8  and  N_9
REMARK    5  A    between atoms: C_17  and  C_19
REMARK    6  A    between atoms: C_19  and  C_20
REMARK    7  A    between atoms: C_20  and  C_21
REMARK    8  A    between atoms: C_20  and  C_27
REMARK                            x       y       z     vdW  Elec       q    Type
REMARK                         _______ _______ _______ _____ _____    ______ ____
ROOT
ATOM      1  N   UNL     1      -0.114  11.905  19.544  0.00  0.00    +0.000 NA
ATOM      2  C   UNL     1       0.786  11.494  20.664  0.00  0.00    +0.000 C 
ATOM      3  C   UNL     1       0.969   9.973  20.779  0.00  0.00    +0.000 C 
ATOM      4  N   UNL     1       1.499   9.348  19.568  0.00  0.00    +0.000 N 
ATOM      5  C   UNL     1       1.770   7.995  19.740  0.00  0.00    +0.000 C 
ATOM      6  O   UNL     1       1.410   7.391  20.753  0.00  0.00    +0.000 OA
ATOM      7  C   UNL     1       0.973   9.864  18.293  0.00  0.00    +0.000 C 
ATOM      8  C   UNL     1       0.504  11.354  18.310  0.00  0.00    +0.000 C 
ENDROOT
BRANCH   1   9
ATOM      9  C   UNL     1      -1.500  11.468  19.859  0.00  0.00    +0.000 C 
BRANCH   9  10
ATOM     10  C   UNL     1      -2.537  11.277  18.708  0.00  0.00    +0.000 A 
ATOM     11  C   UNL     1      -2.232  10.288  17.735  0.00  0.00    +0.000 A 
ATOM     12  C   UNL     1      -3.046  10.043  16.626  0.00  0.00    +0.000 A 
ATOM     13  C   UNL     1      -4.241  10.727  16.483  0.00  0.00    +0.000 A 
ATOM     14  C   UNL     1      -4.643  11.599  17.499  0.00  0.00    +0.000 A 
ATOM     15  C   UNL     1      -3.795  11.899  18.604  0.00  0.00    +0.000 A 
BRANCH  14  16
ATOM     16  N   UNL     1      -6.014  12.146  17.423  0.00  0.00    +0.000 N 
ATOM     17  O   UNL     1      -6.927  11.464  17.907  0.00  0.00    +0.000 OA
ATOM     18  O   UNL     1      -6.149  13.264  16.905  0.00  0.00    +0.000 OA
ENDBRANCH  14  16
ENDBRANCH   9  10
BRANCH   9  20
ATOM     19  N   UNL     1      -2.768  12.897  21.881  0.00  0.00    +0.000 NA
ATOM     20  C   UNL     1      -2.193  12.249  20.964  0.00  0.00    +0.000 C 
ENDBRANCH   9  20
ENDBRANCH   1   9
BRANCH   5  21
ATOM     21  C   UNL     1       2.552   7.244  18.682  0.00  0.00    +0.000 C 
BRANCH  21  22
ATOM     22  C   UNL     1       3.378   6.069  19.245  0.00  0.00    +0.000 C 
BRANCH  22  23
ATOM     23  C   UNL     1       2.572   4.777  19.375  0.00  0.00    +0.000 A 
ATOM     24  C   UNL     1       2.023   4.111  18.270  0.00  0.00    +0.000 A 
ATOM     25  C   UNL     1       1.155   3.025  18.450  0.00  0.00    +0.000 A 
ATOM     26  C   UNL     1       0.829   2.587  19.732  0.00  0.00    +0.000 A 
ATOM     27  C   UNL     1       1.388   3.215  20.839  0.00  0.00    +0.000 A 
ATOM     28  C   UNL     1       2.251   4.297  20.659  0.00  0.00    +0.000 A 
ENDBRANCH  22  23
BRANCH  22  29
ATOM     29  C   UNL     1       4.719   5.941  18.511  0.00  0.00    +0.000 A 
ATOM     30  C   UNL     1       4.837   6.438  17.203  0.00  0.00    +0.000 A 
ATOM     31  C   UNL     1       5.943   6.114  16.412  0.00  0.00    +0.000 A 
ATOM     32  C   UNL     1       6.959   5.307  16.922  0.00  0.00    +0.000 A 
ATOM     33  C   UNL     1       6.903   4.884  18.244  0.00  0.00    +0.000 A 
ATOM     34  C   UNL     1       5.804   5.218  19.039  0.00  0.00    +0.000 A 
ENDBRANCH  22  29
ENDBRANCH  21  22
ENDBRANCH   5  21
TORSDOF 8
ENDMDL
MODEL 4
REMARK VINA RESULT:      -8.4      1.268      2.051
REMARK  Name = 
REMARK  8 active torsions:
REMARK  status: ('A' for Active; 'I' for Inactive)
REMARK    1  A    between atoms: C_2  and  C_3
REMARK    2  A    between atoms: C_3  and  C_4
REMARK    3  A    between atoms: C_3  and  N_13
REMARK    4  A    between atoms: C_8  and  N_9
REMARK    5  A    between atoms: C_17  and  C_19
REMARK    6  A    between atoms: C_19  and  C_20
REMARK    7  A    between atoms: C_20  and  C_21
REMARK    8  A    between atoms: C_20  and  C_27
REMARK                            x       y       z     vdW  Elec       q    Type
REMARK                         _______ _______ _______ _____ _____    ______ ____
ROOT
ATOM      1  N   UNL     1       2.557   4.573  18.839  0.00  0.00    +0.000 NA
ATOM      2  C   UNL     1       1.605   4.758  19.976  0.00  0.00    +0.000 C 
ATOM      3  C   UNL     1       1.717   6.132  20.656  0.00  0.00    +0.000 C 
ATOM      4  N   UNL     1       1.507   7.259  19.748  0.00  0.00    +0.000 N 
ATOM      5  C   UNL     1       1.493   8.481  20.410  0.00  0.00    +0.000 C 
ATOM      6  O   UNL     1       1.815   8.574  21.597  0.00  0.00    +0.000 OA
ATOM      7  C   UNL     1       2.099   7.126  18.406  0.00  0.00    +0.000 C 
ATOM      8  C   UNL     1       2.250   5.664  17.878  0.00  0.00    +0.000 C 
ENDROOT
BRANCH   1   9
ATOM      9  C   UNL     1       3.942   4.518  19.380  0.00  0.00    +0.000 C 
BRANCH   9  10
ATOM     10  C   UNL     1       5.136   5.025  18.513  0.00  0.00    +0.000 A 
ATOM     11  C   UNL     1       6.244   5.571  19.213  0.00  0.00    +0.000 A 
ATOM     12  C   UNL     1       7.361   6.105  18.563  0.00  0.00    +0.000 A 
ATOM     13  C   UNL     1       7.449   6.047  17.183  0.00  0.00    +0.000 A 
ATOM     14  C   UNL     1       6.445   5.382  16.473  0.00  0.00    +0.000 A 
ATOM     15  C   UNL     1       5.276   4.886  17.120  0.00  0.00    +0.000 A 
BRANCH  14  16
ATOM     16  N   UNL     1       6.673   5.148  15.031  0.00  0.00    +0.000 N 
ATOM     17  O   UNL     1       7.809   5.367  14.591  0.00  0.00    +0.000 OA
ATOM     18  O   UNL     1       5.716   4.720  14.369  0.00  0.00    +0.000 OA
ENDBRANCH  14  16
ENDBRANCH   9  10
BRANCH   9  20
ATOM     19  N   UNL     1       4.696   2.075  20.474  0.00  0.00    +0.000 NA
ATOM     20  C   UNL     1       4.354   3.183  19.977  0.00  0.00    +0.000 C 
ENDBRANCH   9  20
ENDBRANCH   1   9
BRANCH   5  21
ATOM     21  C   UNL     1       1.042   9.728  19.678  0.00  0.00    +0.000 C 
BRANCH  21  22
ATOM     22  C   UNL     1      -0.380  10.189  20.063  0.00  0.00    +0.000 C 
BRANCH  22  23
ATOM     23  C   UNL     1      -0.386  11.312  21.100  0.00  0.00    +0.000 A 
ATOM     24  C   UNL     1      -1.196  11.284  22.244  0.00  0.00    +0.000 A 
ATOM     25  C   UNL     1      -1.291  12.405  23.079  0.00  0.00    +0.000 A 
ATOM     26  C   UNL     1      -0.574  13.564  22.789  0.00  0.00    +0.000 A 
ATOM     27  C   UNL     1       0.259  13.600  21.677  0.00  0.00    +0.000 A 
ATOM     28  C   UNL     1       0.352  12.483  20.844  0.00  0.00    +0.000 A 
ENDBRANCH  22  23
BRANCH  22  29
ATOM     29  C   UNL     1      -1.233  10.438  18.813  0.00  0.00    +0.000 A 
ATOM     30  C   UNL     1      -2.317  11.327  18.885  0.00  0.00    +0.000 A 
ATOM     31  C   UNL     1      -3.265  11.383  17.860  0.00  0.00    +0.000 A 
ATOM     32  C   UNL     1      -3.134  10.569  16.736  0.00  0.00    +0.000 A 
ATOM     33  C   UNL     1      -2.017   9.751  16.606  0.00  0.00    +0.000 A 
ATOM     34  C   UNL     1      -1.063   9.704  17.624  0.00  0.00    +0.000 A 
ENDBRANCH  22  29
ENDBRANCH  21  22
ENDBRANCH   5  21
TORSDOF 8
ENDMDL
MODEL 5
REMARK VINA RESULT:      -8.4      3.491      9.466
REMARK  Name = 
REMARK  8 active torsions:
REMARK  status: ('A' for Active; 'I' for Inactive)
REMARK    1  A    between atoms: C_2  and  C_3
REMARK    2  A    between atoms: C_3  and  C_4
REMARK    3  A    between atoms: C_3  and  N_13
REMARK    4  A    between atoms: C_8  and  N_9
REMARK    5  A    between atoms: C_17  and  C_19
REMARK    6  A    between atoms: C_19  and  C_20
REMARK    7  A    between atoms: C_20  and  C_21
REMARK    8  A    between atoms: C_20  and  C_27
REMARK                            x       y       z     vdW  Elec       q    Type
REMARK                         _______ _______ _______ _____ _____    ______ ____
ROOT
ATOM      1  N   UNL     1      -0.176  11.900  19.530  0.00  0.00    +0.000 NA
ATOM      2  C   UNL     1       0.741  11.514  20.645  0.00  0.00    +0.000 C 
ATOM      3  C   UNL     1       0.925   9.995  20.793  0.00  0.00    +0.000 C 
ATOM      4  N   UNL     1       1.433   9.341  19.588  0.00  0.00    +0.000 N 
ATOM      5  C   UNL     1       1.705   7.992  19.788  0.00  0.00    +0.000 C 
ATOM      6  O   UNL     1       1.361   7.413  20.820  0.00  0.00    +0.000 OA
ATOM      7  C   UNL     1       0.887   9.827  18.310  0.00  0.00    +0.000 C 
ATOM      8  C   UNL     1       0.421  11.318  18.300  0.00  0.00    +0.000 C 
ENDROOT
BRANCH   1   9
ATOM      9  C   UNL     1      -1.558  11.473  19.878  0.00  0.00    +0.000 C 
BRANCH   9  10
ATOM     10  C   UNL     1      -2.650  11.392  18.767  0.00  0.00    +0.000 A 
ATOM     11  C   UNL     1      -3.871  12.071  19.024  0.00  0.00    +0.000 A 
ATOM     12  C   UNL     1      -4.953  12.044  18.139  0.00  0.00    +0.000 A 
ATOM     13  C   UNL     1      -4.831  11.397  16.922  0.00  0.00    +0.000 A 
ATOM     14  C   UNL     1      -3.595  10.846  16.574  0.00  0.00    +0.000 A 
ATOM     15  C   UNL     1      -2.504  10.818  17.491  0.00  0.00    +0.000 A 
BRANCH  14  16
ATOM     16  N   UNL     1      -3.434  10.355  15.188  0.00  0.00    +0.000 N 
ATOM     17  O   UNL     1      -2.285  10.313  14.729  0.00  0.00    +0.000 OA
ATOM     18  O   UNL     1      -4.459   9.994  14.593  0.00  0.00    +0.000 OA
ENDBRANCH  14  16
ENDBRANCH   9  10
BRANCH   9  20
ATOM     19  N   UNL     1      -2.692  12.777  22.057  0.00  0.00    +0.000 NA
ATOM     20  C   UNL     1      -2.178  12.185  21.069  0.00  0.00    +0.000 C 
ENDBRANCH   9  20
ENDBRANCH   1   9
BRANCH   5  21
ATOM     21  C   UNL     1       2.468   7.215  18.736  0.00  0.00    +0.000 C 
BRANCH  21  22
ATOM     22  C   UNL     1       3.314   6.060  19.314  0.00  0.00    +0.000 C 
BRANCH  22  23
ATOM     23  C   UNL     1       2.546   4.742  19.404  0.00  0.00    +0.000 A 
ATOM     24  C   UNL     1       1.873   4.181  18.310  0.00  0.00    +0.000 A 
ATOM     25  C   UNL     1       1.048   3.060  18.478  0.00  0.00    +0.000 A 
ATOM     26  C   UNL     1       0.890   2.482  19.735  0.00  0.00    +0.000 A 
ATOM     27  C   UNL     1       1.575   3.005  20.826  0.00  0.00    +0.000 A 
ATOM     28  C   UNL     1       2.395   4.122  20.659  0.00  0.00    +0.000 A 
ENDBRANCH  22  23
BRANCH  22  29
ATOM     29  C   UNL     1       4.682   5.985  18.625  0.00  0.00    +0.000 A 
ATOM     30  C   UNL     1       5.734   5.303  19.256  0.00  0.00    +0.000 A 
ATOM     31  C   UNL     1       7.048   5.430  18.796  0.00  0.00    +0.000 A 
ATOM     32  C   UNL     1       7.328   6.223  17.685  0.00  0.00    +0.000 A 
ATOM     33  C   UNL     1       6.288   6.830  16.991  0.00  0.00    +0.000 A 
ATOM     34  C   UNL     1       4.973   6.692  17.443  0.00  0.00    +0.000 A 
ENDBRANCH  22  29
ENDBRANCH  21  22
ENDBRANCH   5  21
TORSDOF 8
ENDMDL
MODEL 6
REMARK VINA RESULT:      -8.3      1.288      1.985
REMARK  Name = 
REMARK  8 active torsions:
REMARK  status: ('A' for Active; 'I' for Inactive)
REMARK    1  A    between atoms: C_2  and  C_3
REMARK    2  A    between atoms: C_3  and  C_4
REMARK    3  A    between atoms: C_3  and  N_13
REMARK    4  A    between atoms: C_8  and  N_9
REMARK    5  A    between atoms: C_17  and  C_19
REMARK    6  A    between atoms: C_19  and  C_20
REMARK    7  A    between atoms: C_20  and  C_21
REMARK    8  A    between atoms: C_20  and  C_27
REMARK                            x       y       z     vdW  Elec       q    Type
REMARK                         _______ _______ _______ _____ _____    ______ ____
ROOT
ATOM      1  N   UNL     1       2.590   3.937  18.980  0.00  0.00    +0.000 NA
ATOM      2  C   UNL     1       1.723   4.434  20.091  0.00  0.00    +0.000 C 
ATOM      3  C   UNL     1       1.906   5.930  20.393  0.00  0.00    +0.000 C 
ATOM      4  N   UNL     1       1.653   6.800  19.245  0.00  0.00    +0.000 N 
ATOM      5  C   UNL     1       1.706   8.149  19.576  0.00  0.00    +0.000 C 
ATOM      6  O   UNL     1       2.111   8.525  20.678  0.00  0.00    +0.000 OA
ATOM      7  C   UNL     1       2.148   6.314  17.946  0.00  0.00    +0.000 C 
ATOM      8  C   UNL     1       2.236   4.762  17.796  0.00  0.00    +0.000 C 
ENDROOT
BRANCH   1   9
ATOM      9  C   UNL     1       4.008   3.972  19.429  0.00  0.00    +0.000 C 
BRANCH   9  10
ATOM     10  C   UNL     1       5.115   4.505  18.467  0.00  0.00    +0.000 A 
ATOM     11  C   UNL     1       5.201   3.888  17.190  0.00  0.00    +0.000 A 
ATOM     12  C   UNL     1       6.174   4.232  16.248  0.00  0.00    +0.000 A 
ATOM     13  C   UNL     1       7.057   5.264  16.514  0.00  0.00    +0.000 A 
ATOM     14  C   UNL     1       6.905   5.991  17.698  0.00  0.00    +0.000 A 
ATOM     15  C   UNL     1       5.955   5.612  18.691  0.00  0.00    +0.000 A 
BRANCH  14  16
ATOM     16  N   UNL     1       7.718   7.216  17.855  0.00  0.00    +0.000 N 
ATOM     17  O   UNL     1       7.591   8.098  16.995  0.00  0.00    +0.000 OA
ATOM     18  O   UNL     1       8.451   7.285  18.852  0.00  0.00    +0.000 OA
ENDBRANCH  14  16
ENDBRANCH   9  10
BRANCH   9  20
ATOM     19  N   UNL     1       4.960   1.613  20.553  0.00  0.00    +0.000 NA
ATOM     20  C   UNL     1       4.528   2.683  20.043  0.00  0.00    +0.000 C 
ENDBRANCH   9  20
ENDBRANCH   1   9
BRANCH   5  21
ATOM     21  C   UNL     1       1.226   9.187  18.582  0.00  0.00    +0.000 C 
BRANCH  21  22
ATOM     22  C   UNL     1       0.480  10.369  19.236  0.00  0.00    +0.000 C 
BRANCH  22  23
ATOM     23  C   UNL     1       1.361  11.604  19.423  0.00  0.00    +0.000 A 
ATOM     24  C   UNL     1       1.398  12.334  20.619  0.00  0.00    +0.000 A 
ATOM     25  C   UNL     1       2.092  13.550  20.692  0.00  0.00    +0.000 A 
ATOM     26  C   UNL     1       2.761  14.048  19.576  0.00  0.00    +0.000 A 
ATOM     27  C   UNL     1       2.761  13.323  18.390  0.00  0.00    +0.000 A 
ATOM     28  C   UNL     1       2.069  12.112  18.318  0.00  0.00    +0.000 A 
ENDBRANCH  22  23
BRANCH  22  29
ATOM     29  C   UNL     1      -0.867  10.615  18.547  0.00  0.00    +0.000 A 
ATOM     30  C   UNL     1      -1.748  11.571  19.078  0.00  0.00    +0.000 A 
ATOM     31  C   UNL     1      -3.075  11.641  18.644  0.00  0.00    +0.000 A 
ATOM     32  C   UNL     1      -3.538  10.772  17.657  0.00  0.00    +0.000 A 
ATOM     33  C   UNL     1      -2.656   9.882  17.055  0.00  0.00    +0.000 A 
ATOM     34  C   UNL     1      -1.326   9.821  17.479  0.00  0.00    +0.000 A 
ENDBRANCH  22  29
ENDBRANCH  21  22
ENDBRANCH   5  21
TORSDOF 8
ENDMDL
MODEL 7
REMARK VINA RESULT:      -8.3      1.252      1.592
REMARK  Name = 
REMARK  8 active torsions:
REMARK  status: ('A' for Active; 'I' for Inactive)
REMARK    1  A    between atoms: C_2  and  C_3
REMARK    2  A    between atoms: C_3  and  C_4
REMARK    3  A    between atoms: C_3  and  N_13
REMARK    4  A    between atoms: C_8  and  N_9
REMARK    5  A    between atoms: C_17  and  C_19
REMARK    6  A    between atoms: C_19  and  C_20
REMARK    7  A    between atoms: C_20  and  C_21
REMARK    8  A    between atoms: C_20  and  C_27
REMARK                            x       y       z     vdW  Elec       q    Type
REMARK                         _______ _______ _______ _____ _____    ______ ____
ROOT
ATOM      1  N   UNL     1       2.570   3.946  18.994  0.00  0.00    +0.000 NA
ATOM      2  C   UNL     1       1.719   4.451  20.114  0.00  0.00    +0.000 C 
ATOM      3  C   UNL     1       1.921   5.944  20.416  0.00  0.00    +0.000 C 
ATOM      4  N   UNL     1       1.666   6.818  19.272  0.00  0.00    +0.000 N 
ATOM      5  C   UNL     1       1.737   8.166  19.604  0.00  0.00    +0.000 C 
ATOM      6  O   UNL     1       2.156   8.537  20.702  0.00  0.00    +0.000 OA
ATOM      7  C   UNL     1       2.143   6.329  17.967  0.00  0.00    +0.000 C 
ATOM      8  C   UNL     1       2.213   4.775  17.814  0.00  0.00    +0.000 C 
ENDROOT
BRANCH   1   9
ATOM      9  C   UNL     1       3.993   3.965  19.429  0.00  0.00    +0.000 C 
BRANCH   9  10
ATOM     10  C   UNL     1       5.097   4.483  18.455  0.00  0.00    +0.000 A 
ATOM     11  C   UNL     1       5.136   3.890  17.165  0.00  0.00    +0.000 A 
ATOM     12  C   UNL     1       6.100   4.223  16.209  0.00  0.00    +0.000 A 
ATOM     13  C   UNL     1       7.022   5.219  16.478  0.00  0.00    +0.000 A 
ATOM     14  C   UNL     1       6.919   5.926  17.680  0.00  0.00    +0.000 A 
ATOM     15  C   UNL     1       5.977   5.556  18.684  0.00  0.00    +0.000 A 
BRANCH  14  16
ATOM     16  N   UNL     1       7.775   7.120  17.844  0.00  0.00    +0.000 N 
ATOM     17  O   UNL     1       7.749   7.968  16.942  0.00  0.00    +0.000 OA
ATOM     18  O   UNL     1       8.437   7.201  18.888  0.00  0.00    +0.000 OA
ENDBRANCH  14  16
ENDBRANCH   9  10
BRANCH   9  20
ATOM     19  N   UNL     1       4.926   1.598  20.551  0.00  0.00    +0.000 NA
ATOM     20  C   UNL     1       4.503   2.672  20.042  0.00  0.00    +0.000 C 
ENDBRANCH   9  20
ENDBRANCH   1   9
BRANCH   5  21
ATOM     21  C   UNL     1       1.258   9.210  18.616  0.00  0.00    +0.000 C 
BRANCH  21  22
ATOM     22  C   UNL     1       0.457  10.356  19.269  0.00  0.00    +0.000 C 
BRANCH  22  23
ATOM     23  C   UNL     1       1.239  11.667  19.345  0.00  0.00    +0.000 A 
ATOM     24  C   UNL     1       1.981  12.171  18.268  0.00  0.00    +0.000 A 
ATOM     25  C   UNL     1       2.813  13.286  18.434  0.00  0.00    +0.000 A 
ATOM     26  C   UNL     1       2.909  13.917  19.672  0.00  0.00    +0.000 A 
ATOM     27  C   UNL     1       2.156  13.451  20.745  0.00  0.00    +0.000 A 
ATOM     28  C   UNL     1       1.329  12.339  20.579  0.00  0.00    +0.000 A 
ENDBRANCH  22  23
BRANCH  22  29
ATOM     29  C   UNL     1      -0.948  10.457  18.662  0.00  0.00    +0.000 A 
ATOM     30  C   UNL     1      -1.240   9.753  17.483  0.00  0.00    +0.000 A 
ATOM     31  C   UNL     1      -2.407  10.020  16.761  0.00  0.00    +0.000 A 
ATOM     32  C   UNL     1      -3.312  10.976  17.217  0.00  0.00    +0.000 A 
ATOM     33  C   UNL     1      -3.085  11.616  18.431  0.00  0.00    +0.000 A 
ATOM     34  C   UNL     1      -1.925  11.340  19.159  0.00  0.00    +0.000 A 
ENDBRANCH  22  29
ENDBRANCH  21  22
ENDBRANCH   5  21
TORSDOF 8
ENDMDL
MODEL 8
REMARK VINA RESULT:      -8.3      3.527      9.525
REMARK  Name = 
REMARK  8 active torsions:
REMARK  status: ('A' for Active; 'I' for Inactive)
REMARK    1  A    between atoms: C_2  and  C_3
REMARK    2  A    between atoms: C_3  and  C_4
REMARK    3  A    between atoms: C_3  and  N_13
REMARK    4  A    between atoms: C_8  and  N_9
REMARK    5  A    between atoms: C_17  and  C_19
REMARK    6  A    between atoms: C_19  and  C_20
REMARK    7  A    between atoms: C_20  and  C_21
REMARK    8  A    between atoms: C_20  and  C_27
REMARK                            x       y       z     vdW  Elec       q    Type
REMARK                         _______ _______ _______ _____ _____    ______ ____
ROOT
ATOM      1  N   UNL     1      -0.104  12.100  19.877  0.00  0.00    +0.000 NA
ATOM      2  C   UNL     1       0.828  11.639  20.950  0.00  0.00    +0.000 C 
ATOM      3  C   UNL     1       0.967  10.111  21.030  0.00  0.00    +0.000 C 
ATOM      4  N   UNL     1       1.425   9.493  19.787  0.00  0.00    +0.000 N 
ATOM      5  C   UNL     1       1.659   8.129  19.923  0.00  0.00    +0.000 C 
ATOM      6  O   UNL     1       1.324   7.518  20.939  0.00  0.00    +0.000 OA
ATOM      7  C   UNL     1       0.863  10.049  18.544  0.00  0.00    +0.000 C 
ATOM      8  C   UNL     1       0.443  11.553  18.608  0.00  0.00    +0.000 C 
ENDROOT
BRANCH   1   9
ATOM      9  C   UNL     1      -1.489  11.700  20.243  0.00  0.00    +0.000 C 
BRANCH   9  10
ATOM     10  C   UNL     1      -2.589  11.606  19.140  0.00  0.00    +0.000 A 
ATOM     11  C   UNL     1      -3.802  12.303  19.390  0.00  0.00    +0.000 A 
ATOM     12  C   UNL     1      -4.889  12.268  18.511  0.00  0.00    +0.000 A 
ATOM     13  C   UNL     1      -4.781  11.593  17.307  0.00  0.00    +0.000 A 
ATOM     14  C   UNL     1      -3.552  11.022  16.964  0.00  0.00    +0.000 A 
ATOM     15  C   UNL     1      -2.457  11.003  17.876  0.00  0.00    +0.000 A 
BRANCH  14  16
ATOM     16  N   UNL     1      -3.404  10.501  15.589  0.00  0.00    +0.000 N 
ATOM     17  O   UNL     1      -2.800   9.429  15.448  0.00  0.00    +0.000 OA
ATOM     18  O   UNL     1      -3.921  11.159  14.675  0.00  0.00    +0.000 OA
ENDBRANCH  14  16
ENDBRANCH   9  10
BRANCH   9  20
ATOM     19  N   UNL     1      -2.594  13.073  22.395  0.00  0.00    +0.000 NA
ATOM     20  C   UNL     1      -2.093  12.450  21.419  0.00  0.00    +0.000 C 
ENDBRANCH   9  20
ENDBRANCH   1   9
BRANCH   5  21
ATOM     21  C   UNL     1       2.372   7.375  18.820  0.00  0.00    +0.000 C 
BRANCH  21  22
ATOM     22  C   UNL     1       3.141   6.133  19.319  0.00  0.00    +0.000 C 
BRANCH  22  23
ATOM     23  C   UNL     1       2.290   4.864  19.327  0.00  0.00    +0.000 A 
ATOM     24  C   UNL     1       1.780   4.300  20.504  0.00  0.00    +0.000 A 
ATOM     25  C   UNL     1       1.147   3.050  20.482  0.00  0.00    +0.000 A 
ATOM     26  C   UNL     1       1.006   2.352  19.284  0.00  0.00    +0.000 A 
ATOM     27  C   UNL     1       1.477   2.909  18.101  0.00  0.00    +0.000 A 
ATOM     28  C   UNL     1       2.110   4.153  18.124  0.00  0.00    +0.000 A 
ENDBRANCH  22  23
BRANCH  22  29
ATOM     29  C   UNL     1       4.501   6.014  18.621  0.00  0.00    +0.000 A 
ATOM     30  C   UNL     1       4.679   6.598  17.356  0.00  0.00    +0.000 A 
ATOM     31  C   UNL     1       5.801   6.295  16.580  0.00  0.00    +0.000 A 
ATOM     32  C   UNL     1       6.774   5.422  17.062  0.00  0.00    +0.000 A 
ATOM     33  C   UNL     1       6.660   4.908  18.349  0.00  0.00    +0.000 A 
ATOM     34  C   UNL     1       5.546   5.221  19.130  0.00  0.00    +0.000 A 
ENDBRANCH  22  29
ENDBRANCH  21  22
ENDBRANCH   5  21
TORSDOF 8
ENDMDL
MODEL 9
REMARK VINA RESULT:      -8.2      3.648     10.047
REMARK  Name = 
REMARK  8 active torsions:
REMARK  status: ('A' for Active; 'I' for Inactive)
REMARK    1  A    between atoms: C_2  and  C_3
REMARK    2  A    between atoms: C_3  and  C_4
REMARK    3  A    between atoms: C_3  and  N_13
REMARK    4  A    between atoms: C_8  and  N_9
REMARK    5  A    between atoms: C_17  and  C_19
REMARK    6  A    between atoms: C_19  and  C_20
REMARK    7  A    between atoms: C_20  and  C_21
REMARK    8  A    between atoms: C_20  and  C_27
REMARK                            x       y       z     vdW  Elec       q    Type
REMARK                         _______ _______ _______ _____ _____    ______ ____
ROOT
ATOM      1  N   UNL     1      -0.346  12.271  19.806  0.00  0.00    +0.000 NA
ATOM      2  C   UNL     1       0.892  12.030  20.607  0.00  0.00    +0.000 C 
ATOM      3  C   UNL     1       1.184  10.542  20.857  0.00  0.00    +0.000 C 
ATOM      4  N   UNL     1       1.318   9.752  19.633  0.00  0.00    +0.000 N 
ATOM      5  C   UNL     1       1.701   8.440  19.885  0.00  0.00    +0.000 C 
ATOM      6  O   UNL     1       1.727   7.986  21.030  0.00  0.00    +0.000 OA
ATOM      7  C   UNL     1       0.376  10.077  18.549  0.00  0.00    +0.000 C 
ATOM      8  C   UNL     1      -0.139  11.552  18.522  0.00  0.00    +0.000 C 
ENDROOT
BRANCH   1   9
ATOM      9  C   UNL     1      -1.526  11.876  20.620  0.00  0.00    +0.000 C 
BRANCH   9  10
ATOM     10  C   UNL     1      -2.963  12.250  20.139  0.00  0.00    +0.000 A 
ATOM     11  C   UNL     1      -3.688  13.164  20.950  0.00  0.00    +0.000 A 
ATOM     12  C   UNL     1      -5.001  13.550  20.666  0.00  0.00    +0.000 A 
ATOM     13  C   UNL     1      -5.619  13.096  19.514  0.00  0.00    +0.000 A 
ATOM     14  C   UNL     1      -4.883  12.315  18.618  0.00  0.00    +0.000 A 
ATOM     15  C   UNL     1      -3.564  11.868  18.926  0.00  0.00    +0.000 A 
BRANCH  14  16
ATOM     16  N   UNL     1      -5.494  12.027  17.304  0.00  0.00    +0.000 N 
ATOM     17  O   UNL     1      -4.879  11.266  16.544  0.00  0.00    +0.000 OA
ATOM     18  O   UNL     1      -6.594  12.545  17.065  0.00  0.00    +0.000 OA
ENDBRANCH  14  16
ENDBRANCH   9  10
BRANCH   9  20
ATOM     19  N   UNL     1      -1.372  12.507  23.325  0.00  0.00    +0.000 NA
ATOM     20  C   UNL     1      -1.442  12.221  22.098  0.00  0.00    +0.000 C 
ENDBRANCH   9  20
ENDBRANCH   1   9
BRANCH   5  21
ATOM     21  C   UNL     1       2.131   7.549  18.738  0.00  0.00    +0.000 C 
BRANCH  21  22
ATOM     22  C   UNL     1       2.935   6.310  19.186  0.00  0.00    +0.000 C 
BRANCH  22  23
ATOM     23  C   UNL     1       2.099   5.031  19.214  0.00  0.00    +0.000 A 
ATOM     24  C   UNL     1       1.466   4.565  20.375  0.00  0.00    +0.000 A 
ATOM     25  C   UNL     1       0.849   3.307  20.395  0.00  0.00    +0.000 A 
ATOM     26  C   UNL     1       0.849   2.502  19.258  0.00  0.00    +0.000 A 
ATOM     27  C   UNL     1       1.444   2.961  18.088  0.00  0.00    +0.000 A 
ATOM     28  C   UNL     1       2.060   4.214  18.069  0.00  0.00    +0.000 A 
ENDBRANCH  22  23
BRANCH  22  29
ATOM     29  C   UNL     1       4.264   6.215  18.427  0.00  0.00    +0.000 A 
ATOM     30  C   UNL     1       4.375   6.802  17.157  0.00  0.00    +0.000 A 
ATOM     31  C   UNL     1       5.466   6.519  16.330  0.00  0.00    +0.000 A 
ATOM     32  C   UNL     1       6.475   5.664  16.768  0.00  0.00    +0.000 A 
ATOM     33  C   UNL     1       6.429   5.148  18.057  0.00  0.00    +0.000 A 
ATOM     34  C   UNL     1       5.345   5.441  18.889  0.00  0.00    +0.000 A 
ENDBRANCH  22  29
ENDBRANCH  21  22
ENDBRANCH   5  21
TORSDOF 8
ENDMDL
