MODEL 1
REMARK VINA RESULT:      -8.2      0.000      0.000
REMARK  Name = 
REMARK  8 active torsions:
REMARK  status: ('A' for Active; 'I' for Inactive)
REMARK    1  A    between atoms: C_1  and  C_2
REMARK    2  A    between atoms: C_2  and  C_3
REMARK    3  A    between atoms: C_3  and  C_4
REMARK    4  A    between atoms: N_6  and  C_7
REMARK    5  A    between atoms: C_14  and  S_15
REMARK    6  A    between atoms: N_16  and  C_17
REMARK    7  A    between atoms: P_22  and  O_24
REMARK    8  A    between atoms: C_27  and  O_28
REMARK                            x       y       z     vdW  Elec       q    Type
REMARK                         _______ _______ _______ _____ _____    ______ ____
ROOT
ATOM      1  C   UNL     1       1.619   7.760  20.037  0.00  0.00    +0.000 A 
ATOM      2  N   UNL     1       2.165   8.449  19.014  0.00  0.00    +0.000 NA
ATOM      3  C   UNL     1       3.062   7.836  18.230  0.00  0.00    +0.000 A 
ATOM      4  N   UNL     1       3.506   6.568  18.324  0.00  0.00    +0.000 NA
ATOM      5  C   UNL     1       2.982   5.942  19.393  0.00  0.00    +0.000 A 
ATOM      6  C   UNL     1       2.060   6.456  20.286  0.00  0.00    +0.000 A 
ATOM      7  N   UNL     1       1.698   5.515  21.223  0.00  0.00    +0.000 NA
ATOM      8  C   UNL     1       2.381   4.443  20.888  0.00  0.00    +0.000 A 
ATOM      9  N   UNL     1       3.212   4.659  19.816  0.00  0.00    +0.000 N 
ENDROOT
BRANCH   9  10
ATOM     10  C   UNL     1       4.142   3.717  19.218  0.00  0.00    +0.000 C 
ATOM     11  O   UNL     1       5.495   4.268  19.282  0.00  0.00    +0.000 OA
ATOM     12  C   UNL     1       6.020   4.221  17.959  0.00  0.00    +0.000 C 
ATOM     13  C   UNL     1       6.988   5.328  17.573  0.00  0.00    +0.000 C 
ATOM     14  O   UNL     1       7.440   5.126  16.241  0.00  0.00    +0.000 OA
ATOM     15  P   UNL     1       6.414   4.763  15.055  0.00  0.00    +0.000 P 
ATOM     16  O   UNL     1       7.057   4.129  13.869  0.00  0.00    +0.000 OA
ATOM     17  O   UNL     1       5.233   3.895  15.739  0.00  0.00    +0.000 OA
ATOM     18  C   UNL     1       4.835   4.298  17.025  0.00  0.00    +0.000 C 
ATOM     19  C   UNL     1       3.841   3.397  17.736  0.00  0.00    +0.000 C 
BRANCH  15  20
ATOM     20  O   UNL     1       5.724   6.175  14.740  0.00  0.00    +0.000 OA
ATOM     21  H   UNL     1       4.949   6.401  15.270  0.00  0.00    +0.000 HD
ENDBRANCH  15  20
BRANCH  19  22
ATOM     22  O   UNL     1       4.084   2.005  17.495  0.00  0.00    +0.000 OA
ATOM     23  H   UNL     1       4.121   1.843  16.534  0.00  0.00    +0.000 HD
ENDBRANCH  19  22
ENDBRANCH   9  10
BRANCH   1  26
ATOM     24  C   UNL     1       0.827   9.007  21.986  0.00  0.00    +0.000 C 
ATOM     25  O   UNL     1       1.913   9.325  22.450  0.00  0.00    +0.000 OA
ATOM     26  N   UNL     1       0.598   8.289  20.833  0.00  0.00    +0.000 N 
ATOM     27  H   UNL     1      -0.324   8.277  20.425  0.00  0.00    +0.000 HD
BRANCH  24  28
ATOM     28  C   UNL     1      -0.453   9.456  22.658  0.00  0.00    +0.000 C 
BRANCH  28  30
ATOM     29  C   UNL     1      -1.821  11.481  23.257  0.00  0.00    +0.000 C 
ATOM     30  C   UNL     1      -0.749  10.916  22.342  0.00  0.00    +0.000 C 
ENDBRANCH  28  30
ENDBRANCH  24  28
ENDBRANCH   1  26
BRANCH   8  31
ATOM     31  S   UNL     1       2.202   2.918  21.680  0.00  0.00    +0.000 S 
ATOM     32  H   UNL     1       2.044   3.401  22.922  0.00  0.00    +0.000 HD
ENDBRANCH   8  31
TORSDOF 7
ENDMDL
MODEL 2
REMARK VINA RESULT:      -7.5      0.861      1.007
REMARK  Name = 
REMARK  8 active torsions:
REMARK  status: ('A' for Active; 'I' for Inactive)
REMARK    1  A    between atoms: C_1  and  C_2
REMARK    2  A    between atoms: C_2  and  C_3
REMARK    3  A    between atoms: C_3  and  C_4
REMARK    4  A    between atoms: N_6  and  C_7
REMARK    5  A    between atoms: C_14  and  S_15
REMARK    6  A    between atoms: N_16  and  C_17
REMARK    7  A    between atoms: P_22  and  O_24
REMARK    8  A    between atoms: C_27  and  O_28
REMARK                            x       y       z     vdW  Elec       q    Type
REMARK                         _______ _______ _______ _____ _____    ______ ____
ROOT
ATOM      1  C   UNL     1       1.605   8.198  19.501  0.00  0.00    +0.000 A 
ATOM      2  N   UNL     1       2.202   8.795  18.449  0.00  0.00    +0.000 NA
ATOM      3  C   UNL     1       3.135   8.116  17.767  0.00  0.00    +0.000 A 
ATOM      4  N   UNL     1       3.571   6.863  17.995  0.00  0.00    +0.000 NA
ATOM      5  C   UNL     1       2.994   6.333  19.088  0.00  0.00    +0.000 A 
ATOM      6  C   UNL     1       2.031   6.922  19.885  0.00  0.00    +0.000 A 
ATOM      7  N   UNL     1       1.620   6.067  20.884  0.00  0.00    +0.000 NA
ATOM      8  C   UNL     1       2.316   4.971  20.679  0.00  0.00    +0.000 A 
ATOM      9  N   UNL     1       3.200   5.093  19.634  0.00  0.00    +0.000 N 
ENDROOT
BRANCH   9  10
ATOM     10  C   UNL     1       4.156   4.103  19.167  0.00  0.00    +0.000 C 
ATOM     11  O   UNL     1       5.496   4.687  19.174  0.00  0.00    +0.000 OA
ATOM     12  C   UNL     1       6.038   4.486  17.873  0.00  0.00    +0.000 C 
ATOM     13  C   UNL     1       6.988   5.557  17.361  0.00  0.00    +0.000 C 
ATOM     14  O   UNL     1       7.461   5.199  16.069  0.00  0.00    +0.000 OA
ATOM     15  P   UNL     1       6.457   4.669  14.928  0.00  0.00    +0.000 P 
ATOM     16  O   UNL     1       7.127   3.905  13.837  0.00  0.00    +0.000 OA
ATOM     17  O   UNL     1       5.286   3.868  15.704  0.00  0.00    +0.000 OA
ATOM     18  C   UNL     1       4.864   4.420  16.925  0.00  0.00    +0.000 C 
ATOM     19  C   UNL     1       3.879   3.594  17.734  0.00  0.00    +0.000 C 
BRANCH  15  20
ATOM     20  O   UNL     1       5.743   6.016  14.432  0.00  0.00    +0.000 OA
ATOM     21  H   UNL     1       4.778   6.020  14.452  0.00  0.00    +0.000 HD
ENDBRANCH  15  20
BRANCH  19  22
ATOM     22  O   UNL     1       4.153   2.189  17.671  0.00  0.00    +0.000 OA
ATOM     23  H   UNL     1       3.470   1.702  18.169  0.00  0.00    +0.000 HD
ENDBRANCH  19  22
ENDBRANCH   9  10
BRANCH   1  26
ATOM     24  C   UNL     1       0.459  10.147  20.434  0.00  0.00    +0.000 C 
ATOM     25  O   UNL     1       1.232  11.013  20.048  0.00  0.00    +0.000 OA
ATOM     26  N   UNL     1       0.548   8.793  20.197  0.00  0.00    +0.000 N 
ATOM     27  H   UNL     1      -0.252   8.202  20.364  0.00  0.00    +0.000 HD
BRANCH  24  28
ATOM     28  C   UNL     1      -0.782  10.523  21.215  0.00  0.00    +0.000 C 
BRANCH  28  30
ATOM     29  C   UNL     1      -0.087   9.493  23.403  0.00  0.00    +0.000 C 
ATOM     30  C   UNL     1      -0.446  10.778  22.679  0.00  0.00    +0.000 C 
ENDBRANCH  28  30
ENDBRANCH  24  28
ENDBRANCH   1  26
BRANCH   8  31
ATOM     31  S   UNL     1       2.096   3.522  21.592  0.00  0.00    +0.000 S 
ATOM     32  H   UNL     1       3.397   3.254  21.784  0.00  0.00    +0.000 HD
ENDBRANCH   8  31
TORSDOF 7
ENDMDL
MODEL 3
REMARK VINA RESULT:      -7.0      1.067      1.084
REMARK  Name = 
REMARK  8 active torsions:
REMARK  status: ('A' for Active; 'I' for Inactive)
REMARK    1  A    between atoms: C_1  and  C_2
REMARK    2  A    between atoms: C_2  and  C_3
REMARK    3  A    between atoms: C_3  and  C_4
REMARK    4  A    between atoms: N_6  and  C_7
REMARK    5  A    between atoms: C_14  and  S_15
REMARK    6  A    between atoms: N_16  and  C_17
REMARK    7  A    between atoms: P_22  and  O_24
REMARK    8  A    between atoms: C_27  and  O_28
REMARK                            x       y       z     vdW  Elec       q    Type
REMARK                         _______ _______ _______ _____ _____    ______ ____
ROOT
ATOM      1  C   UNL     1       1.192   8.206  20.278  0.00  0.00    +0.000 A 
ATOM      2  N   UNL     1       1.575   8.925  19.202  0.00  0.00    +0.000 NA
ATOM      3  C   UNL     1       2.297   8.322  18.248  0.00  0.00    +0.000 A 
ATOM      4  N   UNL     1       2.703   7.039  18.211  0.00  0.00    +0.000 NA
ATOM      5  C   UNL     1       2.352   6.380  19.329  0.00  0.00    +0.000 A 
ATOM      6  C   UNL     1       1.621   6.879  20.392  0.00  0.00    +0.000 A 
ATOM      7  N   UNL     1       1.394   5.907  21.340  0.00  0.00    +0.000 NA
ATOM      8  C   UNL     1       1.967   4.832  20.846  0.00  0.00    +0.000 A 
ATOM      9  N   UNL     1       2.604   5.073  19.653  0.00  0.00    +0.000 N 
ENDROOT
BRANCH   9  10
ATOM     10  C   UNL     1       3.378   4.132  18.861  0.00  0.00    +0.000 C 
ATOM     11  O   UNL     1       4.738   4.059  19.393  0.00  0.00    +0.000 OA
ATOM     12  C   UNL     1       5.619   4.296  18.300  0.00  0.00    +0.000 C 
ATOM     13  C   UNL     1       6.925   5.006  18.622  0.00  0.00    +0.000 C 
ATOM     14  O   UNL     1       7.700   5.142  17.438  0.00  0.00    +0.000 OA
ATOM     15  P   UNL     1       7.042   5.656  16.062  0.00  0.00    +0.000 P 
ATOM     16  O   UNL     1       7.826   5.299  14.845  0.00  0.00    +0.000 OA
ATOM     17  O   UNL     1       5.515   5.123  16.073  0.00  0.00    +0.000 OA
ATOM     18  C   UNL     1       4.859   5.153  17.315  0.00  0.00    +0.000 C 
ATOM     19  C   UNL     1       3.484   4.512  17.367  0.00  0.00    +0.000 C 
BRANCH  15  20
ATOM     20  O   UNL     1       6.904   7.234  16.303  0.00  0.00    +0.000 OA
ATOM     21  H   UNL     1       6.024   7.555  16.538  0.00  0.00    +0.000 HD
ENDBRANCH  15  20
BRANCH  19  22
ATOM     22  O   UNL     1       3.398   3.322  16.571  0.00  0.00    +0.000 OA
ATOM     23  H   UNL     1       4.098   2.700  16.840  0.00  0.00    +0.000 HD
ENDBRANCH  19  22
ENDBRANCH   9  10
BRANCH   1  26
ATOM     24  C   UNL     1       0.572   9.929  21.900  0.00  0.00    +0.000 C 
ATOM     25  O   UNL     1       1.478  10.719  21.679  0.00  0.00    +0.000 OA
ATOM     26  N   UNL     1       0.348   8.727  21.264  0.00  0.00    +0.000 N 
ATOM     27  H   UNL     1      -0.544   8.266  21.363  0.00  0.00    +0.000 HD
BRANCH  24  28
ATOM     28  C   UNL     1      -0.492  10.251  22.928  0.00  0.00    +0.000 C 
BRANCH  28  30
ATOM     29  C   UNL     1      -2.403  11.856  23.250  0.00  0.00    +0.000 C 
ATOM     30  C   UNL     1      -0.968  11.691  22.783  0.00  0.00    +0.000 C 
ENDBRANCH  28  30
ENDBRANCH  24  28
ENDBRANCH   1  26
BRANCH   8  31
ATOM     31  S   UNL     1       1.874   3.278  21.595  0.00  0.00    +0.000 S 
ATOM     32  H   UNL     1       0.557   3.304  21.853  0.00  0.00    +0.000 HD
ENDBRANCH   8  31
TORSDOF 7
ENDMDL
MODEL 4
REMARK VINA RESULT:      -6.8      5.168      9.161
REMARK  Name = 
REMARK  8 active torsions:
REMARK  status: ('A' for Active; 'I' for Inactive)
REMARK    1  A    between atoms: C_1  and  C_2
REMARK    2  A    between atoms: C_2  and  C_3
REMARK    3  A    between atoms: C_3  and  C_4
REMARK    4  A    between atoms: N_6  and  C_7
REMARK    5  A    between atoms: C_14  and  S_15
REMARK    6  A    between atoms: N_16  and  C_17
REMARK    7  A    between atoms: P_22  and  O_24
REMARK    8  A    between atoms: C_27  and  O_28
REMARK                            x       y       z     vdW  Elec       q    Type
REMARK                         _______ _______ _______ _____ _____    ______ ____
ROOT
ATOM      1  C   UNL     1       1.980   7.551  19.738  0.00  0.00    +0.000 A 
ATOM      2  N   UNL     1       2.434   7.642  18.470  0.00  0.00    +0.000 NA
ATOM      3  C   UNL     1       2.112   8.722  17.747  0.00  0.00    +0.000 A 
ATOM      4  N   UNL     1       1.371   9.779  18.131  0.00  0.00    +0.000 NA
ATOM      5  C   UNL     1       0.890   9.615  19.376  0.00  0.00    +0.000 A 
ATOM      6  C   UNL     1       1.133   8.551  20.226  0.00  0.00    +0.000 A 
ATOM      7  N   UNL     1       0.529   8.743  21.449  0.00  0.00    +0.000 NA
ATOM      8  C   UNL     1      -0.055   9.916  21.342  0.00  0.00    +0.000 A 
ATOM      9  N   UNL     1       0.090  10.467  20.092  0.00  0.00    +0.000 N 
ENDROOT
BRANCH   9  10
ATOM     10  C   UNL     1      -0.467  11.719  19.610  0.00  0.00    +0.000 C 
ATOM     11  O   UNL     1      -1.421  12.232  20.592  0.00  0.00    +0.000 OA
ATOM     12  C   UNL     1      -2.636  12.480  19.893  0.00  0.00    +0.000 C 
ATOM     13  C   UNL     1      -3.923  12.280  20.677  0.00  0.00    +0.000 C 
ATOM     14  O   UNL     1      -5.039  12.592  19.853  0.00  0.00    +0.000 OA
ATOM     15  P   UNL     1      -5.144  12.043  18.343  0.00  0.00    +0.000 P 
ATOM     16  O   UNL     1      -6.083  12.815  17.481  0.00  0.00    +0.000 OA
ATOM     17  O   UNL     1      -3.625  11.957  17.795  0.00  0.00    +0.000 OA
ATOM     18  C   UNL     1      -2.657  11.529  18.720  0.00  0.00    +0.000 C 
ATOM     19  C   UNL     1      -1.211  11.595  18.261  0.00  0.00    +0.000 C 
BRANCH  15  20
ATOM     20  O   UNL     1      -5.568  10.511  18.553  0.00  0.00    +0.000 OA
ATOM     21  H   UNL     1      -6.509  10.313  18.468  0.00  0.00    +0.000 HD
ENDBRANCH  15  20
BRANCH  19  22
ATOM     22  O   UNL     1      -0.936  12.754  17.462  0.00  0.00    +0.000 OA
ATOM     23  H   UNL     1      -1.630  13.422  17.610  0.00  0.00    +0.000 HD
ENDBRANCH  19  22
ENDBRANCH   9  10
BRANCH   1  26
ATOM     24  C   UNL     1       1.908   5.217  20.466  0.00  0.00    +0.000 C 
ATOM     25  O   UNL     1       1.174   4.778  19.591  0.00  0.00    +0.000 OA
ATOM     26  N   UNL     1       2.359   6.512  20.595  0.00  0.00    +0.000 N 
ATOM     27  H   UNL     1       3.130   6.715  21.211  0.00  0.00    +0.000 HD
BRANCH  24  28
ATOM     28  C   UNL     1       2.468   4.296  21.529  0.00  0.00    +0.000 C 
BRANCH  28  30
ATOM     29  C   UNL     1       3.799   2.577  20.262  0.00  0.00    +0.000 C 
ATOM     30  C   UNL     1       2.519   2.858  21.029  0.00  0.00    +0.000 C 
ENDBRANCH  28  30
ENDBRANCH  24  28
ENDBRANCH   1  26
BRANCH   8  31
ATOM     31  S   UNL     1      -0.865  10.695  22.653  0.00  0.00    +0.000 S 
ATOM     32  H   UNL     1       0.196  10.774  23.471  0.00  0.00    +0.000 HD
ENDBRANCH   8  31
TORSDOF 7
ENDMDL
MODEL 5
REMARK VINA RESULT:      -6.6      6.414     11.472
REMARK  Name = 
REMARK  8 active torsions:
REMARK  status: ('A' for Active; 'I' for Inactive)
REMARK    1  A    between atoms: C_1  and  C_2
REMARK    2  A    between atoms: C_2  and  C_3
REMARK    3  A    between atoms: C_3  and  C_4
REMARK    4  A    between atoms: N_6  and  C_7
REMARK    5  A    between atoms: C_14  and  S_15
REMARK    6  A    between atoms: N_16  and  C_17
REMARK    7  A    between atoms: P_22  and  O_24
REMARK    8  A    between atoms: C_27  and  O_28
REMARK                            x       y       z     vdW  Elec       q    Type
REMARK                         _______ _______ _______ _____ _____    ______ ____
ROOT
ATOM      1  C   UNL     1       0.156  10.819  20.480  0.00  0.00    +0.000 A 
ATOM      2  N   UNL     1       0.374  11.385  21.686  0.00  0.00    +0.000 NA
ATOM      3  C   UNL     1      -0.548  12.221  22.181  0.00  0.00    +0.000 A 
ATOM      4  N   UNL     1      -1.716  12.584  21.619  0.00  0.00    +0.000 NA
ATOM      5  C   UNL     1      -1.860  12.046  20.395  0.00  0.00    +0.000 A 
ATOM      6  C   UNL     1      -0.988  11.181  19.761  0.00  0.00    +0.000 A 
ATOM      7  N   UNL     1      -1.483  10.780  18.540  0.00  0.00    +0.000 NA
ATOM      8  C   UNL     1      -2.647  11.384  18.448  0.00  0.00    +0.000 A 
ATOM      9  N   UNL     1      -2.905  12.202  19.522  0.00  0.00    +0.000 N 
ENDROOT
BRANCH   9  10
ATOM     10  C   UNL     1      -4.064  13.054  19.723  0.00  0.00    +0.000 C 
ATOM     11  O   UNL     1      -3.760  14.047  20.752  0.00  0.00    +0.000 OA
ATOM     12  C   UNL     1      -4.797  13.961  21.724  0.00  0.00    +0.000 C 
ATOM     13  C   UNL     1      -4.405  14.258  23.162  0.00  0.00    +0.000 C 
ATOM     14  O   UNL     1      -5.549  14.158  24.001  0.00  0.00    +0.000 OA
ATOM     15  P   UNL     1      -6.567  12.916  23.883  0.00  0.00    +0.000 P 
ATOM     16  O   UNL     1      -7.916  13.180  24.458  0.00  0.00    +0.000 OA
ATOM     17  O   UNL     1      -6.560  12.483  22.324  0.00  0.00    +0.000 OA
ATOM     18  C   UNL     1      -5.318  12.544  21.670  0.00  0.00    +0.000 C 
ATOM     19  C   UNL     1      -5.331  12.291  20.173  0.00  0.00    +0.000 C 
BRANCH  15  20
ATOM     20  O   UNL     1      -5.769  11.735  24.616  0.00  0.00    +0.000 OA
ATOM     21  H   UNL     1      -4.910  11.966  24.990  0.00  0.00    +0.000 HD
ENDBRANCH  15  20
BRANCH  19  22
ATOM     22  O   UNL     1      -6.478  12.856  19.526  0.00  0.00    +0.000 OA
ATOM     23  H   UNL     1      -6.409  13.829  19.534  0.00  0.00    +0.000 HD
ENDBRANCH  19  22
ENDBRANCH   9  10
BRANCH   1  26
ATOM     24  C   UNL     1       1.172   8.594  20.476  0.00  0.00    +0.000 C 
ATOM     25  O   UNL     1       0.578   8.123  21.435  0.00  0.00    +0.000 OA
ATOM     26  N   UNL     1       1.013   9.854  19.942  0.00  0.00    +0.000 N 
ATOM     27  H   UNL     1       1.381  10.060  19.025  0.00  0.00    +0.000 HD
BRANCH  24  28
ATOM     28  C   UNL     1       2.165   7.753  19.702  0.00  0.00    +0.000 C 
BRANCH  28  30
ATOM     29  C   UNL     1       3.356   7.482  17.502  0.00  0.00    +0.000 C 
ATOM     30  C   UNL     1       2.448   8.367  18.336  0.00  0.00    +0.000 C 
ENDBRANCH  28  30
ENDBRANCH  24  28
ENDBRANCH   1  26
BRANCH   8  31
ATOM     31  S   UNL     1      -3.750  11.126  17.144  0.00  0.00    +0.000 S 
ATOM     32  H   UNL     1      -4.647  12.055  17.507  0.00  0.00    +0.000 HD
ENDBRANCH   8  31
TORSDOF 7
ENDMDL
MODEL 6
REMARK VINA RESULT:      -6.6      4.597      8.259
REMARK  Name = 
REMARK  8 active torsions:
REMARK  status: ('A' for Active; 'I' for Inactive)
REMARK    1  A    between atoms: C_1  and  C_2
REMARK    2  A    between atoms: C_2  and  C_3
REMARK    3  A    between atoms: C_3  and  C_4
REMARK    4  A    between atoms: N_6  and  C_7
REMARK    5  A    between atoms: C_14  and  S_15
REMARK    6  A    between atoms: N_16  and  C_17
REMARK    7  A    between atoms: P_22  and  O_24
REMARK    8  A    between atoms: C_27  and  O_28
REMARK                            x       y       z     vdW  Elec       q    Type
REMARK                         _______ _______ _______ _____ _____    ______ ____
ROOT
ATOM      1  C   UNL     1       2.234   7.088  19.832  0.00  0.00    +0.000 A 
ATOM      2  N   UNL     1       2.699   7.269  18.579  0.00  0.00    +0.000 NA
ATOM      3  C   UNL     1       2.416   8.416  17.946  0.00  0.00    +0.000 A 
ATOM      4  N   UNL     1       1.705   9.459  18.413  0.00  0.00    +0.000 NA
ATOM      5  C   UNL     1       1.211   9.208  19.638  0.00  0.00    +0.000 A 
ATOM      6  C   UNL     1       1.414   8.071  20.398  0.00  0.00    +0.000 A 
ATOM      7  N   UNL     1       0.809   8.180  21.629  0.00  0.00    +0.000 NA
ATOM      8  C   UNL     1       0.262   9.375  21.617  0.00  0.00    +0.000 A 
ATOM      9  N   UNL     1       0.432  10.023  20.418  0.00  0.00    +0.000 N 
ENDROOT
BRANCH   9  10
ATOM     10  C   UNL     1      -0.082  11.328  20.039  0.00  0.00    +0.000 C 
ATOM     11  O   UNL     1       0.457  11.698  18.732  0.00  0.00    +0.000 OA
ATOM     12  C   UNL     1       1.043  12.987  18.880  0.00  0.00    +0.000 C 
ATOM     13  C   UNL     1       2.259  13.283  18.015  0.00  0.00    +0.000 C 
ATOM     14  O   UNL     1       2.707  14.610  18.258  0.00  0.00    +0.000 OA
ATOM     15  P   UNL     1       2.862  15.180  19.755  0.00  0.00    +0.000 P 
ATOM     16  O   UNL     1       2.870  16.668  19.840  0.00  0.00    +0.000 OA
ATOM     17  O   UNL     1       1.711  14.452  20.629  0.00  0.00    +0.000 OA
ATOM     18  C   UNL     1       1.466  13.102  20.325  0.00  0.00    +0.000 C 
ATOM     19  C   UNL     1       0.286  12.456  21.029  0.00  0.00    +0.000 C 
BRANCH  15  20
ATOM     20  O   UNL     1       4.221  14.495  20.256  0.00  0.00    +0.000 OA
ATOM     21  H   UNL     1       4.848  15.071  20.711  0.00  0.00    +0.000 HD
ENDBRANCH  15  20
BRANCH  19  22
ATOM     22  O   UNL     1      -0.831  13.345  21.167  0.00  0.00    +0.000 OA
ATOM     23  H   UNL     1      -0.679  13.942  21.923  0.00  0.00    +0.000 HD
ENDBRANCH  19  22
ENDBRANCH   9  10
BRANCH   1  26
ATOM     24  C   UNL     1       1.786   4.845  20.700  0.00  0.00    +0.000 C 
ATOM     25  O   UNL     1       0.732   4.634  20.116  0.00  0.00    +0.000 OA
ATOM     26  N   UNL     1       2.574   5.971  20.602  0.00  0.00    +0.000 N 
ATOM     27  H   UNL     1       3.523   5.950  20.943  0.00  0.00    +0.000 HD
BRANCH  24  28
ATOM     28  C   UNL     1       2.386   3.790  21.603  0.00  0.00    +0.000 C 
BRANCH  28  30
ATOM     29  C   UNL     1       3.931   2.616  20.002  0.00  0.00    +0.000 C 
ATOM     30  C   UNL     1       2.663   2.507  20.829  0.00  0.00    +0.000 C 
ENDBRANCH  28  30
ENDBRANCH  24  28
ENDBRANCH   1  26
BRANCH   8  31
ATOM     31  S   UNL     1      -0.533  10.069  22.985  0.00  0.00    +0.000 S 
ATOM     32  H   UNL     1      -0.352   9.032  23.818  0.00  0.00    +0.000 HD
ENDBRANCH   8  31
TORSDOF 7
ENDMDL
MODEL 7
REMARK VINA RESULT:      -6.6      6.243     11.221
REMARK  Name = 
REMARK  8 active torsions:
REMARK  status: ('A' for Active; 'I' for Inactive)
REMARK    1  A    between atoms: C_1  and  C_2
REMARK    2  A    between atoms: C_2  and  C_3
REMARK    3  A    between atoms: C_3  and  C_4
REMARK    4  A    between atoms: N_6  and  C_7
REMARK    5  A    between atoms: C_14  and  S_15
REMARK    6  A    between atoms: N_16  and  C_17
REMARK    7  A    between atoms: P_22  and  O_24
REMARK    8  A    between atoms: C_27  and  O_28
REMARK                            x       y       z     vdW  Elec       q    Type
REMARK                         _______ _______ _______ _____ _____    ______ ____
ROOT
ATOM      1  C   UNL     1       0.335  10.364  19.899  0.00  0.00    +0.000 A 
ATOM      2  N   UNL     1       0.701  10.914  21.076  0.00  0.00    +0.000 NA
ATOM      3  C   UNL     1      -0.109  11.816  21.645  0.00  0.00    +0.000 A 
ATOM      4  N   UNL     1      -1.294  12.263  21.187  0.00  0.00    +0.000 NA
ATOM      5  C   UNL     1      -1.587  11.735  19.985  0.00  0.00    +0.000 A 
ATOM      6  C   UNL     1      -0.841  10.807  19.283  0.00  0.00    +0.000 A 
ATOM      7  N   UNL     1      -1.472  10.442  18.115  0.00  0.00    +0.000 NA
ATOM      8  C   UNL     1      -2.593  11.129  18.123  0.00  0.00    +0.000 A 
ATOM      9  N   UNL     1      -2.692  11.966  19.208  0.00  0.00    +0.000 N 
ENDROOT
BRANCH   9  10
ATOM     10  C   UNL     1      -3.763  12.901  19.506  0.00  0.00    +0.000 C 
ATOM     11  O   UNL     1      -3.291  13.880  20.483  0.00  0.00    +0.000 OA
ATOM     12  C   UNL     1      -4.231  13.880  21.552  0.00  0.00    +0.000 C 
ATOM     13  C   UNL     1      -3.680  14.163  22.940  0.00  0.00    +0.000 C 
ATOM     14  O   UNL     1      -4.741  14.155  23.887  0.00  0.00    +0.000 OA
ATOM     15  P   UNL     1      -5.850  12.987  23.890  0.00  0.00    +0.000 P 
ATOM     16  O   UNL     1      -7.115  13.354  24.589  0.00  0.00    +0.000 OA
ATOM     17  O   UNL     1      -6.026  12.539  22.346  0.00  0.00    +0.000 OA
ATOM     18  C   UNL     1      -4.853  12.503  21.574  0.00  0.00    +0.000 C 
ATOM     19  C   UNL     1      -5.030  12.236  20.090  0.00  0.00    +0.000 C 
BRANCH  15  20
ATOM     20  O   UNL     1      -5.070  11.760  24.564  0.00  0.00    +0.000 OA
ATOM     21  H   UNL     1      -4.945  10.978  24.012  0.00  0.00    +0.000 HD
ENDBRANCH  15  20
BRANCH  19  22
ATOM     22  O   UNL     1      -6.192  12.876  19.547  0.00  0.00    +0.000 OA
ATOM     23  H   UNL     1      -5.995  13.815  19.375  0.00  0.00    +0.000 HD
ENDBRANCH  19  22
ENDBRANCH   9  10
BRANCH   1  26
ATOM     24  C   UNL     1       1.894   9.531  18.209  0.00  0.00    +0.000 C 
ATOM     25  O   UNL     1       2.147  10.593  17.659  0.00  0.00    +0.000 OA
ATOM     26  N   UNL     1       1.067   9.337  19.294  0.00  0.00    +0.000 N 
ATOM     27  H   UNL     1       1.104   8.469  19.805  0.00  0.00    +0.000 HD
BRANCH  24  28
ATOM     28  C   UNL     1       2.560   8.252  17.749  0.00  0.00    +0.000 C 
BRANCH  28  30
ATOM     29  C   UNL     1       2.393   5.796  18.269  0.00  0.00    +0.000 C 
ATOM     30  C   UNL     1       2.521   7.194  18.845  0.00  0.00    +0.000 C 
ENDBRANCH  28  30
ENDBRANCH  24  28
ENDBRANCH   1  26
BRANCH   8  31
ATOM     31  S   UNL     1      -3.824  10.951  16.926  0.00  0.00    +0.000 S 
ATOM     32  H   UNL     1      -4.162  12.247  16.849  0.00  0.00    +0.000 HD
ENDBRANCH   8  31
TORSDOF 7
ENDMDL
MODEL 8
REMARK VINA RESULT:      -6.4      4.777      9.608
REMARK  Name = 
REMARK  8 active torsions:
REMARK  status: ('A' for Active; 'I' for Inactive)
REMARK    1  A    between atoms: C_1  and  C_2
REMARK    2  A    between atoms: C_2  and  C_3
REMARK    3  A    between atoms: C_3  and  C_4
REMARK    4  A    between atoms: N_6  and  C_7
REMARK    5  A    between atoms: C_14  and  S_15
REMARK    6  A    between atoms: N_16  and  C_17
REMARK    7  A    between atoms: P_22  and  O_24
REMARK    8  A    between atoms: C_27  and  O_28
REMARK                            x       y       z     vdW  Elec       q    Type
REMARK                         _______ _______ _______ _____ _____    ______ ____
ROOT
ATOM      1  C   UNL     1       2.140   7.742  19.355  0.00  0.00    +0.000 A 
ATOM      2  N   UNL     1       2.541   8.113  18.121  0.00  0.00    +0.000 NA
ATOM      3  C   UNL     1       2.191   9.324  17.667  0.00  0.00    +0.000 A 
ATOM      4  N   UNL     1       1.468  10.264  18.304  0.00  0.00    +0.000 NA
ATOM      5  C   UNL     1       1.039   9.827  19.501  0.00  0.00    +0.000 A 
ATOM      6  C   UNL     1       1.315   8.605  20.085  0.00  0.00    +0.000 A 
ATOM      7  N   UNL     1       0.763   8.519  21.343  0.00  0.00    +0.000 NA
ATOM      8  C   UNL     1       0.176   9.682  21.521  0.00  0.00    +0.000 A 
ATOM      9  N   UNL     1       0.270  10.495  20.418  0.00  0.00    +0.000 N 
ENDROOT
BRANCH   9  10
ATOM     10  C   UNL     1      -0.304  11.819  20.246  0.00  0.00    +0.000 C 
ATOM     11  O   UNL     1       0.036  12.645  21.403  0.00  0.00    +0.000 OA
ATOM     12  C   UNL     1      -1.187  13.179  21.900  0.00  0.00    +0.000 C 
ATOM     13  C   UNL     1      -1.270  13.404  23.401  0.00  0.00    +0.000 C 
ATOM     14  O   UNL     1      -2.535  13.963  23.732  0.00  0.00    +0.000 OA
ATOM     15  P   UNL     1      -3.899  13.366  23.122  0.00  0.00    +0.000 P 
ATOM     16  O   UNL     1      -5.050  14.312  23.168  0.00  0.00    +0.000 OA
ATOM     17  O   UNL     1      -3.523  12.817  21.647  0.00  0.00    +0.000 OA
ATOM     18  C   UNL     1      -2.269  12.196  21.520  0.00  0.00    +0.000 C 
ATOM     19  C   UNL     1      -1.844  11.820  20.112  0.00  0.00    +0.000 C 
BRANCH  15  20
ATOM     20  O   UNL     1      -4.120  12.034  23.986  0.00  0.00    +0.000 OA
ATOM     21  H   UNL     1      -3.619  11.257  23.710  0.00  0.00    +0.000 HD
ENDBRANCH  15  20
BRANCH  19  22
ATOM     22  O   UNL     1      -2.231  12.796  19.136  0.00  0.00    +0.000 OA
ATOM     23  H   UNL     1      -1.465  13.356  18.915  0.00  0.00    +0.000 HD
ENDBRANCH  19  22
ENDBRANCH   9  10
BRANCH   1  26
ATOM     24  C   UNL     1       2.454   5.317  19.327  0.00  0.00    +0.000 C 
ATOM     25  O   UNL     1       2.053   5.096  18.193  0.00  0.00    +0.000 OA
ATOM     26  N   UNL     1       2.552   6.544  19.946  0.00  0.00    +0.000 N 
ATOM     27  H   UNL     1       3.101   6.639  20.787  0.00  0.00    +0.000 HD
BRANCH  24  28
ATOM     28  C   UNL     1       2.965   4.185  20.192  0.00  0.00    +0.000 C 
BRANCH  28  30
ATOM     29  C   UNL     1       1.372   2.693  21.444  0.00  0.00    +0.000 C 
ATOM     30  C   UNL     1       2.105   4.023  21.439  0.00  0.00    +0.000 C 
ENDBRANCH  28  30
ENDBRANCH  24  28
ENDBRANCH   1  26
BRANCH   8  31
ATOM     31  S   UNL     1      -0.577  10.148  23.003  0.00  0.00    +0.000 S 
ATOM     32  H   UNL     1       0.391   9.706  23.820  0.00  0.00    +0.000 HD
ENDBRANCH   8  31
TORSDOF 7
ENDMDL
MODEL 9
REMARK VINA RESULT:      -6.4      4.796      9.075
REMARK  Name = 
REMARK  8 active torsions:
REMARK  status: ('A' for Active; 'I' for Inactive)
REMARK    1  A    between atoms: C_1  and  C_2
REMARK    2  A    between atoms: C_2  and  C_3
REMARK    3  A    between atoms: C_3  and  C_4
REMARK    4  A    between atoms: N_6  and  C_7
REMARK    5  A    between atoms: C_14  and  S_15
REMARK    6  A    between atoms: N_16  and  C_17
REMARK    7  A    between atoms: P_22  and  O_24
REMARK    8  A    between atoms: C_27  and  O_28
REMARK                            x       y       z     vdW  Elec       q    Type
REMARK                         _______ _______ _______ _____ _____    ______ ____
ROOT
ATOM      1  C   UNL     1       2.376   6.870  19.711  0.00  0.00    +0.000 A 
ATOM      2  N   UNL     1       2.899   6.900  18.467  0.00  0.00    +0.000 NA
ATOM      3  C   UNL     1       2.719   7.997  17.720  0.00  0.00    +0.000 A 
ATOM      4  N   UNL     1       2.067   9.125  18.057  0.00  0.00    +0.000 NA
ATOM      5  C   UNL     1       1.512   9.025  19.278  0.00  0.00    +0.000 A 
ATOM      6  C   UNL     1       1.607   7.954  20.147  0.00  0.00    +0.000 A 
ATOM      7  N   UNL     1       0.966   8.220  21.336  0.00  0.00    +0.000 NA
ATOM      8  C   UNL     1       0.504   9.442  21.190  0.00  0.00    +0.000 A 
ATOM      9  N   UNL     1       0.764   9.960  19.944  0.00  0.00    +0.000 N 
ENDROOT
BRANCH   9  10
ATOM     10  C   UNL     1       0.356  11.254  19.425  0.00  0.00    +0.000 C 
ATOM     11  O   UNL     1       0.490  12.260  20.477  0.00  0.00    +0.000 OA
ATOM     12  C   UNL     1      -0.766  12.925  20.571  0.00  0.00    +0.000 C 
ATOM     13  C   UNL     1      -1.171  13.419  21.950  0.00  0.00    +0.000 C 
ATOM     14  O   UNL     1      -2.427  14.081  21.872  0.00  0.00    +0.000 OA
ATOM     15  P   UNL     1      -3.660  13.441  21.059  0.00  0.00    +0.000 P 
ATOM     16  O   UNL     1      -4.709  14.428  20.672  0.00  0.00    +0.000 OA
ATOM     17  O   UNL     1      -3.004  12.621  19.829  0.00  0.00    +0.000 OA
ATOM     18  C   UNL     1      -1.810  11.936  20.110  0.00  0.00    +0.000 C 
ATOM     19  C   UNL     1      -1.107  11.295  18.927  0.00  0.00    +0.000 C 
BRANCH  15  20
ATOM     20  O   UNL     1      -4.183  12.298  22.053  0.00  0.00    +0.000 OA
ATOM     21  H   UNL     1      -4.872  12.556  22.678  0.00  0.00    +0.000 HD
ENDBRANCH  15  20
BRANCH  19  22
ATOM     22  O   UNL     1      -1.179  12.096  17.740  0.00  0.00    +0.000 OA
ATOM     23  H   UNL     1      -1.695  11.624  17.061  0.00  0.00    +0.000 HD
ENDBRANCH  19  22
ENDBRANCH   9  10
BRANCH   1  26
ATOM     24  C   UNL     1       1.804   4.696  20.676  0.00  0.00    +0.000 C 
ATOM     25  O   UNL     1       0.828   4.444  19.984  0.00  0.00    +0.000 OA
ATOM     26  N   UNL     1       2.610   5.811  20.595  0.00  0.00    +0.000 N 
ATOM     27  H   UNL     1       3.509   5.814  21.051  0.00  0.00    +0.000 HD
BRANCH  24  28
ATOM     28  C   UNL     1       2.280   3.708  21.719  0.00  0.00    +0.000 C 
BRANCH  28  30
ATOM     29  C   UNL     1       3.876   2.531  20.172  0.00  0.00    +0.000 C 
ATOM     30  C   UNL     1       2.666   2.382  21.076  0.00  0.00    +0.000 C 
ENDBRANCH  28  30
ENDBRANCH  24  28
ENDBRANCH   1  26
BRANCH   8  31
ATOM     31  S   UNL     1      -0.289  10.314  22.452  0.00  0.00    +0.000 S 
ATOM     32  H   UNL     1      -1.404   9.568  22.485  0.00  0.00    +0.000 HD
ENDBRANCH   8  31
TORSDOF 7
ENDMDL
