MODEL 1
REMARK VINA RESULT:      -6.9      0.000      0.000
REMARK  Name = 
REMARK  5 active torsions:
REMARK  status: ('A' for Active; 'I' for Inactive)
REMARK    1  A    between atoms: C_2  and  O_3
REMARK    2  A    between atoms: C_2  and  C_4
REMARK    3  A    between atoms: C_9  and  C_10
REMARK    4  A    between atoms: N_12  and  C_13
REMARK    5  A    between atoms: C_13  and  C_14
REMARK                            x       y       z     vdW  Elec       q    Type
REMARK                         _______ _______ _______ _____ _____    ______ ____
ROOT
ATOM      1  C   UNL     1      -3.719  11.444  17.568  0.00  0.00    +0.000 A 
ATOM      2  C   UNL     1      -5.128  11.471  17.612  0.00  0.00    +0.000 A 
ATOM      3  C   UNL     1      -5.809  11.910  18.739  0.00  0.00    +0.000 A 
ATOM      4  C   UNL     1      -5.098  12.328  19.862  0.00  0.00    +0.000 A 
ATOM      5  C   UNL     1      -3.681  12.324  19.829  0.00  0.00    +0.000 A 
ATOM      6  C   UNL     1      -2.962  11.894  18.682  0.00  0.00    +0.000 A 
ATOM      7  C   UNL     1      -3.008  12.816  21.068  0.00  0.00    +0.000 C 
ATOM      8  O   UNL     1      -1.882  13.295  21.052  0.00  0.00    +0.000 OA
ATOM      9  C   UNL     1      -3.775  12.659  22.354  0.00  0.00    +0.000 C 
ATOM     10  C   UNL     1      -5.089  13.387  22.179  0.00  0.00    +0.000 C 
ATOM     11  C   UNL     1      -5.905  12.713  21.085  0.00  0.00    +0.000 C 
ENDROOT
BRANCH   6  12
ATOM     12  C   UNL     1      -1.474  11.911  18.567  0.00  0.00    +0.000 C 
ATOM     13  O   UNL     1      -0.958  12.841  17.952  0.00  0.00    +0.000 OA
ATOM     14  N   UNL     1      -0.724  10.898  19.123  0.00  0.00    +0.000 N 
ATOM     15  H   UNL     1      -1.069  10.522  19.999  0.00  0.00    +0.000 HD
BRANCH  14  16
ATOM     16  C   UNL     1       0.725  10.974  19.090  0.00  0.00    +0.000 C 
BRANCH  16  17
ATOM     17  C   UNL     1       1.344   9.600  19.065  0.00  0.00    +0.000 A 
ATOM     18  C   UNL     1       1.296   8.788  20.207  0.00  0.00    +0.000 A 
ATOM     19  C   UNL     1       1.868   7.515  20.198  0.00  0.00    +0.000 A 
ATOM     20  C   UNL     1       2.499   7.040  19.052  0.00  0.00    +0.000 A 
ATOM     21  C   UNL     1       2.563   7.844  17.911  0.00  0.00    +0.000 A 
ATOM     22  C   UNL     1       1.992   9.118  17.917  0.00  0.00    +0.000 A 
ENDBRANCH  16  17
ENDBRANCH  14  16
ENDBRANCH   6  12
BRANCH   1  24
ATOM     23  O   UNL     1      -2.969   9.583  16.325  0.00  0.00    +0.000 OA
ATOM     24  C   UNL     1      -3.205  10.785  16.330  0.00  0.00    +0.000 C 
BRANCH  24  25
ATOM     25  O   UNL     1      -3.202  11.506  15.199  0.00  0.00    +0.000 OA
ATOM     26  H   UNL     1      -3.699  12.359  15.255  0.00  0.00    +0.000 HD
ENDBRANCH  24  25
ENDBRANCH   1  24
TORSDOF 5
ENDMDL
MODEL 2
REMARK VINA RESULT:      -6.8      5.048      9.563
REMARK  Name = 
REMARK  5 active torsions:
REMARK  status: ('A' for Active; 'I' for Inactive)
REMARK    1  A    between atoms: C_2  and  O_3
REMARK    2  A    between atoms: C_2  and  C_4
REMARK    3  A    between atoms: C_9  and  C_10
REMARK    4  A    between atoms: N_12  and  C_13
REMARK    5  A    between atoms: C_13  and  C_14
REMARK                            x       y       z     vdW  Elec       q    Type
REMARK                         _______ _______ _______ _____ _____    ______ ____
ROOT
ATOM      1  C   UNL     1       2.187   3.170  18.782  0.00  0.00    +0.000 A 
ATOM      2  C   UNL     1       2.568   2.203  17.830  0.00  0.00    +0.000 A 
ATOM      3  C   UNL     1       3.650   2.407  16.984  0.00  0.00    +0.000 A 
ATOM      4  C   UNL     1       4.379   3.591  17.061  0.00  0.00    +0.000 A 
ATOM      5  C   UNL     1       4.021   4.567  18.025  0.00  0.00    +0.000 A 
ATOM      6  C   UNL     1       2.928   4.375  18.911  0.00  0.00    +0.000 A 
ATOM      7  C   UNL     1       4.879   5.789  18.052  0.00  0.00    +0.000 C 
ATOM      8  O   UNL     1       5.004   6.477  19.056  0.00  0.00    +0.000 OA
ATOM      9  C   UNL     1       5.558   6.158  16.760  0.00  0.00    +0.000 C 
ATOM     10  C   UNL     1       6.398   4.971  16.344  0.00  0.00    +0.000 C 
ATOM     11  C   UNL     1       5.493   3.782  16.052  0.00  0.00    +0.000 C 
ENDROOT
BRANCH   6  12
ATOM     12  C   UNL     1       2.530   5.341  19.979  0.00  0.00    +0.000 C 
ATOM     13  O   UNL     1       2.603   4.965  21.146  0.00  0.00    +0.000 OA
ATOM     14  N   UNL     1       2.082   6.599  19.642  0.00  0.00    +0.000 N 
ATOM     15  H   UNL     1       2.528   7.027  18.839  0.00  0.00    +0.000 HD
BRANCH  14  16
ATOM     16  C   UNL     1       1.791   7.562  20.688  0.00  0.00    +0.000 C 
BRANCH  16  17
ATOM     17  C   UNL     1       1.084   8.772  20.135  0.00  0.00    +0.000 A 
ATOM     18  C   UNL     1       0.137   9.450  20.915  0.00  0.00    +0.000 A 
ATOM     19  C   UNL     1      -0.526  10.571  20.414  0.00  0.00    +0.000 A 
ATOM     20  C   UNL     1      -0.256  11.025  19.126  0.00  0.00    +0.000 A 
ATOM     21  C   UNL     1       0.678  10.353  18.334  0.00  0.00    +0.000 A 
ATOM     22  C   UNL     1       1.343   9.231  18.833  0.00  0.00    +0.000 A 
ENDBRANCH  16  17
ENDBRANCH  14  16
ENDBRANCH   6  12
BRANCH   1  24
ATOM     23  O   UNL     1      -0.029   2.360  18.820  0.00  0.00    +0.000 OA
ATOM     24  C   UNL     1       0.906   2.817  19.465  0.00  0.00    +0.000 C 
BRANCH  24  25
ATOM     25  O   UNL     1       0.894   2.833  20.806  0.00  0.00    +0.000 OA
ATOM     26  H   UNL     1       1.444   3.546  21.214  0.00  0.00    +0.000 HD
ENDBRANCH  24  25
ENDBRANCH   1  24
TORSDOF 5
ENDMDL
MODEL 3
REMARK VINA RESULT:      -6.8      6.633      9.678
REMARK  Name = 
REMARK  5 active torsions:
REMARK  status: ('A' for Active; 'I' for Inactive)
REMARK    1  A    between atoms: C_2  and  O_3
REMARK    2  A    between atoms: C_2  and  C_4
REMARK    3  A    between atoms: C_9  and  C_10
REMARK    4  A    between atoms: N_12  and  C_13
REMARK    5  A    between atoms: C_13  and  C_14
REMARK                            x       y       z     vdW  Elec       q    Type
REMARK                         _______ _______ _______ _____ _____    ______ ____
ROOT
ATOM      1  C   UNL     1       2.970   6.912  18.690  0.00  0.00    +0.000 A 
ATOM      2  C   UNL     1       1.834   6.846  19.523  0.00  0.00    +0.000 A 
ATOM      3  C   UNL     1       1.582   5.735  20.316  0.00  0.00    +0.000 A 
ATOM      4  C   UNL     1       2.457   4.652  20.295  0.00  0.00    +0.000 A 
ATOM      5  C   UNL     1       3.614   4.708  19.477  0.00  0.00    +0.000 A 
ATOM      6  C   UNL     1       3.901   5.840  18.667  0.00  0.00    +0.000 A 
ATOM      7  C   UNL     1       4.506   3.513  19.542  0.00  0.00    +0.000 C 
ATOM      8  O   UNL     1       5.701   3.576  19.287  0.00  0.00    +0.000 OA
ATOM      9  C   UNL     1       3.850   2.207  19.904  0.00  0.00    +0.000 C 
ATOM     10  C   UNL     1       3.182   2.403  21.247  0.00  0.00    +0.000 C 
ATOM     11  C   UNL     1       2.076   3.441  21.121  0.00  0.00    +0.000 C 
ENDROOT
BRANCH   6  12
ATOM     12  C   UNL     1       5.124   5.981  17.822  0.00  0.00    +0.000 C 
ATOM     13  O   UNL     1       6.045   6.667  18.259  0.00  0.00    +0.000 OA
ATOM     14  N   UNL     1       5.189   5.369  16.590  0.00  0.00    +0.000 N 
ATOM     15  H   UNL     1       4.738   4.464  16.521  0.00  0.00    +0.000 HD
BRANCH  14  16
ATOM     16  C   UNL     1       6.417   5.432  15.819  0.00  0.00    +0.000 C 
BRANCH  16  17
ATOM     17  C   UNL     1       6.263   4.742  14.489  0.00  0.00    +0.000 A 
ATOM     18  C   UNL     1       7.309   4.777  13.555  0.00  0.00    +0.000 A 
ATOM     19  C   UNL     1       7.179   4.144  12.318  0.00  0.00    +0.000 A 
ATOM     20  C   UNL     1       6.001   3.476  11.995  0.00  0.00    +0.000 A 
ATOM     21  C   UNL     1       4.948   3.443  12.912  0.00  0.00    +0.000 A 
ATOM     22  C   UNL     1       5.075   4.075  14.150  0.00  0.00    +0.000 A 
ENDBRANCH  16  17
ENDBRANCH  14  16
ENDBRANCH   6  12
BRANCH   1  24
ATOM     23  O   UNL     1       3.386   8.047  16.663  0.00  0.00    +0.000 OA
ATOM     24  C   UNL     1       2.954   8.117  17.807  0.00  0.00    +0.000 C 
BRANCH  24  25
ATOM     25  O   UNL     1       2.283   9.194  18.240  0.00  0.00    +0.000 OA
ATOM     26  H   UNL     1       2.834  10.007  18.345  0.00  0.00    +0.000 HD
ENDBRANCH  24  25
ENDBRANCH   1  24
TORSDOF 5
ENDMDL
MODEL 4
REMARK VINA RESULT:      -6.8      5.132      9.646
REMARK  Name = 
REMARK  5 active torsions:
REMARK  status: ('A' for Active; 'I' for Inactive)
REMARK    1  A    between atoms: C_2  and  O_3
REMARK    2  A    between atoms: C_2  and  C_4
REMARK    3  A    between atoms: C_9  and  C_10
REMARK    4  A    between atoms: N_12  and  C_13
REMARK    5  A    between atoms: C_13  and  C_14
REMARK                            x       y       z     vdW  Elec       q    Type
REMARK                         _______ _______ _______ _____ _____    ______ ____
ROOT
ATOM      1  C   UNL     1       2.185   3.151  18.666  0.00  0.00    +0.000 A 
ATOM      2  C   UNL     1       2.580   2.222  17.681  0.00  0.00    +0.000 A 
ATOM      3  C   UNL     1       3.710   2.429  16.903  0.00  0.00    +0.000 A 
ATOM      4  C   UNL     1       4.477   3.578  17.081  0.00  0.00    +0.000 A 
ATOM      5  C   UNL     1       4.105   4.515  18.078  0.00  0.00    +0.000 A 
ATOM      6  C   UNL     1       2.961   4.318  18.897  0.00  0.00    +0.000 A 
ATOM      7  C   UNL     1       5.003   5.699  18.215  0.00  0.00    +0.000 C 
ATOM      8  O   UNL     1       5.101   6.328  19.260  0.00  0.00    +0.000 OA
ATOM      9  C   UNL     1       5.761   6.110  16.980  0.00  0.00    +0.000 C 
ATOM     10  C   UNL     1       6.578   4.915  16.542  0.00  0.00    +0.000 C 
ATOM     11  C   UNL     1       5.647   3.779  16.141  0.00  0.00    +0.000 C 
ENDROOT
BRANCH   6  12
ATOM     12  C   UNL     1       2.544   5.240  19.995  0.00  0.00    +0.000 C 
ATOM     13  O   UNL     1       2.633   4.832  21.150  0.00  0.00    +0.000 OA
ATOM     14  N   UNL     1       2.060   6.495  19.699  0.00  0.00    +0.000 N 
ATOM     15  H   UNL     1       2.489   6.959  18.907  0.00  0.00    +0.000 HD
BRANCH  14  16
ATOM     16  C   UNL     1       1.749   7.418  20.774  0.00  0.00    +0.000 C 
BRANCH  16  17
ATOM     17  C   UNL     1       1.096   8.670  20.248  0.00  0.00    +0.000 A 
ATOM     18  C   UNL     1       1.432   9.156  18.976  0.00  0.00    +0.000 A 
ATOM     19  C   UNL     1       0.837  10.316  18.479  0.00  0.00    +0.000 A 
ATOM     20  C   UNL     1      -0.094  11.009  19.246  0.00  0.00    +0.000 A 
ATOM     21  C   UNL     1      -0.430  10.542  20.520  0.00  0.00    +0.000 A 
ATOM     22  C   UNL     1       0.164   9.381  21.020  0.00  0.00    +0.000 A 
ENDBRANCH  16  17
ENDBRANCH  14  16
ENDBRANCH   6  12
BRANCH   1  24
ATOM     23  O   UNL     1      -0.005   2.276  18.581  0.00  0.00    +0.000 OA
ATOM     24  C   UNL     1       0.859   2.812  19.264  0.00  0.00    +0.000 C 
BRANCH  24  25
ATOM     25  O   UNL     1       0.730   2.933  20.593  0.00  0.00    +0.000 OA
ATOM     26  H   UNL     1       1.456   3.439  21.032  0.00  0.00    +0.000 HD
ENDBRANCH  24  25
ENDBRANCH   1  24
TORSDOF 5
ENDMDL
MODEL 5
REMARK VINA RESULT:      -6.8      4.645      8.946
REMARK  Name = 
REMARK  5 active torsions:
REMARK  status: ('A' for Active; 'I' for Inactive)
REMARK    1  A    between atoms: C_2  and  O_3
REMARK    2  A    between atoms: C_2  and  C_4
REMARK    3  A    between atoms: C_9  and  C_10
REMARK    4  A    between atoms: N_12  and  C_13
REMARK    5  A    between atoms: C_13  and  C_14
REMARK                            x       y       z     vdW  Elec       q    Type
REMARK                         _______ _______ _______ _____ _____    ______ ____
ROOT
ATOM      1  C   UNL     1       4.090   4.360  17.097  0.00  0.00    +0.000 A 
ATOM      2  C   UNL     1       4.038   2.956  16.980  0.00  0.00    +0.000 A 
ATOM      3  C   UNL     1       3.402   2.173  17.933  0.00  0.00    +0.000 A 
ATOM      4  C   UNL     1       2.804   2.773  19.039  0.00  0.00    +0.000 A 
ATOM      5  C   UNL     1       2.831   4.185  19.164  0.00  0.00    +0.000 A 
ATOM      6  C   UNL     1       3.463   5.008  18.194  0.00  0.00    +0.000 A 
ATOM      7  C   UNL     1       2.139   4.738  20.366  0.00  0.00    +0.000 C 
ATOM      8  O   UNL     1       1.685   5.874  20.393  0.00  0.00    +0.000 OA
ATOM      9  C   UNL     1       2.061   3.834  21.567  0.00  0.00    +0.000 C 
ATOM     10  C   UNL     1       1.358   2.569  21.127  0.00  0.00    +0.000 C 
ATOM     11  C   UNL     1       2.201   1.854  20.081  0.00  0.00    +0.000 C 
ENDROOT
BRANCH   6  12
ATOM     12  C   UNL     1       3.485   6.500  18.241  0.00  0.00    +0.000 C 
ATOM     13  O   UNL     1       4.504   7.044  18.660  0.00  0.00    +0.000 OA
ATOM     14  N   UNL     1       2.382   7.222  17.843  0.00  0.00    +0.000 N 
ATOM     15  H   UNL     1       1.861   6.839  17.063  0.00  0.00    +0.000 HD
BRANCH  14  16
ATOM     16  C   UNL     1       2.447   8.671  17.801  0.00  0.00    +0.000 C 
BRANCH  16  17
ATOM     17  C   UNL     1       1.323   9.292  18.589  0.00  0.00    +0.000 A 
ATOM     18  C   UNL     1       1.297   9.178  19.986  0.00  0.00    +0.000 A 
ATOM     19  C   UNL     1       0.260   9.747  20.727  0.00  0.00    +0.000 A 
ATOM     20  C   UNL     1      -0.766  10.430  20.082  0.00  0.00    +0.000 A 
ATOM     21  C   UNL     1      -0.759  10.542  18.690  0.00  0.00    +0.000 A 
ATOM     22  C   UNL     1       0.277   9.974  17.946  0.00  0.00    +0.000 A 
ENDBRANCH  16  17
ENDBRANCH  14  16
ENDBRANCH   6  12
BRANCH   1  24
ATOM     23  O   UNL     1       5.587   4.275  15.274  0.00  0.00    +0.000 OA
ATOM     24  C   UNL     1       4.961   4.982  16.054  0.00  0.00    +0.000 C 
BRANCH  24  25
ATOM     25  O   UNL     1       4.874   6.309  15.886  0.00  0.00    +0.000 OA
ATOM     26  H   UNL     1       5.037   6.618  14.962  0.00  0.00    +0.000 HD
ENDBRANCH  24  25
ENDBRANCH   1  24
TORSDOF 5
ENDMDL
MODEL 6
REMARK VINA RESULT:      -6.8      6.664      9.704
REMARK  Name = 
REMARK  5 active torsions:
REMARK  status: ('A' for Active; 'I' for Inactive)
REMARK    1  A    between atoms: C_2  and  O_3
REMARK    2  A    between atoms: C_2  and  C_4
REMARK    3  A    between atoms: C_9  and  C_10
REMARK    4  A    between atoms: N_12  and  C_13
REMARK    5  A    between atoms: C_13  and  C_14
REMARK                            x       y       z     vdW  Elec       q    Type
REMARK                         _______ _______ _______ _____ _____    ______ ____
ROOT
ATOM      1  C   UNL     1       2.928   6.852  18.659  0.00  0.00    +0.000 A 
ATOM      2  C   UNL     1       1.804   6.733  19.502  0.00  0.00    +0.000 A 
ATOM      3  C   UNL     1       1.607   5.609  20.292  0.00  0.00    +0.000 A 
ATOM      4  C   UNL     1       2.528   4.564  20.256  0.00  0.00    +0.000 A 
ATOM      5  C   UNL     1       3.674   4.675  19.428  0.00  0.00    +0.000 A 
ATOM      6  C   UNL     1       3.904   5.821  18.622  0.00  0.00    +0.000 A 
ATOM      7  C   UNL     1       4.617   3.519  19.478  0.00  0.00    +0.000 C 
ATOM      8  O   UNL     1       5.806   3.635  19.212  0.00  0.00    +0.000 OA
ATOM      9  C   UNL     1       4.022   2.184  19.838  0.00  0.00    +0.000 C 
ATOM     10  C   UNL     1       3.358   2.343  21.188  0.00  0.00    +0.000 C 
ATOM     11  C   UNL     1       2.208   3.333  21.079  0.00  0.00    +0.000 C 
ENDROOT
BRANCH   6  12
ATOM     12  C   UNL     1       5.112   6.020  17.767  0.00  0.00    +0.000 C 
ATOM     13  O   UNL     1       5.935   6.859  18.125  0.00  0.00    +0.000 OA
ATOM     14  N   UNL     1       5.268   5.290  16.609  0.00  0.00    +0.000 N 
ATOM     15  H   UNL     1       4.934   4.334  16.640  0.00  0.00    +0.000 HD
BRANCH  14  16
ATOM     16  C   UNL     1       6.489   5.420  15.836  0.00  0.00    +0.000 C 
BRANCH  16  17
ATOM     17  C   UNL     1       6.351   4.775  14.482  0.00  0.00    +0.000 A 
ATOM     18  C   UNL     1       5.190   4.058  14.160  0.00  0.00    +0.000 A 
ATOM     19  C   UNL     1       5.050   3.454  12.910  0.00  0.00    +0.000 A 
ATOM     20  C   UNL     1       6.070   3.553  11.968  0.00  0.00    +0.000 A 
ATOM     21  C   UNL     1       7.236   4.255  12.279  0.00  0.00    +0.000 A 
ATOM     22  C   UNL     1       7.379   4.861  13.529  0.00  0.00    +0.000 A 
ENDBRANCH  16  17
ENDBRANCH  14  16
ENDBRANCH   6  12
BRANCH   1  24
ATOM     23  O   UNL     1       2.296   9.076  18.182  0.00  0.00    +0.000 OA
ATOM     24  C   UNL     1       2.852   8.060  17.783  0.00  0.00    +0.000 C 
BRANCH  24  25
ATOM     25  O   UNL     1       3.573   8.052  16.652  0.00  0.00    +0.000 OA
ATOM     26  H   UNL     1       4.495   7.712  16.755  0.00  0.00    +0.000 HD
ENDBRANCH  24  25
ENDBRANCH   1  24
TORSDOF 5
ENDMDL
MODEL 7
REMARK VINA RESULT:      -6.7      6.945      9.871
REMARK  Name = 
REMARK  5 active torsions:
REMARK  status: ('A' for Active; 'I' for Inactive)
REMARK    1  A    between atoms: C_2  and  O_3
REMARK    2  A    between atoms: C_2  and  C_4
REMARK    3  A    between atoms: C_9  and  C_10
REMARK    4  A    between atoms: N_12  and  C_13
REMARK    5  A    between atoms: C_13  and  C_14
REMARK                            x       y       z     vdW  Elec       q    Type
REMARK                         _______ _______ _______ _____ _____    ______ ____
ROOT
ATOM      1  C   UNL     1       3.294   6.599  18.499  0.00  0.00    +0.000 A 
ATOM      2  C   UNL     1       2.045   6.801  19.122  0.00  0.00    +0.000 A 
ATOM      3  C   UNL     1       1.483   5.835  19.946  0.00  0.00    +0.000 A 
ATOM      4  C   UNL     1       2.153   4.633  20.166  0.00  0.00    +0.000 A 
ATOM      5  C   UNL     1       3.417   4.421  19.561  0.00  0.00    +0.000 A 
ATOM      6  C   UNL     1       4.019   5.400  18.727  0.00  0.00    +0.000 A 
ATOM      7  C   UNL     1       4.070   3.116  19.878  0.00  0.00    +0.000 C 
ATOM      8  O   UNL     1       5.284   2.966  19.832  0.00  0.00    +0.000 OA
ATOM      9  C   UNL     1       3.152   1.975  20.223  0.00  0.00    +0.000 C 
ATOM     10  C   UNL     1       2.320   2.415  21.408  0.00  0.00    +0.000 C 
ATOM     11  C   UNL     1       1.443   3.592  21.007  0.00  0.00    +0.000 C 
ENDROOT
BRANCH   6  12
ATOM     12  C   UNL     1       5.368   5.258  18.101  0.00  0.00    +0.000 C 
ATOM     13  O   UNL     1       6.334   5.697  18.719  0.00  0.00    +0.000 OA
ATOM     14  N   UNL     1       5.499   4.669  16.863  0.00  0.00    +0.000 N 
ATOM     15  H   UNL     1       4.868   3.899  16.671  0.00  0.00    +0.000 HD
BRANCH  14  16
ATOM     16  C   UNL     1       6.820   4.448  16.307  0.00  0.00    +0.000 C 
BRANCH  16  17
ATOM     17  C   UNL     1       6.775   4.365  14.804  0.00  0.00    +0.000 A 
ATOM     18  C   UNL     1       7.646   5.145  14.030  0.00  0.00    +0.000 A 
ATOM     19  C   UNL     1       7.613   5.079  12.637  0.00  0.00    +0.000 A 
ATOM     20  C   UNL     1       6.705   4.239  11.999  0.00  0.00    +0.000 A 
ATOM     21  C   UNL     1       5.823   3.465  12.757  0.00  0.00    +0.000 A 
ATOM     22  C   UNL     1       5.855   3.529  14.151  0.00  0.00    +0.000 A 
ENDBRANCH  16  17
ENDBRANCH  14  16
ENDBRANCH   6  12
BRANCH   1  24
ATOM     23  O   UNL     1       2.857   8.631  17.380  0.00  0.00    +0.000 OA
ATOM     24  C   UNL     1       3.626   7.690  17.533  0.00  0.00    +0.000 C 
BRANCH  24  25
ATOM     25  O   UNL     1       4.858   7.695  17.005  0.00  0.00    +0.000 OA
ATOM     26  H   UNL     1       4.890   7.512  16.034  0.00  0.00    +0.000 HD
ENDBRANCH  24  25
ENDBRANCH   1  24
TORSDOF 5
ENDMDL
MODEL 8
REMARK VINA RESULT:      -6.7      4.486      8.939
REMARK  Name = 
REMARK  5 active torsions:
REMARK  status: ('A' for Active; 'I' for Inactive)
REMARK    1  A    between atoms: C_2  and  O_3
REMARK    2  A    between atoms: C_2  and  C_4
REMARK    3  A    between atoms: C_9  and  C_10
REMARK    4  A    between atoms: N_12  and  C_13
REMARK    5  A    between atoms: C_13  and  C_14
REMARK                            x       y       z     vdW  Elec       q    Type
REMARK                         _______ _______ _______ _____ _____    ______ ____
ROOT
ATOM      1  C   UNL     1       4.740   5.780  17.833  0.00  0.00    +0.000 A 
ATOM      2  C   UNL     1       5.537   4.623  17.950  0.00  0.00    +0.000 A 
ATOM      3  C   UNL     1       5.188   3.588  18.807  0.00  0.00    +0.000 A 
ATOM      4  C   UNL     1       4.032   3.684  19.579  0.00  0.00    +0.000 A 
ATOM      5  C   UNL     1       3.210   4.832  19.460  0.00  0.00    +0.000 A 
ATOM      6  C   UNL     1       3.538   5.897  18.579  0.00  0.00    +0.000 A 
ATOM      7  C   UNL     1       1.979   4.832  20.305  0.00  0.00    +0.000 C 
ATOM      8  O   UNL     1       0.981   5.475  20.006  0.00  0.00    +0.000 OA
ATOM      9  C   UNL     1       2.038   4.023  21.573  0.00  0.00    +0.000 C 
ATOM     10  C   UNL     1       2.371   2.601  21.179  0.00  0.00    +0.000 C 
ATOM     11  C   UNL     1       3.758   2.556  20.553  0.00  0.00    +0.000 C 
ENDROOT
BRANCH   6  12
ATOM     12  C   UNL     1       2.691   7.109  18.373  0.00  0.00    +0.000 C 
ATOM     13  O   UNL     1       2.339   7.372  17.225  0.00  0.00    +0.000 OA
ATOM     14  N   UNL     1       2.343   7.903  19.444  0.00  0.00    +0.000 N 
ATOM     15  H   UNL     1       2.167   7.416  20.315  0.00  0.00    +0.000 HD
BRANCH  14  16
ATOM     16  C   UNL     1       1.441   9.022  19.247  0.00  0.00    +0.000 C 
BRANCH  16  17
ATOM     17  C   UNL     1       0.786   9.430  20.541  0.00  0.00    +0.000 A 
ATOM     18  C   UNL     1      -0.130  10.491  20.560  0.00  0.00    +0.000 A 
ATOM     19  C   UNL     1      -0.742  10.881  21.753  0.00  0.00    +0.000 A 
ATOM     20  C   UNL     1      -0.442  10.221  22.940  0.00  0.00    +0.000 A 
ATOM     21  C   UNL     1       0.477   9.169  22.937  0.00  0.00    +0.000 A 
ATOM     22  C   UNL     1       1.091   8.777  21.746  0.00  0.00    +0.000 A 
ENDBRANCH  16  17
ENDBRANCH  14  16
ENDBRANCH   6  12
BRANCH   1  24
ATOM     23  O   UNL     1       6.359   7.443  17.404  0.00  0.00    +0.000 OA
ATOM     24  C   UNL     1       5.387   6.827  16.985  0.00  0.00    +0.000 C 
BRANCH  24  25
ATOM     25  O   UNL     1       4.992   6.920  15.707  0.00  0.00    +0.000 OA
ATOM     26  H   UNL     1       5.124   6.098  15.175  0.00  0.00    +0.000 HD
ENDBRANCH  24  25
ENDBRANCH   1  24
TORSDOF 5
ENDMDL
MODEL 9
REMARK VINA RESULT:      -6.7      4.796      9.150
REMARK  Name = 
REMARK  5 active torsions:
REMARK  status: ('A' for Active; 'I' for Inactive)
REMARK    1  A    between atoms: C_2  and  O_3
REMARK    2  A    between atoms: C_2  and  C_4
REMARK    3  A    between atoms: C_9  and  C_10
REMARK    4  A    between atoms: N_12  and  C_13
REMARK    5  A    between atoms: C_13  and  C_14
REMARK                            x       y       z     vdW  Elec       q    Type
REMARK                         _______ _______ _______ _____ _____    ______ ____
ROOT
ATOM      1  C   UNL     1       4.250   4.113  17.182  0.00  0.00    +0.000 A 
ATOM      2  C   UNL     1       4.184   2.705  17.132  0.00  0.00    +0.000 A 
ATOM      3  C   UNL     1       3.507   1.978  18.101  0.00  0.00    +0.000 A 
ATOM      4  C   UNL     1       2.880   2.639  19.155  0.00  0.00    +0.000 A 
ATOM      5  C   UNL     1       2.921   4.054  19.211  0.00  0.00    +0.000 A 
ATOM      6  C   UNL     1       3.595   4.821  18.223  0.00  0.00    +0.000 A 
ATOM      7  C   UNL     1       2.197   4.674  20.361  0.00  0.00    +0.000 C 
ATOM      8  O   UNL     1       1.756   5.814  20.316  0.00  0.00    +0.000 OA
ATOM      9  C   UNL     1       2.068   3.831  21.602  0.00  0.00    +0.000 C 
ATOM     10  C   UNL     1       1.364   2.554  21.201  0.00  0.00    +0.000 C 
ATOM     11  C   UNL     1       2.232   1.778  20.220  0.00  0.00    +0.000 C 
ENDROOT
BRANCH   6  12
ATOM     12  C   UNL     1       3.634   6.314  18.199  0.00  0.00    +0.000 C 
ATOM     13  O   UNL     1       4.702   6.863  18.460  0.00  0.00    +0.000 OA
ATOM     14  N   UNL     1       2.495   7.032  17.909  0.00  0.00    +0.000 N 
ATOM     15  H   UNL     1       1.877   6.621  17.219  0.00  0.00    +0.000 HD
BRANCH  14  16
ATOM     16  C   UNL     1       2.566   8.476  17.792  0.00  0.00    +0.000 C 
BRANCH  16  17
ATOM     17  C   UNL     1       1.438   9.141  18.537  0.00  0.00    +0.000 A 
ATOM     18  C   UNL     1       0.447   9.840  17.834  0.00  0.00    +0.000 A 
ATOM     19  C   UNL     1      -0.602  10.462  18.512  0.00  0.00    +0.000 A 
ATOM     20  C   UNL     1      -0.671  10.400  19.901  0.00  0.00    +0.000 A 
ATOM     21  C   UNL     1       0.316   9.716  20.615  0.00  0.00    +0.000 A 
ATOM     22  C   UNL     1       1.366   9.092  19.939  0.00  0.00    +0.000 A 
ENDBRANCH  16  17
ENDBRANCH  14  16
ENDBRANCH   6  12
BRANCH   1  24
ATOM     23  O   UNL     1       4.786   4.767  14.978  0.00  0.00    +0.000 OA
ATOM     24  C   UNL     1       5.163   4.673  16.139  0.00  0.00    +0.000 C 
BRANCH  24  25
ATOM     25  O   UNL     1       6.306   5.237  16.556  0.00  0.00    +0.000 OA
ATOM     26  H   UNL     1       6.672   4.855  17.390  0.00  0.00    +0.000 HD
ENDBRANCH  24  25
ENDBRANCH   1  24
TORSDOF 5
ENDMDL
