MODEL 1
REMARK VINA RESULT:      -7.6      0.000      0.000
REMARK  Name = 
REMARK  6 active torsions:
REMARK  status: ('A' for Active; 'I' for Inactive)
REMARK    1  A    between atoms: C_1  and  N_2
REMARK    2  A    between atoms: C_4  and  C_5
REMARK    3  A    between atoms: N_6  and  N_7
REMARK    4  A    between atoms: C_8  and  C_10
REMARK    5  A    between atoms: C_16  and  C_17
REMARK    6  A    between atoms: C_16  and  C_18
REMARK                            x       y       z     vdW  Elec       q    Type
REMARK                         _______ _______ _______ _____ _____    ______ ____
ROOT
ATOM      1  C   UNL     1       4.225   7.796  17.625  0.00  0.00    +0.000 C 
ATOM      2  N   UNL     1       3.936   6.375  17.555  0.00  0.00    +0.000 N 
ATOM      3  C   UNL     1       3.332   5.520  18.492  0.00  0.00    +0.000 C 
ATOM      4  C   UNL     1       2.587   5.807  19.578  0.00  0.00    +0.000 C 
ATOM      5  C   UNL     1       3.660   4.037  18.081  0.00  0.00    +0.000 C 
ATOM      6  C   UNL     1       2.389   3.280  17.659  0.00  0.00    +0.000 C 
ATOM      7  C   UNL     1       4.415   3.255  19.164  0.00  0.00    +0.000 C 
ATOM      8  C   UNL     1       4.546   4.251  16.862  0.00  0.00    +0.000 A 
ATOM      9  C   UNL     1       5.193   3.313  16.065  0.00  0.00    +0.000 A 
ATOM     10  C   UNL     1       5.970   3.770  14.999  0.00  0.00    +0.000 A 
ATOM     11  C   UNL     1       6.088   5.142  14.743  0.00  0.00    +0.000 A 
ATOM     12  C   UNL     1       5.430   6.076  15.547  0.00  0.00    +0.000 A 
ATOM     13  C   UNL     1       4.661   5.626  16.612  0.00  0.00    +0.000 A 
ENDROOT
BRANCH   4  14
ATOM     14  C   UNL     1       2.104   7.166  19.897  0.00  0.00    +0.000 C 
ATOM     15  N   UNL     1       1.349   7.432  20.913  0.00  0.00    +0.000 NA
BRANCH  15  16
ATOM     16  N   UNL     1       1.046   8.761  21.085  0.00  0.00    +0.000 N 
ATOM     17  C   UNL     1      -0.041   9.126  21.869  0.00  0.00    +0.000 C 
ATOM     18  O   UNL     1      -0.800   8.344  22.433  0.00  0.00    +0.000 OA
ATOM     19  H   UNL     1       1.715   9.453  20.773  0.00  0.00    +0.000 HD
BRANCH  17  20
ATOM     20  C   UNL     1      -0.262  10.585  22.046  0.00  0.00    +0.000 A 
ATOM     21  C   UNL     1      -1.216  11.136  22.909  0.00  0.00    +0.000 A 
ATOM     22  C   UNL     1      -1.319  12.525  23.024  0.00  0.00    +0.000 A 
ATOM     23  C   UNL     1      -0.466  13.318  22.273  0.00  0.00    +0.000 A 
ATOM     24  N   UNL     1       0.463  12.820  21.429  0.00  0.00    +0.000 NA
ATOM     25  C   UNL     1       0.553  11.468  21.342  0.00  0.00    +0.000 A 
ENDBRANCH  17  20
ENDBRANCH  15  16
ENDBRANCH   4  14
TORSDOF 3
ENDMDL
MODEL 2
REMARK VINA RESULT:      -7.4      2.507      8.977
REMARK  Name = 
REMARK  6 active torsions:
REMARK  status: ('A' for Active; 'I' for Inactive)
REMARK    1  A    between atoms: C_1  and  N_2
REMARK    2  A    between atoms: C_4  and  C_5
REMARK    3  A    between atoms: N_6  and  N_7
REMARK    4  A    between atoms: C_8  and  C_10
REMARK    5  A    between atoms: C_16  and  C_17
REMARK    6  A    between atoms: C_16  and  C_18
REMARK                            x       y       z     vdW  Elec       q    Type
REMARK                         _______ _______ _______ _____ _____    ______ ____
ROOT
ATOM      1  C   UNL     1       0.840   8.574  20.956  0.00  0.00    +0.000 C 
ATOM      2  N   UNL     1       0.386   9.822  20.371  0.00  0.00    +0.000 N 
ATOM      3  C   UNL     1       0.775  10.467  19.185  0.00  0.00    +0.000 C 
ATOM      4  C   UNL     1       1.440   9.993  18.114  0.00  0.00    +0.000 C 
ATOM      5  C   UNL     1       0.289  11.962  19.262  0.00  0.00    +0.000 C 
ATOM      6  C   UNL     1      -0.792  12.254  18.207  0.00  0.00    +0.000 C 
ATOM      7  C   UNL     1       1.431  12.982  19.156  0.00  0.00    +0.000 C 
ATOM      8  C   UNL     1      -0.337  12.005  20.649  0.00  0.00    +0.000 A 
ATOM      9  C   UNL     1      -0.915  13.074  21.324  0.00  0.00    +0.000 A 
ATOM     10  C   UNL     1      -1.412  12.857  22.610  0.00  0.00    +0.000 A 
ATOM     11  C   UNL     1      -1.328  11.588  23.200  0.00  0.00    +0.000 A 
ATOM     12  C   UNL     1      -0.750  10.519  22.510  0.00  0.00    +0.000 A 
ATOM     13  C   UNL     1      -0.249  10.733  21.233  0.00  0.00    +0.000 A 
ENDROOT
BRANCH   4  14
ATOM     14  C   UNL     1       1.753   8.562  17.920  0.00  0.00    +0.000 C 
ATOM     15  N   UNL     1       2.951   8.080  17.998  0.00  0.00    +0.000 NA
BRANCH  15  16
ATOM     16  N   UNL     1       3.044   6.717  17.847  0.00  0.00    +0.000 N 
ATOM     17  C   UNL     1       3.026   5.894  18.966  0.00  0.00    +0.000 C 
ATOM     18  O   UNL     1       2.950   6.284  20.127  0.00  0.00    +0.000 OA
ATOM     19  H   UNL     1       2.959   6.327  16.916  0.00  0.00    +0.000 HD
BRANCH  17  20
ATOM     20  C   UNL     1       3.077   4.432  18.707  0.00  0.00    +0.000 A 
ATOM     21  C   UNL     1       2.239   3.764  17.808  0.00  0.00    +0.000 A 
ATOM     22  C   UNL     1       2.393   2.389  17.615  0.00  0.00    +0.000 A 
ATOM     23  C   UNL     1       3.380   1.726  18.328  0.00  0.00    +0.000 A 
ATOM     24  N   UNL     1       4.203   2.338  19.205  0.00  0.00    +0.000 NA
ATOM     25  C   UNL     1       4.043   3.677  19.367  0.00  0.00    +0.000 A 
ENDBRANCH  17  20
ENDBRANCH  15  16
ENDBRANCH   4  14
TORSDOF 3
ENDMDL
MODEL 3
REMARK VINA RESULT:      -7.4      2.422      8.937
REMARK  Name = 
REMARK  6 active torsions:
REMARK  status: ('A' for Active; 'I' for Inactive)
REMARK    1  A    between atoms: C_1  and  N_2
REMARK    2  A    between atoms: C_4  and  C_5
REMARK    3  A    between atoms: N_6  and  N_7
REMARK    4  A    between atoms: C_8  and  C_10
REMARK    5  A    between atoms: C_16  and  C_17
REMARK    6  A    between atoms: C_16  and  C_18
REMARK                            x       y       z     vdW  Elec       q    Type
REMARK                         _______ _______ _______ _____ _____    ______ ____
ROOT
ATOM      1  C   UNL     1       1.326   9.717  17.879  0.00  0.00    +0.000 C 
ATOM      2  N   UNL     1       1.161   9.763  19.320  0.00  0.00    +0.000 N 
ATOM      3  C   UNL     1       1.230   8.740  20.279  0.00  0.00    +0.000 C 
ATOM      4  C   UNL     1       1.755   7.501  20.194  0.00  0.00    +0.000 C 
ATOM      5  C   UNL     1       0.557   9.264  21.602  0.00  0.00    +0.000 C 
ATOM      6  C   UNL     1       1.586   9.402  22.736  0.00  0.00    +0.000 C 
ATOM      7  C   UNL     1      -0.635   8.413  22.059  0.00  0.00    +0.000 C 
ATOM      8  C   UNL     1       0.091  10.649  21.174  0.00  0.00    +0.000 A 
ATOM      9  C   UNL     1      -0.615  11.604  21.896  0.00  0.00    +0.000 A 
ATOM     10  C   UNL     1      -0.939  12.807  21.266  0.00  0.00    +0.000 A 
ATOM     11  C   UNL     1      -0.557  13.039  19.938  0.00  0.00    +0.000 A 
ATOM     12  C   UNL     1       0.157  12.073  19.223  0.00  0.00    +0.000 A 
ATOM     13  C   UNL     1       0.476  10.874  19.844  0.00  0.00    +0.000 A 
ENDROOT
BRANCH   4  14
ATOM     14  C   UNL     1       2.553   7.034  19.041  0.00  0.00    +0.000 C 
ATOM     15  N   UNL     1       2.916   5.803  18.881  0.00  0.00    +0.000 NA
BRANCH  15  16
ATOM     16  N   UNL     1       3.604   5.543  17.720  0.00  0.00    +0.000 N 
ATOM     17  C   UNL     1       4.992   5.483  17.739  0.00  0.00    +0.000 C 
ATOM     18  O   UNL     1       5.694   5.665  18.729  0.00  0.00    +0.000 OA
ATOM     19  H   UNL     1       3.084   5.238  16.907  0.00  0.00    +0.000 HD
BRANCH  17  20
ATOM     20  C   UNL     1       5.652   5.143  16.452  0.00  0.00    +0.000 A 
ATOM     21  C   UNL     1       5.046   4.404  15.430  0.00  0.00    +0.000 A 
ATOM     22  C   UNL     1       5.746   4.169  14.243  0.00  0.00    +0.000 A 
ATOM     23  C   UNL     1       7.028   4.680  14.116  0.00  0.00    +0.000 A 
ATOM     24  N   UNL     1       7.643   5.395  15.082  0.00  0.00    +0.000 NA
ATOM     25  C   UNL     1       6.940   5.621  16.222  0.00  0.00    +0.000 A 
ENDBRANCH  17  20
ENDBRANCH  15  16
ENDBRANCH   4  14
TORSDOF 3
ENDMDL
MODEL 4
REMARK VINA RESULT:      -7.4      6.867     10.554
REMARK  Name = 
REMARK  6 active torsions:
REMARK  status: ('A' for Active; 'I' for Inactive)
REMARK    1  A    between atoms: C_1  and  N_2
REMARK    2  A    between atoms: C_4  and  C_5
REMARK    3  A    between atoms: N_6  and  N_7
REMARK    4  A    between atoms: C_8  and  C_10
REMARK    5  A    between atoms: C_16  and  C_17
REMARK    6  A    between atoms: C_16  and  C_18
REMARK                            x       y       z     vdW  Elec       q    Type
REMARK                         _______ _______ _______ _____ _____    ______ ____
ROOT
ATOM      1  C   UNL     1       7.814  12.380  17.275  0.00  0.00    +0.000 C 
ATOM      2  N   UNL     1       8.939  12.625  18.159  0.00  0.00    +0.000 N 
ATOM      3  C   UNL     1       9.494  11.824  19.171  0.00  0.00    +0.000 C 
ATOM      4  C   UNL     1       9.352  10.506  19.415  0.00  0.00    +0.000 C 
ATOM      5  C   UNL     1      10.398  12.740  20.077  0.00  0.00    +0.000 C 
ATOM      6  C   UNL     1      11.882  12.352  19.962  0.00  0.00    +0.000 C 
ATOM      7  C   UNL     1       9.962  12.765  21.548  0.00  0.00    +0.000 C 
ATOM      8  C   UNL     1      10.183  14.104  19.435  0.00  0.00    +0.000 A 
ATOM      9  C   UNL     1      10.688  15.344  19.807  0.00  0.00    +0.000 A 
ATOM     10  C   UNL     1      10.327  16.462  19.054  0.00  0.00    +0.000 A 
ATOM     11  C   UNL     1       9.478  16.329  17.947  0.00  0.00    +0.000 A 
ATOM     12  C   UNL     1       8.980  15.077  17.578  0.00  0.00    +0.000 A 
ATOM     13  C   UNL     1       9.332  13.964  18.329  0.00  0.00    +0.000 A 
ENDROOT
BRANCH   4  14
ATOM     14  C   UNL     1       8.666   9.579  18.492  0.00  0.00    +0.000 C 
ATOM     15  N   UNL     1       8.580   8.304  18.700  0.00  0.00    +0.000 NA
BRANCH  15  16
ATOM     16  N   UNL     1       7.855   7.607  17.763  0.00  0.00    +0.000 N 
ATOM     17  C   UNL     1       7.554   6.268  17.980  0.00  0.00    +0.000 C 
ATOM     18  O   UNL     1       7.902   5.615  18.959  0.00  0.00    +0.000 OA
ATOM     19  H   UNL     1       7.414   8.122  17.012  0.00  0.00    +0.000 HD
BRANCH  17  20
ATOM     20  C   UNL     1       6.721   5.607  16.943  0.00  0.00    +0.000 A 
ATOM     21  C   UNL     1       7.166   5.308  15.650  0.00  0.00    +0.000 A 
ATOM     22  C   UNL     1       6.309   4.653  14.761  0.00  0.00    +0.000 A 
ATOM     23  C   UNL     1       5.036   4.318  15.193  0.00  0.00    +0.000 A 
ATOM     24  N   UNL     1       4.573   4.592  16.431  0.00  0.00    +0.000 NA
ATOM     25  C   UNL     1       5.427   5.219  17.282  0.00  0.00    +0.000 A 
ENDBRANCH  17  20
ENDBRANCH  15  16
ENDBRANCH   4  14
TORSDOF 3
ENDMDL
MODEL 5
REMARK VINA RESULT:      -7.3      7.132     10.484
REMARK  Name = 
REMARK  6 active torsions:
REMARK  status: ('A' for Active; 'I' for Inactive)
REMARK    1  A    between atoms: C_1  and  N_2
REMARK    2  A    between atoms: C_4  and  C_5
REMARK    3  A    between atoms: N_6  and  N_7
REMARK    4  A    between atoms: C_8  and  C_10
REMARK    5  A    between atoms: C_16  and  C_17
REMARK    6  A    between atoms: C_16  and  C_18
REMARK                            x       y       z     vdW  Elec       q    Type
REMARK                         _______ _______ _______ _____ _____    ______ ____
ROOT
ATOM      1  C   UNL     1       8.608  11.235  21.197  0.00  0.00    +0.000 C 
ATOM      2  N   UNL     1       9.282  12.097  20.244  0.00  0.00    +0.000 N 
ATOM      3  C   UNL     1       9.848  11.805  18.992  0.00  0.00    +0.000 C 
ATOM      4  C   UNL     1       9.673  10.739  18.185  0.00  0.00    +0.000 C 
ATOM      5  C   UNL     1      10.804  12.992  18.600  0.00  0.00    +0.000 C 
ATOM      6  C   UNL     1      10.277  13.752  17.371  0.00  0.00    +0.000 C 
ATOM      7  C   UNL     1      12.258  12.557  18.378  0.00  0.00    +0.000 C 
ATOM      8  C   UNL     1      10.695  13.884  19.828  0.00  0.00    +0.000 A 
ATOM      9  C   UNL     1      11.343  15.082  20.109  0.00  0.00    +0.000 A 
ATOM     10  C   UNL     1      11.081  15.709  21.328  0.00  0.00    +0.000 A 
ATOM     11  C   UNL     1      10.183  15.140  22.242  0.00  0.00    +0.000 A 
ATOM     12  C   UNL     1       9.533  13.938  21.947  0.00  0.00    +0.000 A 
ATOM     13  C   UNL     1       9.796  13.309  20.738  0.00  0.00    +0.000 A 
ENDROOT
BRANCH   4  14
ATOM     14  C   UNL     1       8.654   9.696  18.425  0.00  0.00    +0.000 C 
ATOM     15  N   UNL     1       8.176   8.942  17.489  0.00  0.00    +0.000 NA
BRANCH  15  16
ATOM     16  N   UNL     1       7.279   7.989  17.907  0.00  0.00    +0.000 N 
ATOM     17  C   UNL     1       7.139   6.809  17.188  0.00  0.00    +0.000 C 
ATOM     18  O   UNL     1       7.752   6.530  16.161  0.00  0.00    +0.000 OA
ATOM     19  H   UNL     1       6.856   8.091  18.821  0.00  0.00    +0.000 HD
BRANCH  17  20
ATOM     20  C   UNL     1       6.187   5.811  17.741  0.00  0.00    +0.000 A 
ATOM     21  C   UNL     1       5.016   5.401  17.096  0.00  0.00    +0.000 A 
ATOM     22  C   UNL     1       4.206   4.430  17.691  0.00  0.00    +0.000 A 
ATOM     23  C   UNL     1       4.593   3.900  18.912  0.00  0.00    +0.000 A 
ATOM     24  N   UNL     1       5.715   4.275  19.563  0.00  0.00    +0.000 NA
ATOM     25  C   UNL     1       6.493   5.211  18.961  0.00  0.00    +0.000 A 
ENDBRANCH  17  20
ENDBRANCH  15  16
ENDBRANCH   4  14
TORSDOF 3
ENDMDL
MODEL 6
REMARK VINA RESULT:      -7.3      2.575      9.103
REMARK  Name = 
REMARK  6 active torsions:
REMARK  status: ('A' for Active; 'I' for Inactive)
REMARK    1  A    between atoms: C_1  and  N_2
REMARK    2  A    between atoms: C_4  and  C_5
REMARK    3  A    between atoms: N_6  and  N_7
REMARK    4  A    between atoms: C_8  and  C_10
REMARK    5  A    between atoms: C_16  and  C_17
REMARK    6  A    between atoms: C_16  and  C_18
REMARK                            x       y       z     vdW  Elec       q    Type
REMARK                         _______ _______ _______ _____ _____    ______ ____
ROOT
ATOM      1  C   UNL     1       1.114   8.797  21.736  0.00  0.00    +0.000 C 
ATOM      2  N   UNL     1       0.441   9.708  20.830  0.00  0.00    +0.000 N 
ATOM      3  C   UNL     1       0.715  10.030  19.490  0.00  0.00    +0.000 C 
ATOM      4  C   UNL     1       1.468   9.386  18.577  0.00  0.00    +0.000 C 
ATOM      5  C   UNL     1      -0.043  11.365  19.144  0.00  0.00    +0.000 C 
ATOM      6  C   UNL     1      -1.148  11.127  18.101  0.00  0.00    +0.000 C 
ATOM      7  C   UNL     1       0.889  12.496  18.689  0.00  0.00    +0.000 C 
ATOM      8  C   UNL     1      -0.680  11.706  20.483  0.00  0.00    +0.000 A 
ATOM      9  C   UNL     1      -1.455  12.804  20.839  0.00  0.00    +0.000 A 
ATOM     10  C   UNL     1      -1.916  12.895  22.153  0.00  0.00    +0.000 A 
ATOM     11  C   UNL     1      -1.603  11.897  23.086  0.00  0.00    +0.000 A 
ATOM     12  C   UNL     1      -0.828  10.794  22.717  0.00  0.00    +0.000 A 
ATOM     13  C   UNL     1      -0.363  10.704  21.413  0.00  0.00    +0.000 A 
ENDROOT
BRANCH   4  14
ATOM     14  C   UNL     1       2.045   8.044  18.800  0.00  0.00    +0.000 C 
ATOM     15  N   UNL     1       2.826   7.457  17.952  0.00  0.00    +0.000 NA
BRANCH  15  16
ATOM     16  N   UNL     1       3.314   6.236  18.354  0.00  0.00    +0.000 N 
ATOM     17  C   UNL     1       2.580   5.083  18.105  0.00  0.00    +0.000 C 
ATOM     18  O   UNL     1       1.485   5.048  17.552  0.00  0.00    +0.000 OA
ATOM     19  H   UNL     1       4.271   6.180  18.678  0.00  0.00    +0.000 HD
BRANCH  17  20
ATOM     20  C   UNL     1       3.206   3.803  18.525  0.00  0.00    +0.000 A 
ATOM     21  C   UNL     1       2.849   2.549  18.016  0.00  0.00    +0.000 A 
ATOM     22  C   UNL     1       3.526   1.409  18.457  0.00  0.00    +0.000 A 
ATOM     23  C   UNL     1       4.539   1.559  19.391  0.00  0.00    +0.000 A 
ATOM     24  N   UNL     1       4.908   2.752  19.904  0.00  0.00    +0.000 NA
ATOM     25  C   UNL     1       4.244   3.847  19.452  0.00  0.00    +0.000 A 
ENDBRANCH  17  20
ENDBRANCH  15  16
ENDBRANCH   4  14
TORSDOF 3
ENDMDL
MODEL 7
REMARK VINA RESULT:      -7.2      2.410      9.062
REMARK  Name = 
REMARK  6 active torsions:
REMARK  status: ('A' for Active; 'I' for Inactive)
REMARK    1  A    between atoms: C_1  and  N_2
REMARK    2  A    between atoms: C_4  and  C_5
REMARK    3  A    between atoms: N_6  and  N_7
REMARK    4  A    between atoms: C_8  and  C_10
REMARK    5  A    between atoms: C_16  and  C_17
REMARK    6  A    between atoms: C_16  and  C_18
REMARK                            x       y       z     vdW  Elec       q    Type
REMARK                         _______ _______ _______ _____ _____    ______ ____
ROOT
ATOM      1  C   UNL     1       0.387   9.139  21.010  0.00  0.00    +0.000 C 
ATOM      2  N   UNL     1       0.240  10.469  20.449  0.00  0.00    +0.000 N 
ATOM      3  C   UNL     1       0.859  11.063  19.337  0.00  0.00    +0.000 C 
ATOM      4  C   UNL     1       1.522  10.501  18.307  0.00  0.00    +0.000 C 
ATOM      5  C   UNL     1       0.663  12.621  19.443  0.00  0.00    +0.000 C 
ATOM      6  C   UNL     1      -0.234  13.150  18.312  0.00  0.00    +0.000 C 
ATOM      7  C   UNL     1       1.983  13.400  19.491  0.00  0.00    +0.000 C 
ATOM      8  C   UNL     1      -0.076  12.741  20.769  0.00  0.00    +0.000 A 
ATOM      9  C   UNL     1      -0.502  13.881  21.442  0.00  0.00    +0.000 A 
ATOM     10  C   UNL     1      -1.154  13.725  22.666  0.00  0.00    +0.000 A 
ATOM     11  C   UNL     1      -1.373  12.446  23.197  0.00  0.00    +0.000 A 
ATOM     12  C   UNL     1      -0.945  11.307  22.510  0.00  0.00    +0.000 A 
ATOM     13  C   UNL     1      -0.291  11.459  21.295  0.00  0.00    +0.000 A 
ENDROOT
BRANCH   4  14
ATOM     14  C   UNL     1       1.572   9.043  18.071  0.00  0.00    +0.000 C 
ATOM     15  N   UNL     1       2.660   8.347  18.155  0.00  0.00    +0.000 NA
BRANCH  15  16
ATOM     16  N   UNL     1       2.506   6.996  17.960  0.00  0.00    +0.000 N 
ATOM     17  C   UNL     1       2.387   6.149  19.054  0.00  0.00    +0.000 C 
ATOM     18  O   UNL     1       2.425   6.503  20.229  0.00  0.00    +0.000 OA
ATOM     19  H   UNL     1       2.317   6.661  17.023  0.00  0.00    +0.000 HD
BRANCH  17  20
ATOM     20  C   UNL     1       2.169   4.711  18.751  0.00  0.00    +0.000 A 
ATOM     21  C   UNL     1       2.757   4.037  17.675  0.00  0.00    +0.000 A 
ATOM     22  C   UNL     1       2.511   2.672  17.500  0.00  0.00    +0.000 A 
ATOM     23  C   UNL     1       1.685   2.026  18.406  0.00  0.00    +0.000 A 
ATOM     24  N   UNL     1       1.100   2.645  19.453  0.00  0.00    +0.000 NA
ATOM     25  C   UNL     1       1.363   3.968  19.610  0.00  0.00    +0.000 A 
ENDBRANCH  17  20
ENDBRANCH  15  16
ENDBRANCH   4  14
TORSDOF 3
ENDMDL
MODEL 8
REMARK VINA RESULT:      -7.2      2.563      4.040
REMARK  Name = 
REMARK  6 active torsions:
REMARK  status: ('A' for Active; 'I' for Inactive)
REMARK    1  A    between atoms: C_1  and  N_2
REMARK    2  A    between atoms: C_4  and  C_5
REMARK    3  A    between atoms: N_6  and  N_7
REMARK    4  A    between atoms: C_8  and  C_10
REMARK    5  A    between atoms: C_16  and  C_17
REMARK    6  A    between atoms: C_16  and  C_18
REMARK                            x       y       z     vdW  Elec       q    Type
REMARK                         _______ _______ _______ _____ _____    ______ ____
ROOT
ATOM      1  C   UNL     1       1.730   7.081  20.269  0.00  0.00    +0.000 C 
ATOM      2  N   UNL     1       2.680   6.141  19.704  0.00  0.00    +0.000 N 
ATOM      3  C   UNL     1       3.330   6.139  18.458  0.00  0.00    +0.000 C 
ATOM      4  C   UNL     1       3.501   7.133  17.565  0.00  0.00    +0.000 C 
ATOM      5  C   UNL     1       3.898   4.693  18.206  0.00  0.00    +0.000 C 
ATOM      6  C   UNL     1       5.436   4.691  18.191  0.00  0.00    +0.000 C 
ATOM      7  C   UNL     1       3.348   4.035  16.934  0.00  0.00    +0.000 C 
ATOM      8  C   UNL     1       3.406   3.956  19.444  0.00  0.00    +0.000 A 
ATOM      9  C   UNL     1       3.553   2.618  19.791  0.00  0.00    +0.000 A 
ATOM     10  C   UNL     1       2.989   2.177  20.989  0.00  0.00    +0.000 A 
ATOM     11  C   UNL     1       2.295   3.068  21.819  0.00  0.00    +0.000 A 
ATOM     12  C   UNL     1       2.158   4.413  21.462  0.00  0.00    +0.000 A 
ATOM     13  C   UNL     1       2.711   4.853  20.269  0.00  0.00    +0.000 A 
ENDROOT
BRANCH   4  14
ATOM     14  C   UNL     1       3.147   8.542  17.838  0.00  0.00    +0.000 C 
ATOM     15  N   UNL     1       2.056   9.095  17.418  0.00  0.00    +0.000 NA
BRANCH  15  16
ATOM     16  N   UNL     1       1.868  10.396  17.818  0.00  0.00    +0.000 N 
ATOM     17  C   UNL     1       0.757  10.731  18.580  0.00  0.00    +0.000 C 
ATOM     18  O   UNL     1      -0.121   9.949  18.932  0.00  0.00    +0.000 OA
ATOM     19  H   UNL     1       2.626  11.055  17.690  0.00  0.00    +0.000 HD
BRANCH  17  20
ATOM     20  C   UNL     1       0.661  12.149  19.014  0.00  0.00    +0.000 A 
ATOM     21  C   UNL     1      -0.245  13.074  18.484  0.00  0.00    +0.000 A 
ATOM     22  C   UNL     1      -0.273  14.377  18.988  0.00  0.00    +0.000 A 
ATOM     23  C   UNL     1       0.604  14.713  20.006  0.00  0.00    +0.000 A 
ATOM     24  N   UNL     1       1.493  13.848  20.539  0.00  0.00    +0.000 NA
ATOM     25  C   UNL     1       1.495  12.584  20.042  0.00  0.00    +0.000 A 
ENDBRANCH  17  20
ENDBRANCH  15  16
ENDBRANCH   4  14
TORSDOF 3
ENDMDL
MODEL 9
REMARK VINA RESULT:      -7.1      2.465      9.443
REMARK  Name = 
REMARK  6 active torsions:
REMARK  status: ('A' for Active; 'I' for Inactive)
REMARK    1  A    between atoms: C_1  and  N_2
REMARK    2  A    between atoms: C_4  and  C_5
REMARK    3  A    between atoms: N_6  and  N_7
REMARK    4  A    between atoms: C_8  and  C_10
REMARK    5  A    between atoms: C_16  and  C_17
REMARK    6  A    between atoms: C_16  and  C_18
REMARK                            x       y       z     vdW  Elec       q    Type
REMARK                         _______ _______ _______ _____ _____    ______ ____
ROOT
ATOM      1  C   UNL     1       0.150   9.488  21.309  0.00  0.00    +0.000 C 
ATOM      2  N   UNL     1       0.125  10.809  20.709  0.00  0.00    +0.000 N 
ATOM      3  C   UNL     1       0.840  11.328  19.616  0.00  0.00    +0.000 C 
ATOM      4  C   UNL     1       1.514  10.693  18.637  0.00  0.00    +0.000 C 
ATOM      5  C   UNL     1       0.749  12.898  19.675  0.00  0.00    +0.000 C 
ATOM      6  C   UNL     1      -0.049  13.457  18.485  0.00  0.00    +0.000 C 
ATOM      7  C   UNL     1       2.117  13.586  19.773  0.00  0.00    +0.000 C 
ATOM      8  C   UNL     1      -0.045  13.106  20.957  0.00  0.00    +0.000 A 
ATOM      9  C   UNL     1      -0.423  14.290  21.578  0.00  0.00    +0.000 A 
ATOM     10  C   UNL     1      -1.146  14.214  22.770  0.00  0.00    +0.000 A 
ATOM     11  C   UNL     1      -1.481  12.969  23.319  0.00  0.00    +0.000 A 
ATOM     12  C   UNL     1      -1.100  11.784  22.683  0.00  0.00    +0.000 A 
ATOM     13  C   UNL     1      -0.377  11.857  21.502  0.00  0.00    +0.000 A 
ENDROOT
BRANCH   4  14
ATOM     14  C   UNL     1       1.473   9.229  18.440  0.00  0.00    +0.000 C 
ATOM     15  N   UNL     1       2.487   8.540  18.026  0.00  0.00    +0.000 NA
BRANCH  15  16
ATOM     16  N   UNL     1       2.282   7.183  17.957  0.00  0.00    +0.000 N 
ATOM     17  C   UNL     1       3.368   6.326  17.831  0.00  0.00    +0.000 C 
ATOM     18  O   UNL     1       4.541   6.678  17.753  0.00  0.00    +0.000 OA
ATOM     19  H   UNL     1       1.359   6.822  18.165  0.00  0.00    +0.000 HD
BRANCH  17  20
ATOM     20  C   UNL     1       3.059   4.872  17.818  0.00  0.00    +0.000 A 
ATOM     21  C   UNL     1       4.025   3.865  17.725  0.00  0.00    +0.000 A 
ATOM     22  C   UNL     1       3.628   2.525  17.756  0.00  0.00    +0.000 A 
ATOM     23  C   UNL     1       2.278   2.236  17.877  0.00  0.00    +0.000 A 
ATOM     24  N   UNL     1       1.320   3.183  17.966  0.00  0.00    +0.000 NA
ATOM     25  C   UNL     1       1.730   4.477  17.947  0.00  0.00    +0.000 A 
ENDBRANCH  17  20
ENDBRANCH  15  16
ENDBRANCH   4  14
TORSDOF 3
ENDMDL
