MODEL 1
REMARK VINA RESULT:      -7.4      0.000      0.000
REMARK  Name = 
REMARK  6 active torsions:
REMARK  status: ('A' for Active; 'I' for Inactive)
REMARK    1  A    between atoms: C_1  and  C_2
REMARK    2  A    between atoms: C_5  and  S_6
REMARK    3  A    between atoms: S_6  and  C_7
REMARK    4  A    between atoms: C_7  and  C_9
REMARK    5  A    between atoms: C_10  and  C_11
REMARK    6  A    between atoms: C_14  and  C_15
REMARK                            x       y       z     vdW  Elec       q    Type
REMARK                         _______ _______ _______ _____ _____    ______ ____
ROOT
ATOM      1  C   UNL     1       2.069   4.246  19.337  0.00  0.00    +0.000 A 
ATOM      2  C   UNL     1       2.146   3.339  20.438  0.00  0.00    +0.000 A 
ATOM      3  C   UNL     1       2.208   1.857  20.491  0.00  0.00    +0.000 C 
ATOM      4  N   UNL     1       2.210   3.995  21.604  0.00  0.00    +0.000 NA
ATOM      5  O   UNL     1       2.190   5.331  21.292  0.00  0.00    +0.000 OA
ATOM      6  C   UNL     1       2.102   5.495  19.943  0.00  0.00    +0.000 A 
ENDROOT
BRANCH   6   7
ATOM      7  C   UNL     1       2.033   6.888  19.508  0.00  0.00    +0.000 A 
ATOM      8  C   UNL     1       1.445   7.867  20.329  0.00  0.00    +0.000 A 
ATOM      9  C   UNL     1       1.379   9.204  19.921  0.00  0.00    +0.000 A 
ATOM     10  C   UNL     1       1.900   9.577  18.686  0.00  0.00    +0.000 A 
ATOM     11 CL   UNL     1       1.828  11.221  18.184  0.00  0.00    +0.000 Cl
ATOM     12  C   UNL     1       2.477   8.624  17.852  0.00  0.00    +0.000 A 
ATOM     13  C   UNL     1       2.535   7.286  18.260  0.00  0.00    +0.000 A 
ENDBRANCH   6   7
BRANCH   1  14
ATOM     14  C   UNL     1       2.029   4.039  17.904  0.00  0.00    +0.000 C 
ATOM     15  O   UNL     1       1.035   4.272  17.227  0.00  0.00    +0.000 OA
BRANCH  14  16
ATOM     16  S   UNL     1       3.437   3.261  17.198  0.00  0.00    +0.000 S 
BRANCH  16  21
ATOM     17  C   UNL     1       7.648   7.667  17.662  0.00  0.00    +0.000 C 
ATOM     18  C   UNL     1       6.649   6.555  17.534  0.00  0.00    +0.000 A 
ATOM     19  C   UNL     1       5.841   6.431  16.401  0.00  0.00    +0.000 A 
ATOM     20  C   UNL     1       4.890   5.407  16.317  0.00  0.00    +0.000 A 
ATOM     21  C   UNL     1       4.727   4.487  17.362  0.00  0.00    +0.000 A 
ATOM     22  C   UNL     1       5.536   4.619  18.494  0.00  0.00    +0.000 A 
ATOM     23  C   UNL     1       6.494   5.636  18.576  0.00  0.00    +0.000 A 
ENDBRANCH  16  21
ENDBRANCH  14  16
ENDBRANCH   1  14
TORSDOF 4
ENDMDL
MODEL 2
REMARK VINA RESULT:      -7.4      0.016      1.006
REMARK  Name = 
REMARK  6 active torsions:
REMARK  status: ('A' for Active; 'I' for Inactive)
REMARK    1  A    between atoms: C_1  and  C_2
REMARK    2  A    between atoms: C_5  and  S_6
REMARK    3  A    between atoms: S_6  and  C_7
REMARK    4  A    between atoms: C_7  and  C_9
REMARK    5  A    between atoms: C_10  and  C_11
REMARK    6  A    between atoms: C_14  and  C_15
REMARK                            x       y       z     vdW  Elec       q    Type
REMARK                         _______ _______ _______ _____ _____    ______ ____
ROOT
ATOM      1  C   UNL     1       2.068   4.240  19.335  0.00  0.00    +0.000 A 
ATOM      2  C   UNL     1       2.147   3.327  20.431  0.00  0.00    +0.000 A 
ATOM      3  C   UNL     1       2.212   1.846  20.477  0.00  0.00    +0.000 C 
ATOM      4  N   UNL     1       2.210   3.978  21.601  0.00  0.00    +0.000 NA
ATOM      5  O   UNL     1       2.187   5.316  21.295  0.00  0.00    +0.000 OA
ATOM      6  C   UNL     1       2.098   5.486  19.947  0.00  0.00    +0.000 A 
ENDROOT
BRANCH   6   7
ATOM      7  C   UNL     1       2.027   6.881  19.519  0.00  0.00    +0.000 A 
ATOM      8  C   UNL     1       2.547   7.275  18.272  0.00  0.00    +0.000 A 
ATOM      9  C   UNL     1       2.480   8.608  17.854  0.00  0.00    +0.000 A 
ATOM     10  C   UNL     1       1.893   9.564  18.677  0.00  0.00    +0.000 A 
ATOM     11 CL   UNL     1       1.800  11.202  18.162  0.00  0.00    +0.000 Cl
ATOM     12  C   UNL     1       1.382   9.199  19.919  0.00  0.00    +0.000 A 
ATOM     13  C   UNL     1       1.457   7.866  20.339  0.00  0.00    +0.000 A 
ENDBRANCH   6   7
BRANCH   1  14
ATOM     14  C   UNL     1       2.029   4.041  17.901  0.00  0.00    +0.000 C 
ATOM     15  O   UNL     1       1.036   4.280  17.225  0.00  0.00    +0.000 OA
BRANCH  14  16
ATOM     16  S   UNL     1       3.434   3.261  17.192  0.00  0.00    +0.000 S 
BRANCH  16  21
ATOM     17  C   UNL     1       7.657   7.656  17.669  0.00  0.00    +0.000 C 
ATOM     18  C   UNL     1       6.655   6.546  17.537  0.00  0.00    +0.000 A 
ATOM     19  C   UNL     1       5.857   6.419  16.398  0.00  0.00    +0.000 A 
ATOM     20  C   UNL     1       4.902   5.398  16.312  0.00  0.00    +0.000 A 
ATOM     21  C   UNL     1       4.727   4.484  17.360  0.00  0.00    +0.000 A 
ATOM     22  C   UNL     1       5.528   4.620  18.498  0.00  0.00    +0.000 A 
ATOM     23  C   UNL     1       6.488   5.633  18.583  0.00  0.00    +0.000 A 
ENDBRANCH  16  21
ENDBRANCH  14  16
ENDBRANCH   1  14
TORSDOF 4
ENDMDL
MODEL 3
REMARK VINA RESULT:      -7.4      0.137      1.011
REMARK  Name = 
REMARK  6 active torsions:
REMARK  status: ('A' for Active; 'I' for Inactive)
REMARK    1  A    between atoms: C_1  and  C_2
REMARK    2  A    between atoms: C_5  and  S_6
REMARK    3  A    between atoms: S_6  and  C_7
REMARK    4  A    between atoms: C_7  and  C_9
REMARK    5  A    between atoms: C_10  and  C_11
REMARK    6  A    between atoms: C_14  and  C_15
REMARK                            x       y       z     vdW  Elec       q    Type
REMARK                         _______ _______ _______ _____ _____    ______ ____
ROOT
ATOM      1  C   UNL     1       2.076   4.255  19.322  0.00  0.00    +0.000 A 
ATOM      2  C   UNL     1       2.163   3.326  20.403  0.00  0.00    +0.000 A 
ATOM      3  C   UNL     1       2.253   1.845  20.425  0.00  0.00    +0.000 C 
ATOM      4  N   UNL     1       2.206   3.957  21.584  0.00  0.00    +0.000 NA
ATOM      5  O   UNL     1       2.162   5.300  21.301  0.00  0.00    +0.000 OA
ATOM      6  C   UNL     1       2.080   5.492  19.955  0.00  0.00    +0.000 A 
ENDROOT
BRANCH   6   7
ATOM      7  C   UNL     1       1.988   6.892  19.550  0.00  0.00    +0.000 A 
ATOM      8  C   UNL     1       1.413   7.849  20.406  0.00  0.00    +0.000 A 
ATOM      9  C   UNL     1       1.324   9.192  20.026  0.00  0.00    +0.000 A 
ATOM     10  C   UNL     1       1.809   9.595  18.786  0.00  0.00    +0.000 A 
ATOM     11 CL   UNL     1       1.710  11.248  18.319  0.00  0.00    +0.000 Cl
ATOM     12  C   UNL     1       2.372   8.664  17.918  0.00  0.00    +0.000 A 
ATOM     13  C   UNL     1       2.453   7.319  18.297  0.00  0.00    +0.000 A 
ENDBRANCH   6   7
BRANCH   1  14
ATOM     14  C   UNL     1       2.051   4.079  17.885  0.00  0.00    +0.000 C 
ATOM     15  O   UNL     1       1.046   4.269  17.210  0.00  0.00    +0.000 OA
BRANCH  14  16
ATOM     16  S   UNL     1       3.502   3.401  17.165  0.00  0.00    +0.000 S 
BRANCH  16  21
ATOM     17  C   UNL     1       7.816   7.694  17.735  0.00  0.00    +0.000 C 
ATOM     18  C   UNL     1       6.725   6.672  17.613  0.00  0.00    +0.000 A 
ATOM     19  C   UNL     1       6.533   5.692  18.590  0.00  0.00    +0.000 A 
ATOM     20  C   UNL     1       5.532   4.725  18.438  0.00  0.00    +0.000 A 
ATOM     21  C   UNL     1       4.702   4.718  17.308  0.00  0.00    +0.000 A 
ATOM     22  C   UNL     1       4.901   5.699  16.333  0.00  0.00    +0.000 A 
ATOM     23  C   UNL     1       5.895   6.672  16.487  0.00  0.00    +0.000 A 
ENDBRANCH  16  21
ENDBRANCH  14  16
ENDBRANCH   1  14
TORSDOF 4
ENDMDL
MODEL 4
REMARK VINA RESULT:      -7.3      2.776      5.626
REMARK  Name = 
REMARK  6 active torsions:
REMARK  status: ('A' for Active; 'I' for Inactive)
REMARK    1  A    between atoms: C_1  and  C_2
REMARK    2  A    between atoms: C_5  and  S_6
REMARK    3  A    between atoms: S_6  and  C_7
REMARK    4  A    between atoms: C_7  and  C_9
REMARK    5  A    between atoms: C_10  and  C_11
REMARK    6  A    between atoms: C_14  and  C_15
REMARK                            x       y       z     vdW  Elec       q    Type
REMARK                         _______ _______ _______ _____ _____    ______ ____
ROOT
ATOM      1  C   UNL     1       3.362   4.186  18.882  0.00  0.00    +0.000 A 
ATOM      2  C   UNL     1       3.270   3.411  20.079  0.00  0.00    +0.000 A 
ATOM      3  C   UNL     1       2.216   3.327  21.119  0.00  0.00    +0.000 C 
ATOM      4  N   UNL     1       4.332   2.606  20.219  0.00  0.00    +0.000 NA
ATOM      5  O   UNL     1       5.126   2.827  19.121  0.00  0.00    +0.000 OA
ATOM      6  C   UNL     1       4.561   3.770  18.317  0.00  0.00    +0.000 A 
ENDROOT
BRANCH   6   7
ATOM      7  C   UNL     1       5.351   4.107  17.135  0.00  0.00    +0.000 A 
ATOM      8  C   UNL     1       6.655   4.617  17.267  0.00  0.00    +0.000 A 
ATOM      9  C   UNL     1       7.419   4.940  16.140  0.00  0.00    +0.000 A 
ATOM     10  C   UNL     1       6.888   4.755  14.868  0.00  0.00    +0.000 A 
ATOM     11 CL   UNL     1       7.827   5.141  13.479  0.00  0.00    +0.000 Cl
ATOM     12  C   UNL     1       5.596   4.261  14.713  0.00  0.00    +0.000 A 
ATOM     13  C   UNL     1       4.831   3.947  15.842  0.00  0.00    +0.000 A 
ENDBRANCH   6   7
BRANCH   1  14
ATOM     14  C   UNL     1       2.467   5.146  18.270  0.00  0.00    +0.000 C 
ATOM     15  O   UNL     1       1.367   4.839  17.828  0.00  0.00    +0.000 OA
BRANCH  14  16
ATOM     16  S   UNL     1       3.115   6.761  18.031  0.00  0.00    +0.000 S 
BRANCH  16  21
ATOM     17  C   UNL     1      -0.417  10.265  21.582  0.00  0.00    +0.000 C 
ATOM     18  C   UNL     1       0.489   9.425  20.731  0.00  0.00    +0.000 A 
ATOM     19  C   UNL     1       0.793   9.787  19.417  0.00  0.00    +0.000 A 
ATOM     20  C   UNL     1       1.612   8.970  18.627  0.00  0.00    +0.000 A 
ATOM     21  C   UNL     1       2.143   7.776  19.135  0.00  0.00    +0.000 A 
ATOM     22  C   UNL     1       1.832   7.419  20.450  0.00  0.00    +0.000 A 
ATOM     23  C   UNL     1       1.022   8.239  21.244  0.00  0.00    +0.000 A 
ENDBRANCH  16  21
ENDBRANCH  14  16
ENDBRANCH   1  14
TORSDOF 4
ENDMDL
MODEL 5
REMARK VINA RESULT:      -7.3      2.791      5.740
REMARK  Name = 
REMARK  6 active torsions:
REMARK  status: ('A' for Active; 'I' for Inactive)
REMARK    1  A    between atoms: C_1  and  C_2
REMARK    2  A    between atoms: C_5  and  S_6
REMARK    3  A    between atoms: S_6  and  C_7
REMARK    4  A    between atoms: C_7  and  C_9
REMARK    5  A    between atoms: C_10  and  C_11
REMARK    6  A    between atoms: C_14  and  C_15
REMARK                            x       y       z     vdW  Elec       q    Type
REMARK                         _______ _______ _______ _____ _____    ______ ____
ROOT
ATOM      1  C   UNL     1       3.359   4.383  18.822  0.00  0.00    +0.000 A 
ATOM      2  C   UNL     1       3.261   3.636  20.035  0.00  0.00    +0.000 A 
ATOM      3  C   UNL     1       2.210   3.588  21.082  0.00  0.00    +0.000 C 
ATOM      4  N   UNL     1       4.312   2.819  20.188  0.00  0.00    +0.000 NA
ATOM      5  O   UNL     1       5.105   3.005  19.083  0.00  0.00    +0.000 OA
ATOM      6  C   UNL     1       4.550   3.938  18.261  0.00  0.00    +0.000 A 
ENDROOT
BRANCH   6   7
ATOM      7  C   UNL     1       5.339   4.239  17.069  0.00  0.00    +0.000 A 
ATOM      8  C   UNL     1       6.636   4.773  17.185  0.00  0.00    +0.000 A 
ATOM      9  C   UNL     1       7.399   5.061  16.049  0.00  0.00    +0.000 A 
ATOM     10  C   UNL     1       6.875   4.818  14.783  0.00  0.00    +0.000 A 
ATOM     11 CL   UNL     1       7.814   5.161  13.383  0.00  0.00    +0.000 Cl
ATOM     12  C   UNL     1       5.591   4.299  14.644  0.00  0.00    +0.000 A 
ATOM     13  C   UNL     1       4.826   4.020  15.782  0.00  0.00    +0.000 A 
ENDBRANCH   6   7
BRANCH   1  14
ATOM     14  C   UNL     1       2.475   5.343  18.194  0.00  0.00    +0.000 C 
ATOM     15  O   UNL     1       1.398   5.030  17.701  0.00  0.00    +0.000 OA
BRANCH  14  16
ATOM     16  S   UNL     1       3.108   6.971  18.012  0.00  0.00    +0.000 S 
BRANCH  16  21
ATOM     17  C   UNL     1      -0.326  10.333  21.789  0.00  0.00    +0.000 C 
ATOM     18  C   UNL     1       0.476   9.487  20.845  0.00  0.00    +0.000 A 
ATOM     19  C   UNL     1       1.084   8.302  21.267  0.00  0.00    +0.000 A 
ATOM     20  C   UNL     1       1.859   7.547  20.379  0.00  0.00    +0.000 A 
ATOM     21  C   UNL     1       2.042   7.960  19.052  0.00  0.00    +0.000 A 
ATOM     22  C   UNL     1       1.433   9.147  18.637  0.00  0.00    +0.000 A 
ATOM     23  C   UNL     1       0.651   9.899  19.520  0.00  0.00    +0.000 A 
ENDBRANCH  16  21
ENDBRANCH  14  16
ENDBRANCH   1  14
TORSDOF 4
ENDMDL
MODEL 6
REMARK VINA RESULT:      -7.3      2.740      5.627
REMARK  Name = 
REMARK  6 active torsions:
REMARK  status: ('A' for Active; 'I' for Inactive)
REMARK    1  A    between atoms: C_1  and  C_2
REMARK    2  A    between atoms: C_5  and  S_6
REMARK    3  A    between atoms: S_6  and  C_7
REMARK    4  A    between atoms: C_7  and  C_9
REMARK    5  A    between atoms: C_10  and  C_11
REMARK    6  A    between atoms: C_14  and  C_15
REMARK                            x       y       z     vdW  Elec       q    Type
REMARK                         _______ _______ _______ _____ _____    ______ ____
ROOT
ATOM      1  C   UNL     1       3.274   4.253  18.962  0.00  0.00    +0.000 A 
ATOM      2  C   UNL     1       3.161   3.492  20.166  0.00  0.00    +0.000 A 
ATOM      3  C   UNL     1       2.093   3.426  21.194  0.00  0.00    +0.000 C 
ATOM      4  N   UNL     1       4.215   2.680  20.328  0.00  0.00    +0.000 NA
ATOM      5  O   UNL     1       5.025   2.883  19.239  0.00  0.00    +0.000 OA
ATOM      6  C   UNL     1       4.477   3.822  18.417  0.00  0.00    +0.000 A 
ENDROOT
BRANCH   6   7
ATOM      7  C   UNL     1       5.285   4.140  17.242  0.00  0.00    +0.000 A 
ATOM      8  C   UNL     1       4.749   4.007  15.948  0.00  0.00    +0.000 A 
ATOM      9  C   UNL     1       5.515   4.313  14.818  0.00  0.00    +0.000 A 
ATOM     10  C   UNL     1       6.825   4.755  14.968  0.00  0.00    +0.000 A 
ATOM     11 CL   UNL     1       7.767   5.141  13.582  0.00  0.00    +0.000 Cl
ATOM     12  C   UNL     1       7.380   4.884  16.239  0.00  0.00    +0.000 A 
ATOM     13  C   UNL     1       6.614   4.570  17.367  0.00  0.00    +0.000 A 
ENDBRANCH   6   7
BRANCH   1  14
ATOM     14  C   UNL     1       2.394   5.213  18.330  0.00  0.00    +0.000 C 
ATOM     15  O   UNL     1       1.292   4.913  17.889  0.00  0.00    +0.000 OA
BRANCH  14  16
ATOM     16  S   UNL     1       3.065   6.814  18.062  0.00  0.00    +0.000 S 
BRANCH  16  21
ATOM     17  C   UNL     1      -0.448  10.433  21.514  0.00  0.00    +0.000 C 
ATOM     18  C   UNL     1       0.454   9.566  20.686  0.00  0.00    +0.000 A 
ATOM     19  C   UNL     1       0.755   9.887  19.361  0.00  0.00    +0.000 A 
ATOM     20  C   UNL     1       1.569   9.043  18.594  0.00  0.00    +0.000 A 
ATOM     21  C   UNL     1       2.099   7.865  19.137  0.00  0.00    +0.000 A 
ATOM     22  C   UNL     1       1.791   7.549  20.463  0.00  0.00    +0.000 A 
ATOM     23  C   UNL     1       0.985   8.394  21.234  0.00  0.00    +0.000 A 
ENDBRANCH  16  21
ENDBRANCH  14  16
ENDBRANCH   1  14
TORSDOF 4
ENDMDL
MODEL 7
REMARK VINA RESULT:      -7.2      2.699      5.674
REMARK  Name = 
REMARK  6 active torsions:
REMARK  status: ('A' for Active; 'I' for Inactive)
REMARK    1  A    between atoms: C_1  and  C_2
REMARK    2  A    between atoms: C_5  and  S_6
REMARK    3  A    between atoms: S_6  and  C_7
REMARK    4  A    between atoms: C_7  and  C_9
REMARK    5  A    between atoms: C_10  and  C_11
REMARK    6  A    between atoms: C_14  and  C_15
REMARK                            x       y       z     vdW  Elec       q    Type
REMARK                         _______ _______ _______ _____ _____    ______ ____
ROOT
ATOM      1  C   UNL     1       3.289   4.068  19.319  0.00  0.00    +0.000 A 
ATOM      2  C   UNL     1       3.193   3.239  20.479  0.00  0.00    +0.000 A 
ATOM      3  C   UNL     1       2.156   3.139  21.536  0.00  0.00    +0.000 C 
ATOM      4  N   UNL     1       4.229   2.394  20.559  0.00  0.00    +0.000 NA
ATOM      5  O   UNL     1       5.010   2.641  19.458  0.00  0.00    +0.000 OA
ATOM      6  C   UNL     1       4.462   3.640  18.711  0.00  0.00    +0.000 A 
ENDROOT
BRANCH   6   7
ATOM      7  C   UNL     1       5.241   4.008  17.531  0.00  0.00    +0.000 A 
ATOM      8  C   UNL     1       4.704   3.848  16.241  0.00  0.00    +0.000 A 
ATOM      9  C   UNL     1       5.442   4.200  15.106  0.00  0.00    +0.000 A 
ATOM     10  C   UNL     1       6.726   4.717  15.248  0.00  0.00    +0.000 A 
ATOM     11 CL   UNL     1       7.634   5.160  13.856  0.00  0.00    +0.000 Cl
ATOM     12  C   UNL     1       7.282   4.874  16.515  0.00  0.00    +0.000 A 
ATOM     13  C   UNL     1       6.544   4.513  17.648  0.00  0.00    +0.000 A 
ENDBRANCH   6   7
BRANCH   1  14
ATOM     14  C   UNL     1       2.415   5.085  18.773  0.00  0.00    +0.000 C 
ATOM     15  O   UNL     1       1.263   4.855  18.429  0.00  0.00    +0.000 OA
BRANCH  14  16
ATOM     16  S   UNL     1       3.154   6.647  18.457  0.00  0.00    +0.000 S 
BRANCH  16  21
ATOM     17  C   UNL     1      -0.428  10.609  21.429  0.00  0.00    +0.000 C 
ATOM     18  C   UNL     1       0.411   9.616  20.680  0.00  0.00    +0.000 A 
ATOM     19  C   UNL     1       0.888   8.457  21.295  0.00  0.00    +0.000 A 
ATOM     20  C   UNL     1       1.701   7.561  20.589  0.00  0.00    +0.000 A 
ATOM     21  C   UNL     1       2.052   7.807  19.254  0.00  0.00    +0.000 A 
ATOM     22  C   UNL     1       1.575   8.971  18.646  0.00  0.00    +0.000 A 
ATOM     23  C   UNL     1       0.755   9.862  19.347  0.00  0.00    +0.000 A 
ENDBRANCH  16  21
ENDBRANCH  14  16
ENDBRANCH   1  14
TORSDOF 4
ENDMDL
MODEL 8
REMARK VINA RESULT:      -6.8      2.677      5.140
REMARK  Name = 
REMARK  6 active torsions:
REMARK  status: ('A' for Active; 'I' for Inactive)
REMARK    1  A    between atoms: C_1  and  C_2
REMARK    2  A    between atoms: C_5  and  S_6
REMARK    3  A    between atoms: S_6  and  C_7
REMARK    4  A    between atoms: C_7  and  C_9
REMARK    5  A    between atoms: C_10  and  C_11
REMARK    6  A    between atoms: C_14  and  C_15
REMARK                            x       y       z     vdW  Elec       q    Type
REMARK                         _______ _______ _______ _____ _____    ______ ____
ROOT
ATOM      1  C   UNL     1       5.149   5.311  16.801  0.00  0.00    +0.000 A 
ATOM      2  C   UNL     1       5.750   5.575  15.533  0.00  0.00    +0.000 A 
ATOM      3  C   UNL     1       6.698   4.785  14.708  0.00  0.00    +0.000 C 
ATOM      4  N   UNL     1       5.317   6.736  15.022  0.00  0.00    +0.000 NA
ATOM      5  O   UNL     1       4.424   7.244  15.932  0.00  0.00    +0.000 OA
ATOM      6  C   UNL     1       4.316   6.406  17.000  0.00  0.00    +0.000 A 
ENDROOT
BRANCH   6   7
ATOM      7  C   UNL     1       3.415   6.877  18.048  0.00  0.00    +0.000 A 
ATOM      8  C   UNL     1       2.736   8.102  17.912  0.00  0.00    +0.000 A 
ATOM      9  C   UNL     1       1.869   8.558  18.910  0.00  0.00    +0.000 A 
ATOM     10  C   UNL     1       1.669   7.796  20.057  0.00  0.00    +0.000 A 
ATOM     11 CL   UNL     1       0.597   8.349  21.282  0.00  0.00    +0.000 Cl
ATOM     12  C   UNL     1       2.339   6.586  20.218  0.00  0.00    +0.000 A 
ATOM     13  C   UNL     1       3.212   6.135  19.221  0.00  0.00    +0.000 A 
ENDBRANCH   6   7
BRANCH   1  14
ATOM     14  C   UNL     1       5.250   4.192  17.714  0.00  0.00    +0.000 C 
ATOM     15  O   UNL     1       6.085   4.138  18.608  0.00  0.00    +0.000 OA
BRANCH  14  16
ATOM     16  S   UNL     1       4.216   2.816  17.364  0.00  0.00    +0.000 S 
BRANCH  16  21
ATOM     17  C   UNL     1       0.929   2.499  22.507  0.00  0.00    +0.000 C 
ATOM     18  C   UNL     1       1.728   2.529  21.238  0.00  0.00    +0.000 A 
ATOM     19  C   UNL     1       3.123   2.457  21.255  0.00  0.00    +0.000 A 
ATOM     20  C   UNL     1       3.851   2.524  20.061  0.00  0.00    +0.000 A 
ATOM     21  C   UNL     1       3.201   2.663  18.827  0.00  0.00    +0.000 A 
ATOM     22  C   UNL     1       1.806   2.738  18.818  0.00  0.00    +0.000 A 
ATOM     23  C   UNL     1       1.075   2.661  20.009  0.00  0.00    +0.000 A 
ENDBRANCH  16  21
ENDBRANCH  14  16
ENDBRANCH   1  14
TORSDOF 4
ENDMDL
MODEL 9
REMARK VINA RESULT:      -6.8      2.156      3.196
REMARK  Name = 
REMARK  6 active torsions:
REMARK  status: ('A' for Active; 'I' for Inactive)
REMARK    1  A    between atoms: C_1  and  C_2
REMARK    2  A    between atoms: C_5  and  S_6
REMARK    3  A    between atoms: S_6  and  C_7
REMARK    4  A    between atoms: C_7  and  C_9
REMARK    5  A    between atoms: C_10  and  C_11
REMARK    6  A    between atoms: C_14  and  C_15
REMARK                            x       y       z     vdW  Elec       q    Type
REMARK                         _______ _______ _______ _____ _____    ______ ____
ROOT
ATOM      1  C   UNL     1       3.567   4.189  18.601  0.00  0.00    +0.000 A 
ATOM      2  C   UNL     1       3.097   2.957  18.052  0.00  0.00    +0.000 A 
ATOM      3  C   UNL     1       3.749   1.633  17.900  0.00  0.00    +0.000 C 
ATOM      4  N   UNL     1       1.822   3.058  17.654  0.00  0.00    +0.000 NA
ATOM      5  O   UNL     1       1.432   4.342  17.943  0.00  0.00    +0.000 OA
ATOM      6  C   UNL     1       2.465   5.029  18.505  0.00  0.00    +0.000 A 
ENDROOT
BRANCH   6   7
ATOM      7  C   UNL     1       2.164   6.424  18.816  0.00  0.00    +0.000 A 
ATOM      8  C   UNL     1       2.186   7.404  17.807  0.00  0.00    +0.000 A 
ATOM      9  C   UNL     1       1.896   8.741  18.096  0.00  0.00    +0.000 A 
ATOM     10  C   UNL     1       1.580   9.116  19.398  0.00  0.00    +0.000 A 
ATOM     11 CL   UNL     1       1.213  10.757  19.757  0.00  0.00    +0.000 Cl
ATOM     12  C   UNL     1       1.562   8.165  20.415  0.00  0.00    +0.000 A 
ATOM     13  C   UNL     1       1.861   6.829  20.125  0.00  0.00    +0.000 A 
ENDBRANCH   6   7
BRANCH   1  14
ATOM     14  C   UNL     1       4.830   4.571  19.198  0.00  0.00    +0.000 C 
ATOM     15  O   UNL     1       5.224   4.117  20.265  0.00  0.00    +0.000 OA
BRANCH  14  16
ATOM     16  S   UNL     1       5.700   5.869  18.397  0.00  0.00    +0.000 S 
BRANCH  16  21
ATOM     17  C   UNL     1       6.057   3.681  12.700  0.00  0.00    +0.000 C 
ATOM     18  C   UNL     1       6.008   4.247  14.089  0.00  0.00    +0.000 A 
ATOM     19  C   UNL     1       6.591   3.578  15.167  0.00  0.00    +0.000 A 
ATOM     20  C   UNL     1       6.501   4.106  16.461  0.00  0.00    +0.000 A 
ATOM     21  C   UNL     1       5.828   5.312  16.703  0.00  0.00    +0.000 A 
ATOM     22  C   UNL     1       5.245   5.974  15.619  0.00  0.00    +0.000 A 
ATOM     23  C   UNL     1       5.341   5.453  14.324  0.00  0.00    +0.000 A 
ENDBRANCH  16  21
ENDBRANCH  14  16
ENDBRANCH   1  14
TORSDOF 4
ENDMDL
