MODEL 1
REMARK VINA RESULT:      -8.6      0.000      0.000
REMARK  Name = 
REMARK  6 active torsions:
REMARK  status: ('A' for Active; 'I' for Inactive)
REMARK    1  A    between atoms: C_2  and  C_3
REMARK    2  A    between atoms: C_6  and  C_7
REMARK    3  A    between atoms: C_11  and  C_12
REMARK    4  A    between atoms: C_12  and  O_13
REMARK    5  A    between atoms: O_13  and  C_14
REMARK    6  A    between atoms: C_19  and  N_20
REMARK                            x       y       z     vdW  Elec       q    Type
REMARK                         _______ _______ _______ _____ _____    ______ ____
ROOT
ATOM      1  C   UNL     1       1.207   8.869  19.907  0.00  0.00    +0.000 A 
ATOM      2  C   UNL     1       1.491   9.268  18.594  0.00  0.00    +0.000 A 
ATOM      3  C   UNL     1       2.285   8.462  17.791  0.00  0.00    +0.000 A 
ATOM      4  N   UNL     1       2.821   7.295  18.197  0.00  0.00    +0.000 NA
ATOM      5  C   UNL     1       2.577   6.910  19.471  0.00  0.00    +0.000 A 
ATOM      6  C   UNL     1       1.776   7.661  20.337  0.00  0.00    +0.000 A 
ENDROOT
BRANCH   1  10
ATOM      7  C   UNL     1      -1.387  11.198  22.478  0.00  0.00    +0.000 A 
ATOM      8  C   UNL     1      -1.152  11.598  21.160  0.00  0.00    +0.000 A 
ATOM      9  C   UNL     1      -0.310  10.840  20.334  0.00  0.00    +0.000 A 
ATOM     10  C   UNL     1       0.328   9.674  20.796  0.00  0.00    +0.000 A 
ATOM     11  C   UNL     1       0.085   9.301  22.133  0.00  0.00    +0.000 A 
ATOM     12  C   UNL     1      -0.767  10.046  22.961  0.00  0.00    +0.000 A 
BRANCH   7  14
ATOM     13  N   UNL     1      -2.973  12.578  23.998  0.00  0.00    +0.000 NA
ATOM     14  C   UNL     1      -2.265  11.959  23.318  0.00  0.00    +0.000 C 
ENDBRANCH   7  14
ENDBRANCH   1  10
BRANCH   5  15
ATOM     15  C   UNL     1       3.181   5.603  19.931  0.00  0.00    +0.000 C 
BRANCH  15  16
ATOM     16  O   UNL     1       2.943   4.584  18.951  0.00  0.00    +0.000 OA
BRANCH  16  17
ATOM     17  C   UNL     1       4.127   3.888  18.522  0.00  0.00    +0.000 C 
ATOM     18  C   UNL     1       5.379   4.608  19.060  0.00  0.00    +0.000 C 
ATOM     19  O   UNL     1       6.563   4.528  18.281  0.00  0.00    +0.000 OA
ATOM     20  C   UNL     1       6.393   4.635  16.974  0.00  0.00    +0.000 A 
ATOM     21  N   UNL     1       7.336   4.996  16.140  0.00  0.00    +0.000 NA
ATOM     22  C   UNL     1       6.791   4.783  14.888  0.00  0.00    +0.000 A 
ATOM     23  C   UNL     1       5.504   4.284  14.984  0.00  0.00    +0.000 A 
ATOM     24  N   UNL     1       5.259   4.247  16.326  0.00  0.00    +0.000 N 
ATOM     25  C   UNL     1       4.071   3.775  16.991  0.00  0.00    +0.000 C 
BRANCH  22  26
ATOM     26  N   UNL     1       7.556   5.026  13.685  0.00  0.00    +0.000 N 
ATOM     27  O   UNL     1       7.186   4.429  12.663  0.00  0.00    +0.000 OA
ATOM     28  O   UNL     1       8.515   5.805  13.757  0.00  0.00    +0.000 OA
ENDBRANCH  22  26
ENDBRANCH  16  17
ENDBRANCH  15  16
ENDBRANCH   5  15
TORSDOF 6
ENDMDL
MODEL 2
REMARK VINA RESULT:      -8.6      0.317      1.120
REMARK  Name = 
REMARK  6 active torsions:
REMARK  status: ('A' for Active; 'I' for Inactive)
REMARK    1  A    between atoms: C_2  and  C_3
REMARK    2  A    between atoms: C_6  and  C_7
REMARK    3  A    between atoms: C_11  and  C_12
REMARK    4  A    between atoms: C_12  and  O_13
REMARK    5  A    between atoms: O_13  and  C_14
REMARK    6  A    between atoms: C_19  and  N_20
REMARK                            x       y       z     vdW  Elec       q    Type
REMARK                         _______ _______ _______ _____ _____    ______ ____
ROOT
ATOM      1  C   UNL     1       1.444   8.720  19.709  0.00  0.00    +0.000 A 
ATOM      2  C   UNL     1       1.772   9.080  18.395  0.00  0.00    +0.000 A 
ATOM      3  C   UNL     1       2.581   8.244  17.639  0.00  0.00    +0.000 A 
ATOM      4  N   UNL     1       3.092   7.084  18.093  0.00  0.00    +0.000 NA
ATOM      5  C   UNL     1       2.805   6.736  19.369  0.00  0.00    +0.000 A 
ATOM      6  C   UNL     1       1.986   7.519  20.189  0.00  0.00    +0.000 A 
ENDROOT
BRANCH   1  10
ATOM      7  C   UNL     1      -1.135  11.184  22.168  0.00  0.00    +0.000 A 
ATOM      8  C   UNL     1      -0.360  10.174  22.744  0.00  0.00    +0.000 A 
ATOM      9  C   UNL     1       0.471   9.379  21.942  0.00  0.00    +0.000 A 
ATOM     10  C   UNL     1       0.547   9.559  20.548  0.00  0.00    +0.000 A 
ATOM     11  C   UNL     1      -0.255  10.573  19.991  0.00  0.00    +0.000 A 
ATOM     12  C   UNL     1      -1.078  11.382  20.788  0.00  0.00    +0.000 A 
BRANCH   7  14
ATOM     13  N   UNL     1      -2.642  12.683  23.654  0.00  0.00    +0.000 NA
ATOM     14  C   UNL     1      -1.969  12.012  22.988  0.00  0.00    +0.000 C 
ENDBRANCH   7  14
ENDBRANCH   1  10
BRANCH   5  15
ATOM     15  C   UNL     1       3.381   5.437  19.884  0.00  0.00    +0.000 C 
BRANCH  15  16
ATOM     16  O   UNL     1       3.112   4.382  18.952  0.00  0.00    +0.000 OA
BRANCH  16  17
ATOM     17  C   UNL     1       4.287   3.707  18.465  0.00  0.00    +0.000 C 
ATOM     18  C   UNL     1       5.549   4.427  18.977  0.00  0.00    +0.000 C 
ATOM     19  O   UNL     1       6.707   4.377  18.157  0.00  0.00    +0.000 OA
ATOM     20  C   UNL     1       6.492   4.513  16.860  0.00  0.00    +0.000 A 
ATOM     21  N   UNL     1       7.402   4.904  16.003  0.00  0.00    +0.000 NA
ATOM     22  C   UNL     1       6.815   4.716  14.766  0.00  0.00    +0.000 A 
ATOM     23  C   UNL     1       5.537   4.202  14.893  0.00  0.00    +0.000 A 
ATOM     24  N   UNL     1       5.339   4.130  16.242  0.00  0.00    +0.000 N 
ATOM     25  C   UNL     1       4.179   3.631  16.935  0.00  0.00    +0.000 C 
BRANCH  22  26
ATOM     26  N   UNL     1       7.536   4.995  13.544  0.00  0.00    +0.000 N 
ATOM     27  O   UNL     1       8.482   5.792  13.628  0.00  0.00    +0.000 OA
ATOM     28  O   UNL     1       7.165   4.424  12.509  0.00  0.00    +0.000 OA
ENDBRANCH  22  26
ENDBRANCH  16  17
ENDBRANCH  15  16
ENDBRANCH   5  15
TORSDOF 6
ENDMDL
MODEL 3
REMARK VINA RESULT:      -8.1      0.890      1.173
REMARK  Name = 
REMARK  6 active torsions:
REMARK  status: ('A' for Active; 'I' for Inactive)
REMARK    1  A    between atoms: C_2  and  C_3
REMARK    2  A    between atoms: C_6  and  C_7
REMARK    3  A    between atoms: C_11  and  C_12
REMARK    4  A    between atoms: C_12  and  O_13
REMARK    5  A    between atoms: O_13  and  C_14
REMARK    6  A    between atoms: C_19  and  N_20
REMARK                            x       y       z     vdW  Elec       q    Type
REMARK                         _______ _______ _______ _____ _____    ______ ____
ROOT
ATOM      1  C   UNL     1       1.835   8.346  19.341  0.00  0.00    +0.000 A 
ATOM      2  C   UNL     1       2.415   8.913  18.198  0.00  0.00    +0.000 A 
ATOM      3  C   UNL     1       3.163   8.116  17.344  0.00  0.00    +0.000 A 
ATOM      4  N   UNL     1       3.380   6.802  17.543  0.00  0.00    +0.000 NA
ATOM      5  C   UNL     1       2.848   6.246  18.656  0.00  0.00    +0.000 A 
ATOM      6  C   UNL     1       2.072   6.981  19.558  0.00  0.00    +0.000 A 
ENDROOT
BRANCH   1  10
ATOM      7  C   UNL     1      -0.659  10.652  22.029  0.00  0.00    +0.000 A 
ATOM      8  C   UNL     1      -0.667  10.914  20.657  0.00  0.00    +0.000 A 
ATOM      9  C   UNL     1       0.144  10.165  19.792  0.00  0.00    +0.000 A 
ATOM     10  C   UNL     1       0.990   9.146  20.268  0.00  0.00    +0.000 A 
ATOM     11  C   UNL     1       0.989   8.912  21.657  0.00  0.00    +0.000 A 
ATOM     12  C   UNL     1       0.170   9.647  22.526  0.00  0.00    +0.000 A 
BRANCH   7  14
ATOM     13  N   UNL     1      -2.190  12.007  23.625  0.00  0.00    +0.000 NA
ATOM     14  C   UNL     1      -1.504  11.402  22.912  0.00  0.00    +0.000 C 
ENDBRANCH   7  14
ENDBRANCH   1  10
BRANCH   5  15
ATOM     15  C   UNL     1       3.095   4.772  18.885  0.00  0.00    +0.000 C 
BRANCH  15  16
ATOM     16  O   UNL     1       4.151   4.598  19.838  0.00  0.00    +0.000 OA
BRANCH  16  17
ATOM     17  C   UNL     1       5.406   4.192  19.262  0.00  0.00    +0.000 C 
ATOM     18  C   UNL     1       6.396   5.373  19.287  0.00  0.00    +0.000 C 
ATOM     19  O   UNL     1       7.370   5.429  18.255  0.00  0.00    +0.000 OA
ATOM     20  C   UNL     1       6.940   5.105  17.048  0.00  0.00    +0.000 A 
ATOM     21  N   UNL     1       7.525   5.477  15.937  0.00  0.00    +0.000 NA
ATOM     22  C   UNL     1       6.873   4.766  14.948  0.00  0.00    +0.000 A 
ATOM     23  C   UNL     1       5.887   3.956  15.483  0.00  0.00    +0.000 A 
ATOM     24  N   UNL     1       5.919   4.231  16.820  0.00  0.00    +0.000 N 
ATOM     25  C   UNL     1       5.117   3.638  17.859  0.00  0.00    +0.000 C 
BRANCH  22  26
ATOM     26  N   UNL     1       7.270   4.872  13.561  0.00  0.00    +0.000 N 
ATOM     27  O   UNL     1       8.112   5.742  13.291  0.00  0.00    +0.000 OA
ATOM     28  O   UNL     1       6.750   4.096  12.749  0.00  0.00    +0.000 OA
ENDBRANCH  22  26
ENDBRANCH  16  17
ENDBRANCH  15  16
ENDBRANCH   5  15
TORSDOF 6
ENDMDL
MODEL 4
REMARK VINA RESULT:      -8.0      1.328      1.910
REMARK  Name = 
REMARK  6 active torsions:
REMARK  status: ('A' for Active; 'I' for Inactive)
REMARK    1  A    between atoms: C_2  and  C_3
REMARK    2  A    between atoms: C_6  and  C_7
REMARK    3  A    between atoms: C_11  and  C_12
REMARK    4  A    between atoms: C_12  and  O_13
REMARK    5  A    between atoms: O_13  and  C_14
REMARK    6  A    between atoms: C_19  and  N_20
REMARK                            x       y       z     vdW  Elec       q    Type
REMARK                         _______ _______ _______ _____ _____    ______ ____
ROOT
ATOM      1  C   UNL     1       1.945   8.266  19.284  0.00  0.00    +0.000 A 
ATOM      2  C   UNL     1       2.120   8.654  17.950  0.00  0.00    +0.000 A 
ATOM      3  C   UNL     1       2.938   7.900  17.120  0.00  0.00    +0.000 A 
ATOM      4  N   UNL     1       3.595   6.795  17.519  0.00  0.00    +0.000 NA
ATOM      5  C   UNL     1       3.456   6.423  18.812  0.00  0.00    +0.000 A 
ATOM      6  C   UNL     1       2.641   7.123  19.707  0.00  0.00    +0.000 A 
ENDROOT
BRANCH   1  10
ATOM      7  C   UNL     1      -0.633  10.467  21.982  0.00  0.00    +0.000 A 
ATOM      8  C   UNL     1       0.172   9.431  22.460  0.00  0.00    +0.000 A 
ATOM      9  C   UNL     1       1.003   8.721  21.581  0.00  0.00    +0.000 A 
ATOM     10  C   UNL     1       1.048   9.014  20.206  0.00  0.00    +0.000 A 
ATOM     11  C   UNL     1       0.216  10.054  19.747  0.00  0.00    +0.000 A 
ATOM     12  C   UNL     1      -0.607  10.777  20.622  0.00  0.00    +0.000 A 
BRANCH   7  14
ATOM     13  N   UNL     1      -2.142  11.810  23.608  0.00  0.00    +0.000 NA
ATOM     14  C   UNL     1      -1.467  11.208  22.882  0.00  0.00    +0.000 C 
ENDBRANCH   7  14
ENDBRANCH   1  10
BRANCH   5  15
ATOM     15  C   UNL     1       4.198   5.185  19.265  0.00  0.00    +0.000 C 
BRANCH  15  16
ATOM     16  O   UNL     1       5.515   5.541  19.704  0.00  0.00    +0.000 OA
BRANCH  16  17
ATOM     17  C   UNL     1       6.563   5.179  18.786  0.00  0.00    +0.000 C 
ATOM     18  C   UNL     1       7.060   6.434  18.043  0.00  0.00    +0.000 C 
ATOM     19  O   UNL     1       7.554   6.258  16.723  0.00  0.00    +0.000 OA
ATOM     20  C   UNL     1       6.874   5.412  15.969  0.00  0.00    +0.000 A 
ATOM     21  N   UNL     1       6.895   5.419  14.659  0.00  0.00    +0.000 NA
ATOM     22  C   UNL     1       6.219   4.269  14.297  0.00  0.00    +0.000 A 
ATOM     23  C   UNL     1       5.793   3.569  15.412  0.00  0.00    +0.000 A 
ATOM     24  N   UNL     1       6.181   4.348  16.464  0.00  0.00    +0.000 N 
ATOM     25  C   UNL     1       6.016   4.075  17.869  0.00  0.00    +0.000 C 
BRANCH  22  26
ATOM     26  N   UNL     1       6.069   3.893  12.909  0.00  0.00    +0.000 N 
ATOM     27  O   UNL     1       4.947   3.495  12.561  0.00  0.00    +0.000 OA
ATOM     28  O   UNL     1       7.058   3.994  12.171  0.00  0.00    +0.000 OA
ENDBRANCH  22  26
ENDBRANCH  16  17
ENDBRANCH  15  16
ENDBRANCH   5  15
TORSDOF 6
ENDMDL
MODEL 5
REMARK VINA RESULT:      -7.9      2.328      3.385
REMARK  Name = 
REMARK  6 active torsions:
REMARK  status: ('A' for Active; 'I' for Inactive)
REMARK    1  A    between atoms: C_2  and  C_3
REMARK    2  A    between atoms: C_6  and  C_7
REMARK    3  A    between atoms: C_11  and  C_12
REMARK    4  A    between atoms: C_12  and  O_13
REMARK    5  A    between atoms: O_13  and  C_14
REMARK    6  A    between atoms: C_19  and  N_20
REMARK                            x       y       z     vdW  Elec       q    Type
REMARK                         _______ _______ _______ _____ _____    ______ ____
ROOT
ATOM      1  C   UNL     1       2.175   6.713  19.908  0.00  0.00    +0.000 A 
ATOM      2  C   UNL     1       1.379   5.873  20.698  0.00  0.00    +0.000 A 
ATOM      3  C   UNL     1       1.825   4.594  21.000  0.00  0.00    +0.000 A 
ATOM      4  N   UNL     1       2.997   4.088  20.573  0.00  0.00    +0.000 NA
ATOM      5  C   UNL     1       3.764   4.878  19.787  0.00  0.00    +0.000 A 
ATOM      6  C   UNL     1       3.390   6.183  19.449  0.00  0.00    +0.000 A 
ENDROOT
BRANCH   1  10
ATOM      7  C   UNL     1       1.011  10.786  19.002  0.00  0.00    +0.000 A 
ATOM      8  C   UNL     1       0.687  10.215  20.234  0.00  0.00    +0.000 A 
ATOM      9  C   UNL     1       1.065   8.895  20.521  0.00  0.00    +0.000 A 
ATOM     10  C   UNL     1       1.765   8.106  19.589  0.00  0.00    +0.000 A 
ATOM     11  C   UNL     1       2.066   8.701  18.348  0.00  0.00    +0.000 A 
ATOM     12  C   UNL     1       1.704  10.025  18.060  0.00  0.00    +0.000 A 
BRANCH   7  14
ATOM     13  N   UNL     1       0.351  13.240  18.482  0.00  0.00    +0.000 NA
ATOM     14  C   UNL     1       0.645  12.142  18.715  0.00  0.00    +0.000 C 
ENDBRANCH   7  14
ENDBRANCH   1  10
BRANCH   5  15
ATOM     15  C   UNL     1       5.079   4.311  19.301  0.00  0.00    +0.000 C 
BRANCH  15  16
ATOM     16  O   UNL     1       6.103   5.309  19.394  0.00  0.00    +0.000 OA
BRANCH  16  17
ATOM     17  C   UNL     1       7.086   5.248  18.343  0.00  0.00    +0.000 C 
ATOM     18  C   UNL     1       7.108   6.583  17.574  0.00  0.00    +0.000 C 
ATOM     19  O   UNL     1       7.460   6.538  16.199  0.00  0.00    +0.000 OA
ATOM     20  C   UNL     1       6.958   5.524  15.516  0.00  0.00    +0.000 A 
ATOM     21  N   UNL     1       6.810   5.520  14.214  0.00  0.00    +0.000 NA
ATOM     22  C   UNL     1       6.448   4.221  13.912  0.00  0.00    +0.000 A 
ATOM     23  C   UNL     1       6.382   3.443  15.055  0.00  0.00    +0.000 A 
ATOM     24  N   UNL     1       6.664   4.314  16.068  0.00  0.00    +0.000 N 
ATOM     25  C   UNL     1       6.763   4.023  17.475  0.00  0.00    +0.000 C 
BRANCH  22  26
ATOM     26  N   UNL     1       6.235   3.800  12.545  0.00  0.00    +0.000 N 
ATOM     27  O   UNL     1       7.241   3.737  11.822  0.00  0.00    +0.000 OA
ATOM     28  O   UNL     1       5.078   3.533  12.195  0.00  0.00    +0.000 OA
ENDBRANCH  22  26
ENDBRANCH  16  17
ENDBRANCH  15  16
ENDBRANCH   5  15
TORSDOF 6
ENDMDL
MODEL 6
REMARK VINA RESULT:      -7.7      2.351      3.336
REMARK  Name = 
REMARK  6 active torsions:
REMARK  status: ('A' for Active; 'I' for Inactive)
REMARK    1  A    between atoms: C_2  and  C_3
REMARK    2  A    between atoms: C_6  and  C_7
REMARK    3  A    between atoms: C_11  and  C_12
REMARK    4  A    between atoms: C_12  and  O_13
REMARK    5  A    between atoms: O_13  and  C_14
REMARK    6  A    between atoms: C_19  and  N_20
REMARK                            x       y       z     vdW  Elec       q    Type
REMARK                         _______ _______ _______ _____ _____    ______ ____
ROOT
ATOM      1  C   UNL     1       2.242   6.350  19.995  0.00  0.00    +0.000 A 
ATOM      2  C   UNL     1       1.474   5.421  20.710  0.00  0.00    +0.000 A 
ATOM      3  C   UNL     1       1.975   4.147  20.933  0.00  0.00    +0.000 A 
ATOM      4  N   UNL     1       3.177   3.727  20.496  0.00  0.00    +0.000 NA
ATOM      5  C   UNL     1       3.919   4.604  19.782  0.00  0.00    +0.000 A 
ATOM      6  C   UNL     1       3.489   5.909  19.525  0.00  0.00    +0.000 A 
ENDROOT
BRANCH   1  10
ATOM      7  C   UNL     1       0.837  10.387  19.293  0.00  0.00    +0.000 A 
ATOM      8  C   UNL     1       1.504   9.685  18.287  0.00  0.00    +0.000 A 
ATOM      9  C   UNL     1       1.958   8.379  18.521  0.00  0.00    +0.000 A 
ATOM     10  C   UNL     1       1.771   7.741  19.762  0.00  0.00    +0.000 A 
ATOM     11  C   UNL     1       1.108   8.476  20.763  0.00  0.00    +0.000 A 
ATOM     12  C   UNL     1       0.639   9.778  20.532  0.00  0.00    +0.000 A 
BRANCH   7  14
ATOM     13  N   UNL     1      -0.041  12.787  18.853  0.00  0.00    +0.000 NA
ATOM     14  C   UNL     1       0.354  11.714  19.049  0.00  0.00    +0.000 C 
ENDBRANCH   7  14
ENDBRANCH   1  10
BRANCH   5  15
ATOM     15  C   UNL     1       5.267   4.133  19.284  0.00  0.00    +0.000 C 
BRANCH  15  16
ATOM     16  O   UNL     1       6.240   5.170  19.463  0.00  0.00    +0.000 OA
BRANCH  16  17
ATOM     17  C   UNL     1       6.864   5.612  18.243  0.00  0.00    +0.000 C 
ATOM     18  C   UNL     1       5.996   6.697  17.578  0.00  0.00    +0.000 C 
ATOM     19  O   UNL     1       6.036   6.788  16.162  0.00  0.00    +0.000 OA
ATOM     20  C   UNL     1       6.052   5.634  15.517  0.00  0.00    +0.000 A 
ATOM     21  N   UNL     1       5.680   5.486  14.270  0.00  0.00    +0.000 NA
ATOM     22  C   UNL     1       6.042   4.191  13.953  0.00  0.00    +0.000 A 
ATOM     23  C   UNL     1       6.642   3.563  15.030  0.00  0.00    +0.000 A 
ATOM     24  N   UNL     1       6.589   4.492  16.030  0.00  0.00    +0.000 N 
ATOM     25  C   UNL     1       7.107   4.372  17.369  0.00  0.00    +0.000 C 
BRANCH  22  26
ATOM     26  N   UNL     1       5.833   3.657  12.626  0.00  0.00    +0.000 N 
ATOM     27  O   UNL     1       4.668   3.670  12.200  0.00  0.00    +0.000 OA
ATOM     28  O   UNL     1       6.819   3.230  12.011  0.00  0.00    +0.000 OA
ENDBRANCH  22  26
ENDBRANCH  16  17
ENDBRANCH  15  16
ENDBRANCH   5  15
TORSDOF 6
ENDMDL
MODEL 7
REMARK VINA RESULT:      -7.7      2.234      3.307
REMARK  Name = 
REMARK  6 active torsions:
REMARK  status: ('A' for Active; 'I' for Inactive)
REMARK    1  A    between atoms: C_2  and  C_3
REMARK    2  A    between atoms: C_6  and  C_7
REMARK    3  A    between atoms: C_11  and  C_12
REMARK    4  A    between atoms: C_12  and  O_13
REMARK    5  A    between atoms: O_13  and  C_14
REMARK    6  A    between atoms: C_19  and  N_20
REMARK                            x       y       z     vdW  Elec       q    Type
REMARK                         _______ _______ _______ _____ _____    ______ ____
ROOT
ATOM      1  C   UNL     1       2.489   6.571  18.704  0.00  0.00    +0.000 A 
ATOM      2  C   UNL     1       1.769   5.622  17.966  0.00  0.00    +0.000 A 
ATOM      3  C   UNL     1       2.276   4.338  17.826  0.00  0.00    +0.000 A 
ATOM      4  N   UNL     1       3.444   3.930  18.357  0.00  0.00    +0.000 NA
ATOM      5  C   UNL     1       4.163   4.843  19.050  0.00  0.00    +0.000 A 
ATOM      6  C   UNL     1       3.714   6.153  19.246  0.00  0.00    +0.000 A 
ENDROOT
BRANCH   1  10
ATOM      7  C   UNL     1       1.021  10.594  19.356  0.00  0.00    +0.000 A 
ATOM      8  C   UNL     1       1.032   9.667  20.400  0.00  0.00    +0.000 A 
ATOM      9  C   UNL     1       1.506   8.365  20.182  0.00  0.00    +0.000 A 
ATOM     10  C   UNL     1       1.972   7.949  18.921  0.00  0.00    +0.000 A 
ATOM     11  C   UNL     1       1.938   8.899  17.882  0.00  0.00    +0.000 A 
ATOM     12  C   UNL     1       1.478  10.207  18.096  0.00  0.00    +0.000 A 
BRANCH   7  14
ATOM     13  N   UNL     1       0.177  13.012  19.766  0.00  0.00    +0.000 NA
ATOM     14  C   UNL     1       0.556  11.931  19.581  0.00  0.00    +0.000 C 
ENDBRANCH   7  14
ENDBRANCH   1  10
BRANCH   5  15
ATOM     15  C   UNL     1       5.477   4.391  19.643  0.00  0.00    +0.000 C 
BRANCH  15  16
ATOM     16  O   UNL     1       6.421   5.469  19.614  0.00  0.00    +0.000 OA
BRANCH  16  17
ATOM     17  C   UNL     1       7.338   5.423  18.506  0.00  0.00    +0.000 C 
ATOM     18  C   UNL     1       7.270   6.746  17.719  0.00  0.00    +0.000 C 
ATOM     19  O   UNL     1       7.538   6.691  16.325  0.00  0.00    +0.000 OA
ATOM     20  C   UNL     1       7.027   5.652  15.688  0.00  0.00    +0.000 A 
ATOM     21  N   UNL     1       6.800   5.623  14.398  0.00  0.00    +0.000 NA
ATOM     22  C   UNL     1       6.462   4.309  14.137  0.00  0.00    +0.000 A 
ATOM     23  C   UNL     1       6.492   3.547  15.291  0.00  0.00    +0.000 A 
ATOM     24  N   UNL     1       6.807   4.441  16.273  0.00  0.00    +0.000 N 
ATOM     25  C   UNL     1       7.002   4.175  17.676  0.00  0.00    +0.000 C 
BRANCH  22  26
ATOM     26  N   UNL     1       6.179   3.861  12.791  0.00  0.00    +0.000 N 
ATOM     27  O   UNL     1       7.088   3.998  11.959  0.00  0.00    +0.000 OA
ATOM     28  O   UNL     1       5.063   3.375  12.565  0.00  0.00    +0.000 OA
ENDBRANCH  22  26
ENDBRANCH  16  17
ENDBRANCH  15  16
ENDBRANCH   5  15
TORSDOF 6
ENDMDL
MODEL 8
REMARK VINA RESULT:      -7.7      1.635      2.113
REMARK  Name = 
REMARK  6 active torsions:
REMARK  status: ('A' for Active; 'I' for Inactive)
REMARK    1  A    between atoms: C_2  and  C_3
REMARK    2  A    between atoms: C_6  and  C_7
REMARK    3  A    between atoms: C_11  and  C_12
REMARK    4  A    between atoms: C_12  and  O_13
REMARK    5  A    between atoms: O_13  and  C_14
REMARK    6  A    between atoms: C_19  and  N_20
REMARK                            x       y       z     vdW  Elec       q    Type
REMARK                         _______ _______ _______ _____ _____    ______ ____
ROOT
ATOM      1  C   UNL     1       0.502   9.514  20.551  0.00  0.00    +0.000 A 
ATOM      2  C   UNL     1       1.099   9.825  19.322  0.00  0.00    +0.000 A 
ATOM      3  C   UNL     1       1.858   8.865  18.668  0.00  0.00    +0.000 A 
ATOM      4  N   UNL     1       2.072   7.625  19.146  0.00  0.00    +0.000 NA
ATOM      5  C   UNL     1       1.523   7.318  20.344  0.00  0.00    +0.000 A 
ATOM      6  C   UNL     1       0.735   8.227  21.058  0.00  0.00    +0.000 A 
ENDROOT
BRANCH   1  10
ATOM      7  C   UNL     1      -2.028  12.344  22.638  0.00  0.00    +0.000 A 
ATOM      8  C   UNL     1      -1.681  12.556  21.302  0.00  0.00    +0.000 A 
ATOM      9  C   UNL     1      -0.860  11.637  20.633  0.00  0.00    +0.000 A 
ATOM     10  C   UNL     1      -0.355  10.491  21.275  0.00  0.00    +0.000 A 
ATOM     11  C   UNL     1      -0.709  10.308  22.625  0.00  0.00    +0.000 A 
ATOM     12  C   UNL     1      -1.541  11.215  23.297  0.00  0.00    +0.000 A 
BRANCH   7  14
ATOM     13  N   UNL     1      -3.581  14.018  23.869  0.00  0.00    +0.000 NA
ATOM     14  C   UNL     1      -2.885  13.270  23.318  0.00  0.00    +0.000 C 
ENDBRANCH   7  14
ENDBRANCH   1  10
BRANCH   5  15
ATOM     15  C   UNL     1       1.766   5.928  20.886  0.00  0.00    +0.000 C 
BRANCH  15  16
ATOM     16  O   UNL     1       1.104   4.961  20.060  0.00  0.00    +0.000 OA
BRANCH  16  17
ATOM     17  C   UNL     1       1.984   3.988  19.468  0.00  0.00    +0.000 C 
ATOM     18  C   UNL     1       3.074   3.588  20.481  0.00  0.00    +0.000 C 
ATOM     19  O   UNL     1       4.339   3.205  19.962  0.00  0.00    +0.000 OA
ATOM     20  C   UNL     1       4.779   3.926  18.945  0.00  0.00    +0.000 A 
ATOM     21  N   UNL     1       6.040   4.017  18.604  0.00  0.00    +0.000 NA
ATOM     22  C   UNL     1       6.023   4.694  17.399  0.00  0.00    +0.000 A 
ATOM     23  C   UNL     1       4.730   5.005  17.020  0.00  0.00    +0.000 A 
ATOM     24  N   UNL     1       3.960   4.547  18.050  0.00  0.00    +0.000 N 
ATOM     25  C   UNL     1       2.524   4.584  18.160  0.00  0.00    +0.000 C 
BRANCH  22  26
ATOM     26  N   UNL     1       7.244   4.954  16.667  0.00  0.00    +0.000 N 
ATOM     27  O   UNL     1       8.191   4.181  16.877  0.00  0.00    +0.000 OA
ATOM     28  O   UNL     1       7.259   5.918  15.891  0.00  0.00    +0.000 OA
ENDBRANCH  22  26
ENDBRANCH  16  17
ENDBRANCH  15  16
ENDBRANCH   5  15
TORSDOF 6
ENDMDL
MODEL 9
REMARK VINA RESULT:      -7.6      1.541      2.309
REMARK  Name = 
REMARK  6 active torsions:
REMARK  status: ('A' for Active; 'I' for Inactive)
REMARK    1  A    between atoms: C_2  and  C_3
REMARK    2  A    between atoms: C_6  and  C_7
REMARK    3  A    between atoms: C_11  and  C_12
REMARK    4  A    between atoms: C_12  and  O_13
REMARK    5  A    between atoms: O_13  and  C_14
REMARK    6  A    between atoms: C_19  and  N_20
REMARK                            x       y       z     vdW  Elec       q    Type
REMARK                         _______ _______ _______ _____ _____    ______ ____
ROOT
ATOM      1  C   UNL     1       1.469   7.277  20.555  0.00  0.00    +0.000 A 
ATOM      2  C   UNL     1       0.993   6.030  20.981  0.00  0.00    +0.000 A 
ATOM      3  C   UNL     1       1.597   4.871  20.512  0.00  0.00    +0.000 A 
ATOM      4  N   UNL     1       2.631   4.861  19.651  0.00  0.00    +0.000 NA
ATOM      5  C   UNL     1       3.085   6.057  19.210  0.00  0.00    +0.000 A 
ATOM      6  C   UNL     1       2.537   7.268  19.645  0.00  0.00    +0.000 A 
ENDROOT
BRANCH   1  10
ATOM      7  C   UNL     1      -0.267  10.974  21.999  0.00  0.00    +0.000 A 
ATOM      8  C   UNL     1       0.080  10.833  20.654  0.00  0.00    +0.000 A 
ATOM      9  C   UNL     1       0.644   9.634  20.193  0.00  0.00    +0.000 A 
ATOM     10  C   UNL     1       0.886   8.550  21.057  0.00  0.00    +0.000 A 
ATOM     11  C   UNL     1       0.540   8.723  22.411  0.00  0.00    +0.000 A 
ATOM     12  C   UNL     1      -0.037   9.913  22.876  0.00  0.00    +0.000 A 
BRANCH   7  14
ATOM     13  N   UNL     1      -1.344  13.174  22.852  0.00  0.00    +0.000 NA
ATOM     14  C   UNL     1      -0.862  12.190  22.469  0.00  0.00    +0.000 C 
ENDBRANCH   7  14
ENDBRANCH   1  10
BRANCH   5  15
ATOM     15  C   UNL     1       4.243   6.049  18.238  0.00  0.00    +0.000 C 
BRANCH  15  16
ATOM     16  O   UNL     1       5.476   5.902  18.952  0.00  0.00    +0.000 OA
BRANCH  16  17
ATOM     17  C   UNL     1       6.566   5.403  18.155  0.00  0.00    +0.000 C 
ATOM     18  C   UNL     1       7.197   6.559  17.354  0.00  0.00    +0.000 C 
ATOM     19  O   UNL     1       7.777   6.241  16.098  0.00  0.00    +0.000 OA
ATOM     20  C   UNL     1       7.104   5.374  15.362  0.00  0.00    +0.000 A 
ATOM     21  N   UNL     1       7.226   5.265  14.063  0.00  0.00    +0.000 NA
ATOM     22  C   UNL     1       6.507   4.129  13.742  0.00  0.00    +0.000 A 
ATOM     23  C   UNL     1       5.954   3.554  14.872  0.00  0.00    +0.000 A 
ATOM     24  N   UNL     1       6.310   4.398  15.885  0.00  0.00    +0.000 N 
ATOM     25  C   UNL     1       6.021   4.257  17.289  0.00  0.00    +0.000 C 
BRANCH  22  26
ATOM     26  N   UNL     1       6.439   3.643  12.382  0.00  0.00    +0.000 N 
ATOM     27  O   UNL     1       7.272   4.104  11.587  0.00  0.00    +0.000 OA
ATOM     28  O   UNL     1       5.566   2.810  12.107  0.00  0.00    +0.000 OA
ENDBRANCH  22  26
ENDBRANCH  16  17
ENDBRANCH  15  16
ENDBRANCH   5  15
TORSDOF 6
ENDMDL
