MODEL 1
REMARK VINA RESULT:      -8.1      0.000      0.000
REMARK  Name = 
REMARK  8 active torsions:
REMARK  status: ('A' for Active; 'I' for Inactive)
REMARK    1  A    between atoms: C_2  and  O_3
REMARK    2  A    between atoms: C_2  and  C_4
REMARK    3  A    between atoms: C_6  and  S_7
REMARK    4  A    between atoms: S_7  and  N_10
REMARK    5  A    between atoms: N_10  and  C_11
REMARK    6  A    between atoms: C_17  and  O_18
REMARK    7  A    between atoms: O_18  and  C_19
REMARK    8  A    between atoms: C_27  and  O_28
REMARK                            x       y       z     vdW  Elec       q    Type
REMARK                         _______ _______ _______ _____ _____    ______ ____
ROOT
ATOM      1  N   UNL     1       3.621   6.537  19.708  0.00  0.00    +0.000 N 
ATOM      2  H   UNL     1       3.194   7.006  20.503  0.00  0.00    +0.000 HD
ENDROOT
BRANCH   1   3
ATOM      3  C   UNL     1       3.583   5.100  19.901  0.00  0.00    +0.000 A 
ATOM      4  C   UNL     1       2.515   4.523  20.598  0.00  0.00    +0.000 A 
ATOM      5  C   UNL     1       2.515   3.149  20.852  0.00  0.00    +0.000 A 
ATOM      6 CL   UNL     1       1.251   2.448  21.788  0.00  0.00    +0.000 Cl
ATOM      7  C   UNL     1       3.538   2.334  20.371  0.00  0.00    +0.000 A 
ATOM      8  C   UNL     1       4.568   2.897  19.619  0.00  0.00    +0.000 A 
ATOM      9  C   UNL     1       4.620   4.283  19.419  0.00  0.00    +0.000 A 
BRANCH   9  10
ATOM     10  O   UNL     1       5.650   4.898  18.739  0.00  0.00    +0.000 OA
BRANCH  10  11
ATOM     11  C   UNL     1       5.777   4.723  17.378  0.00  0.00    +0.000 A 
ATOM     12  C   UNL     1       7.057   4.930  16.863  0.00  0.00    +0.000 A 
ATOM     13  C   UNL     1       7.300   4.770  15.498  0.00  0.00    +0.000 A 
ATOM     14  C   UNL     1       6.263   4.402  14.642  0.00  0.00    +0.000 A 
ATOM     15  C   UNL     1       4.987   4.174  15.154  0.00  0.00    +0.000 A 
ATOM     16  C   UNL     1       4.749   4.310  16.523  0.00  0.00    +0.000 A 
ENDBRANCH  10  11
ENDBRANCH   9  10
ENDBRANCH   1   3
BRANCH   1  17
ATOM     17  S   UNL     1       2.829   7.112  18.316  0.00  0.00    +0.000 S 
ATOM     18  O   UNL     1       1.994   6.013  17.866  0.00  0.00    +0.000 OA
ATOM     19  O   UNL     1       3.748   7.786  17.436  0.00  0.00    +0.000 OA
BRANCH  17  22
ATOM     20  C   UNL     1       0.720   9.367  20.953  0.00  0.00    +0.000 A 
ATOM     21  C   UNL     1       1.528   8.373  20.382  0.00  0.00    +0.000 A 
ATOM     22  C   UNL     1       1.742   8.357  19.001  0.00  0.00    +0.000 A 
ATOM     23  C   UNL     1       1.143   9.322  18.179  0.00  0.00    +0.000 A 
ATOM     24  C   UNL     1       0.334  10.314  18.748  0.00  0.00    +0.000 A 
ATOM     25  C   UNL     1       0.133  10.338  20.132  0.00  0.00    +0.000 A 
BRANCH  20  27
ATOM     26  O   UNL     1       1.392   9.588  23.220  0.00  0.00    +0.000 OA
ATOM     27  C   UNL     1       0.506   9.318  22.422  0.00  0.00    +0.000 C 
BRANCH  27  28
ATOM     28  O   UNL     1      -0.754   9.023  22.797  0.00  0.00    +0.000 OA
ATOM     29  H   UNL     1      -1.145   9.718  23.371  0.00  0.00    +0.000 HD
ENDBRANCH  27  28
ENDBRANCH  20  27
BRANCH  25  30
ATOM     30  O   UNL     1      -0.626  11.334  20.690  0.00  0.00    +0.000 OA
ATOM     31  H   UNL     1      -0.902  11.957  19.992  0.00  0.00    +0.000 HD
ENDBRANCH  25  30
ENDBRANCH  17  22
ENDBRANCH   1  17
TORSDOF 8
ENDMDL
MODEL 2
REMARK VINA RESULT:      -8.0      1.254      1.629
REMARK  Name = 
REMARK  8 active torsions:
REMARK  status: ('A' for Active; 'I' for Inactive)
REMARK    1  A    between atoms: C_2  and  O_3
REMARK    2  A    between atoms: C_2  and  C_4
REMARK    3  A    between atoms: C_6  and  S_7
REMARK    4  A    between atoms: S_7  and  N_10
REMARK    5  A    between atoms: N_10  and  C_11
REMARK    6  A    between atoms: C_17  and  O_18
REMARK    7  A    between atoms: O_18  and  C_19
REMARK    8  A    between atoms: C_27  and  O_28
REMARK                            x       y       z     vdW  Elec       q    Type
REMARK                         _______ _______ _______ _____ _____    ______ ____
ROOT
ATOM      1  N   UNL     1       1.937   5.709  17.968  0.00  0.00    +0.000 N 
ATOM      2  H   UNL     1       1.996   5.691  16.952  0.00  0.00    +0.000 HD
ENDROOT
BRANCH   1   3
ATOM      3  C   UNL     1       2.153   4.377  18.501  0.00  0.00    +0.000 A 
ATOM      4  C   UNL     1       1.594   4.027  19.736  0.00  0.00    +0.000 A 
ATOM      5  C   UNL     1       1.865   2.771  20.287  0.00  0.00    +0.000 A 
ATOM      6 CL   UNL     1       1.257   2.369  21.847  0.00  0.00    +0.000 Cl
ATOM      7  C   UNL     1       2.639   1.841  19.598  0.00  0.00    +0.000 A 
ATOM      8  C   UNL     1       3.141   2.164  18.338  0.00  0.00    +0.000 A 
ATOM      9  C   UNL     1       2.939   3.444  17.804  0.00  0.00    +0.000 A 
BRANCH   9  10
ATOM     10  O   UNL     1       3.468   3.837  16.593  0.00  0.00    +0.000 OA
BRANCH  10  11
ATOM     11  C   UNL     1       4.811   4.126  16.489  0.00  0.00    +0.000 A 
ATOM     12  C   UNL     1       5.312   4.193  15.188  0.00  0.00    +0.000 A 
ATOM     13  C   UNL     1       6.658   4.489  14.969  0.00  0.00    +0.000 A 
ATOM     14  C   UNL     1       7.509   4.720  16.049  0.00  0.00    +0.000 A 
ATOM     15  C   UNL     1       7.009   4.675  17.349  0.00  0.00    +0.000 A 
ATOM     16  C   UNL     1       5.658   4.403  17.568  0.00  0.00    +0.000 A 
ENDBRANCH  10  11
ENDBRANCH   9  10
ENDBRANCH   1   3
BRANCH   1  17
ATOM     17  S   UNL     1       3.030   6.900  18.502  0.00  0.00    +0.000 S 
ATOM     18  O   UNL     1       3.702   7.371  17.304  0.00  0.00    +0.000 OA
ATOM     19  O   UNL     1       3.756   6.456  19.663  0.00  0.00    +0.000 OA
BRANCH  17  22
ATOM     20  C   UNL     1       0.662   9.244  20.822  0.00  0.00    +0.000 A 
ATOM     21  C   UNL     1       1.490   8.209  20.363  0.00  0.00    +0.000 A 
ATOM     22  C   UNL     1       1.923   8.200  19.034  0.00  0.00    +0.000 A 
ATOM     23  C   UNL     1       1.523   9.214  18.151  0.00  0.00    +0.000 A 
ATOM     24  C   UNL     1       0.695  10.246  18.607  0.00  0.00    +0.000 A 
ATOM     25  C   UNL     1       0.274  10.262  19.941  0.00  0.00    +0.000 A 
BRANCH  20  27
ATOM     26  O   UNL     1       0.650   9.940  23.092  0.00  0.00    +0.000 OA
ATOM     27  C   UNL     1       0.210   9.187  22.235  0.00  0.00    +0.000 C 
BRANCH  27  28
ATOM     28  O   UNL     1      -0.767   8.291  22.478  0.00  0.00    +0.000 OA
ATOM     29  H   UNL     1      -1.663   8.671  22.346  0.00  0.00    +0.000 HD
ENDBRANCH  27  28
ENDBRANCH  20  27
BRANCH  25  30
ATOM     30  O   UNL     1      -0.504  11.296  20.395  0.00  0.00    +0.000 OA
ATOM     31  H   UNL     1      -1.445  11.061  20.286  0.00  0.00    +0.000 HD
ENDBRANCH  25  30
ENDBRANCH  17  22
ENDBRANCH   1  17
TORSDOF 8
ENDMDL
MODEL 3
REMARK VINA RESULT:      -7.9      0.558      1.001
REMARK  Name = 
REMARK  8 active torsions:
REMARK  status: ('A' for Active; 'I' for Inactive)
REMARK    1  A    between atoms: C_2  and  O_3
REMARK    2  A    between atoms: C_2  and  C_4
REMARK    3  A    between atoms: C_6  and  S_7
REMARK    4  A    between atoms: S_7  and  N_10
REMARK    5  A    between atoms: N_10  and  C_11
REMARK    6  A    between atoms: C_17  and  O_18
REMARK    7  A    between atoms: O_18  and  C_19
REMARK    8  A    between atoms: C_27  and  O_28
REMARK                            x       y       z     vdW  Elec       q    Type
REMARK                         _______ _______ _______ _____ _____    ______ ____
ROOT
ATOM      1  N   UNL     1       3.315   6.887  19.862  0.00  0.00    +0.000 N 
ATOM      2  H   UNL     1       2.841   7.247  20.688  0.00  0.00    +0.000 HD
ENDROOT
BRANCH   1   3
ATOM      3  C   UNL     1       3.397   5.440  19.929  0.00  0.00    +0.000 A 
ATOM      4  C   UNL     1       2.407   4.721  20.608  0.00  0.00    +0.000 A 
ATOM      5  C   UNL     1       2.526   3.335  20.739  0.00  0.00    +0.000 A 
ATOM      6 CL   UNL     1       1.359   2.456  21.651  0.00  0.00    +0.000 Cl
ATOM      7  C   UNL     1       3.588   2.650  20.155  0.00  0.00    +0.000 A 
ATOM      8  C   UNL     1       4.541   3.357  19.421  0.00  0.00    +0.000 A 
ATOM      9  C   UNL     1       4.475   4.755  19.342  0.00  0.00    +0.000 A 
BRANCH   9  10
ATOM     10  O   UNL     1       5.425   5.508  18.685  0.00  0.00    +0.000 OA
BRANCH  10  11
ATOM     11  C   UNL     1       5.807   5.169  17.405  0.00  0.00    +0.000 A 
ATOM     12  C   UNL     1       4.859   5.416  16.411  0.00  0.00    +0.000 A 
ATOM     13  C   UNL     1       5.146   5.120  15.077  0.00  0.00    +0.000 A 
ATOM     14  C   UNL     1       6.382   4.576  14.733  0.00  0.00    +0.000 A 
ATOM     15  C   UNL     1       7.340   4.346  15.718  0.00  0.00    +0.000 A 
ATOM     16  C   UNL     1       7.063   4.665  17.049  0.00  0.00    +0.000 A 
ENDBRANCH  10  11
ENDBRANCH   9  10
ENDBRANCH   1   3
BRANCH   1  17
ATOM     17  S   UNL     1       2.491   7.514  18.512  0.00  0.00    +0.000 S 
ATOM     18  O   UNL     1       1.705   6.409  17.992  0.00  0.00    +0.000 OA
ATOM     19  O   UNL     1       3.373   8.285  17.675  0.00  0.00    +0.000 OA
BRANCH  17  22
ATOM     20  C   UNL     1       0.356   9.551  21.301  0.00  0.00    +0.000 A 
ATOM     21  C   UNL     1       1.205   8.632  20.667  0.00  0.00    +0.000 A 
ATOM     22  C   UNL     1       1.351   8.660  19.278  0.00  0.00    +0.000 A 
ATOM     23  C   UNL     1       0.642   9.595  18.510  0.00  0.00    +0.000 A 
ATOM     24  C   UNL     1      -0.208  10.511  19.140  0.00  0.00    +0.000 A 
ATOM     25  C   UNL     1      -0.341  10.492  20.532  0.00  0.00    +0.000 A 
BRANCH  20  27
ATOM     26  O   UNL     1       1.164   9.632  23.532  0.00  0.00    +0.000 OA
ATOM     27  C   UNL     1       0.220   9.457  22.776  0.00  0.00    +0.000 C 
BRANCH  27  28
ATOM     28  O   UNL     1      -1.036   9.233  23.212  0.00  0.00    +0.000 OA
ATOM     29  H   UNL     1      -1.297   9.849  23.931  0.00  0.00    +0.000 HD
ENDBRANCH  27  28
ENDBRANCH  20  27
BRANCH  25  30
ATOM     30  O   UNL     1      -1.143  11.417  21.150  0.00  0.00    +0.000 OA
ATOM     31  H   UNL     1      -1.509  11.030  21.967  0.00  0.00    +0.000 HD
ENDBRANCH  25  30
ENDBRANCH  17  22
ENDBRANCH   1  17
TORSDOF 8
ENDMDL
MODEL 4
REMARK VINA RESULT:      -7.7      1.474      2.550
REMARK  Name = 
REMARK  8 active torsions:
REMARK  status: ('A' for Active; 'I' for Inactive)
REMARK    1  A    between atoms: C_2  and  O_3
REMARK    2  A    between atoms: C_2  and  C_4
REMARK    3  A    between atoms: C_6  and  S_7
REMARK    4  A    between atoms: S_7  and  N_10
REMARK    5  A    between atoms: N_10  and  C_11
REMARK    6  A    between atoms: C_17  and  O_18
REMARK    7  A    between atoms: O_18  and  C_19
REMARK    8  A    between atoms: C_27  and  O_28
REMARK                            x       y       z     vdW  Elec       q    Type
REMARK                         _______ _______ _______ _____ _____    ______ ____
ROOT
ATOM      1  N   UNL     1       1.972   5.710  17.943  0.00  0.00    +0.000 N 
ATOM      2  H   UNL     1       2.056   5.695  16.929  0.00  0.00    +0.000 HD
ENDROOT
BRANCH   1   3
ATOM      3  C   UNL     1       2.168   4.374  18.476  0.00  0.00    +0.000 A 
ATOM      4  C   UNL     1       1.617   4.036  19.718  0.00  0.00    +0.000 A 
ATOM      5  C   UNL     1       1.869   2.776  20.267  0.00  0.00    +0.000 A 
ATOM      6 CL   UNL     1       1.270   2.387  21.834  0.00  0.00    +0.000 Cl
ATOM      7  C   UNL     1       2.617   1.830  19.570  0.00  0.00    +0.000 A 
ATOM      8  C   UNL     1       3.111   2.141  18.304  0.00  0.00    +0.000 A 
ATOM      9  C   UNL     1       2.928   3.425  17.771  0.00  0.00    +0.000 A 
BRANCH   9  10
ATOM     10  O   UNL     1       3.451   3.806  16.554  0.00  0.00    +0.000 OA
BRANCH  10  11
ATOM     11  C   UNL     1       4.788   4.123  16.447  0.00  0.00    +0.000 A 
ATOM     12  C   UNL     1       5.254   4.330  15.148  0.00  0.00    +0.000 A 
ATOM     13  C   UNL     1       6.590   4.666  14.927  0.00  0.00    +0.000 A 
ATOM     14  C   UNL     1       7.466   4.797  16.004  0.00  0.00    +0.000 A 
ATOM     15  C   UNL     1       7.001   4.611  17.305  0.00  0.00    +0.000 A 
ATOM     16  C   UNL     1       5.659   4.300  17.528  0.00  0.00    +0.000 A 
ENDBRANCH  10  11
ENDBRANCH   9  10
ENDBRANCH   1   3
BRANCH   1  17
ATOM     17  S   UNL     1       3.060   6.891  18.507  0.00  0.00    +0.000 S 
ATOM     18  O   UNL     1       3.511   7.597  17.321  0.00  0.00    +0.000 OA
ATOM     19  O   UNL     1       3.982   6.336  19.463  0.00  0.00    +0.000 OA
BRANCH  17  22
ATOM     20  C   UNL     1       0.604   9.996  19.407  0.00  0.00    +0.000 A 
ATOM     21  C   UNL     1       1.497   9.138  18.750  0.00  0.00    +0.000 A 
ATOM     22  C   UNL     1       1.972   7.995  19.399  0.00  0.00    +0.000 A 
ATOM     23  C   UNL     1       1.569   7.707  20.711  0.00  0.00    +0.000 A 
ATOM     24  C   UNL     1       0.680   8.563  21.369  0.00  0.00    +0.000 A 
ATOM     25  C   UNL     1       0.193   9.699  20.713  0.00  0.00    +0.000 A 
BRANCH  20  27
ATOM     26  O   UNL     1      -1.018  11.554  18.645  0.00  0.00    +0.000 OA
ATOM     27  C   UNL     1       0.154  11.209  18.678  0.00  0.00    +0.000 C 
BRANCH  27  28
ATOM     28  O   UNL     1       1.147  11.931  18.121  0.00  0.00    +0.000 OA
ATOM     29  H   UNL     1       0.815  12.567  17.450  0.00  0.00    +0.000 HD
ENDBRANCH  27  28
ENDBRANCH  20  27
BRANCH  25  30
ATOM     30  O   UNL     1      -0.710  10.514  21.346  0.00  0.00    +0.000 OA
ATOM     31  H   UNL     1      -1.389   9.965  21.780  0.00  0.00    +0.000 HD
ENDBRANCH  25  30
ENDBRANCH  17  22
ENDBRANCH   1  17
TORSDOF 8
ENDMDL
MODEL 5
REMARK VINA RESULT:      -7.6      1.465      1.887
REMARK  Name = 
REMARK  8 active torsions:
REMARK  status: ('A' for Active; 'I' for Inactive)
REMARK    1  A    between atoms: C_2  and  O_3
REMARK    2  A    between atoms: C_2  and  C_4
REMARK    3  A    between atoms: C_6  and  S_7
REMARK    4  A    between atoms: S_7  and  N_10
REMARK    5  A    between atoms: N_10  and  C_11
REMARK    6  A    between atoms: C_17  and  O_18
REMARK    7  A    between atoms: O_18  and  C_19
REMARK    8  A    between atoms: C_27  and  O_28
REMARK                            x       y       z     vdW  Elec       q    Type
REMARK                         _______ _______ _______ _____ _____    ______ ____
ROOT
ATOM      1  N   UNL     1       3.220   6.870  19.464  0.00  0.00    +0.000 N 
ATOM      2  H   UNL     1       2.932   7.263  20.358  0.00  0.00    +0.000 HD
ENDROOT
BRANCH   1   3
ATOM      3  C   UNL     1       3.083   5.426  19.489  0.00  0.00    +0.000 A 
ATOM      4  C   UNL     1       2.284   4.823  20.468  0.00  0.00    +0.000 A 
ATOM      5  C   UNL     1       2.213   3.429  20.541  0.00  0.00    +0.000 A 
ATOM      6 CL   UNL     1       1.305   2.681  21.799  0.00  0.00    +0.000 Cl
ATOM      7  C   UNL     1       2.884   2.630  19.618  0.00  0.00    +0.000 A 
ATOM      8  C   UNL     1       3.627   3.230  18.602  0.00  0.00    +0.000 A 
ATOM      9  C   UNL     1       3.767   4.625  18.559  0.00  0.00    +0.000 A 
BRANCH   9  10
ATOM     10  O   UNL     1       4.542   5.265  17.615  0.00  0.00    +0.000 OA
BRANCH  10  11
ATOM     11  C   UNL     1       5.770   5.779  17.968  0.00  0.00    +0.000 A 
ATOM     12  C   UNL     1       6.199   6.877  17.220  0.00  0.00    +0.000 A 
ATOM     13  C   UNL     1       7.425   7.482  17.500  0.00  0.00    +0.000 A 
ATOM     14  C   UNL     1       8.227   6.993  18.530  0.00  0.00    +0.000 A 
ATOM     15  C   UNL     1       7.795   5.910  19.294  0.00  0.00    +0.000 A 
ATOM     16  C   UNL     1       6.558   5.320  19.030  0.00  0.00    +0.000 A 
ENDBRANCH  10  11
ENDBRANCH   9  10
ENDBRANCH   1   3
BRANCH   1  17
ATOM     17  S   UNL     1       2.318   7.672  18.263  0.00  0.00    +0.000 S 
ATOM     18  O   UNL     1       1.303   6.722  17.845  0.00  0.00    +0.000 OA
ATOM     19  O   UNL     1       3.181   8.334  17.320  0.00  0.00    +0.000 OA
BRANCH  17  22
ATOM     20  C   UNL     1       0.501   9.649  21.309  0.00  0.00    +0.000 A 
ATOM     21  C   UNL     1       1.105   8.656  20.524  0.00  0.00    +0.000 A 
ATOM     22  C   UNL     1       1.494   8.944  19.213  0.00  0.00    +0.000 A 
ATOM     23  C   UNL     1       1.273  10.219  18.672  0.00  0.00    +0.000 A 
ATOM     24  C   UNL     1       0.668  11.210  19.453  0.00  0.00    +0.000 A 
ATOM     25  C   UNL     1       0.293  10.925  20.770  0.00  0.00    +0.000 A 
BRANCH  20  27
ATOM     26  O   UNL     1       0.589   9.780  23.678  0.00  0.00    +0.000 OA
ATOM     27  C   UNL     1       0.084   9.278  22.685  0.00  0.00    +0.000 C 
BRANCH  27  28
ATOM     28  O   UNL     1      -0.938   8.401  22.745  0.00  0.00    +0.000 OA
ATOM     29  H   UNL     1      -0.849   7.775  23.497  0.00  0.00    +0.000 HD
ENDBRANCH  27  28
ENDBRANCH  20  27
BRANCH  25  30
ATOM     30  O   UNL     1      -0.262  11.910  21.546  0.00  0.00    +0.000 OA
ATOM     31  H   UNL     1       0.174  12.760  21.347  0.00  0.00    +0.000 HD
ENDBRANCH  25  30
ENDBRANCH  17  22
ENDBRANCH   1  17
TORSDOF 8
ENDMDL
MODEL 6
REMARK VINA RESULT:      -7.6      0.855      1.940
REMARK  Name = 
REMARK  8 active torsions:
REMARK  status: ('A' for Active; 'I' for Inactive)
REMARK    1  A    between atoms: C_2  and  O_3
REMARK    2  A    between atoms: C_2  and  C_4
REMARK    3  A    between atoms: C_6  and  S_7
REMARK    4  A    between atoms: S_7  and  N_10
REMARK    5  A    between atoms: N_10  and  C_11
REMARK    6  A    between atoms: C_17  and  O_18
REMARK    7  A    between atoms: O_18  and  C_19
REMARK    8  A    between atoms: C_27  and  O_28
REMARK                            x       y       z     vdW  Elec       q    Type
REMARK                         _______ _______ _______ _____ _____    ______ ____
ROOT
ATOM      1  N   UNL     1       3.915   6.305  19.602  0.00  0.00    +0.000 N 
ATOM      2  H   UNL     1       3.724   6.833  20.450  0.00  0.00    +0.000 HD
ENDROOT
BRANCH   1   3
ATOM      3  C   UNL     1       3.763   4.885  19.858  0.00  0.00    +0.000 A 
ATOM      4  C   UNL     1       2.630   4.420  20.536  0.00  0.00    +0.000 A 
ATOM      5  C   UNL     1       2.521   3.063  20.852  0.00  0.00    +0.000 A 
ATOM      6 CL   UNL     1       1.174   2.501  21.766  0.00  0.00    +0.000 Cl
ATOM      7  C   UNL     1       3.498   2.155  20.451  0.00  0.00    +0.000 A 
ATOM      8  C   UNL     1       4.594   2.606  19.717  0.00  0.00    +0.000 A 
ATOM      9  C   UNL     1       4.755   3.974  19.456  0.00  0.00    +0.000 A 
BRANCH   9  10
ATOM     10  O   UNL     1       5.852   4.480  18.791  0.00  0.00    +0.000 OA
BRANCH  10  11
ATOM     11  C   UNL     1       5.888   4.470  17.414  0.00  0.00    +0.000 A 
ATOM     12  C   UNL     1       7.127   4.761  16.843  0.00  0.00    +0.000 A 
ATOM     13  C   UNL     1       7.277   4.768  15.455  0.00  0.00    +0.000 A 
ATOM     14  C   UNL     1       6.188   4.483  14.633  0.00  0.00    +0.000 A 
ATOM     15  C   UNL     1       4.953   4.171  15.198  0.00  0.00    +0.000 A 
ATOM     16  C   UNL     1       4.808   4.140  16.586  0.00  0.00    +0.000 A 
ENDBRANCH  10  11
ENDBRANCH   9  10
ENDBRANCH   1   3
BRANCH   1  17
ATOM     17  S   UNL     1       2.905   6.943  18.389  0.00  0.00    +0.000 S 
ATOM     18  O   UNL     1       2.061   5.840  17.969  0.00  0.00    +0.000 OA
ATOM     19  O   UNL     1       3.657   7.733  17.449  0.00  0.00    +0.000 OA
BRANCH  17  22
ATOM     20  C   UNL     1       0.429  10.013  19.354  0.00  0.00    +0.000 A 
ATOM     21  C   UNL     1       1.279   9.142  18.657  0.00  0.00    +0.000 A 
ATOM     22  C   UNL     1       1.877   8.070  19.325  0.00  0.00    +0.000 A 
ATOM     23  C   UNL     1       1.644   7.867  20.692  0.00  0.00    +0.000 A 
ATOM     24  C   UNL     1       0.798   8.736  21.390  0.00  0.00    +0.000 A 
ATOM     25  C   UNL     1       0.187   9.800  20.717  0.00  0.00    +0.000 A 
BRANCH  20  27
ATOM     26  O   UNL     1       0.012  12.313  18.936  0.00  0.00    +0.000 OA
ATOM     27  C   UNL     1      -0.158  11.150  18.600  0.00  0.00    +0.000 C 
BRANCH  27  28
ATOM     28  O   UNL     1      -0.827  10.799  17.484  0.00  0.00    +0.000 OA
ATOM     29  H   UNL     1      -1.355  11.542  17.116  0.00  0.00    +0.000 HD
ENDBRANCH  27  28
ENDBRANCH  20  27
BRANCH  25  30
ATOM     30  O   UNL     1      -0.674  10.626  21.394  0.00  0.00    +0.000 OA
ATOM     31  H   UNL     1      -1.501  10.715  20.884  0.00  0.00    +0.000 HD
ENDBRANCH  25  30
ENDBRANCH  17  22
ENDBRANCH   1  17
TORSDOF 8
ENDMDL
MODEL 7
REMARK VINA RESULT:      -7.3      3.665      9.030
REMARK  Name = 
REMARK  8 active torsions:
REMARK  status: ('A' for Active; 'I' for Inactive)
REMARK    1  A    between atoms: C_2  and  O_3
REMARK    2  A    between atoms: C_2  and  C_4
REMARK    3  A    between atoms: C_6  and  S_7
REMARK    4  A    between atoms: S_7  and  N_10
REMARK    5  A    between atoms: N_10  and  C_11
REMARK    6  A    between atoms: C_17  and  O_18
REMARK    7  A    between atoms: O_18  and  C_19
REMARK    8  A    between atoms: C_27  and  O_28
REMARK                            x       y       z     vdW  Elec       q    Type
REMARK                         _______ _______ _______ _____ _____    ______ ____
ROOT
ATOM      1  N   UNL     1       1.006  10.239  20.173  0.00  0.00    +0.000 N 
ATOM      2  H   UNL     1       1.636   9.884  19.456  0.00  0.00    +0.000 HD
ENDROOT
BRANCH   1   3
ATOM      3  C   UNL     1      -0.239  10.673  19.568  0.00  0.00    +0.000 A 
ATOM      4  C   UNL     1      -0.685  10.065  18.388  0.00  0.00    +0.000 A 
ATOM      5  C   UNL     1      -1.843  10.534  17.763  0.00  0.00    +0.000 A 
ATOM      6 CL   UNL     1      -2.346   9.851  16.264  0.00  0.00    +0.000 Cl
ATOM      7  C   UNL     1      -2.593  11.564  18.327  0.00  0.00    +0.000 A 
ATOM      8  C   UNL     1      -2.187  12.126  19.536  0.00  0.00    +0.000 A 
ATOM      9  C   UNL     1      -0.989  11.716  20.138  0.00  0.00    +0.000 A 
BRANCH   9  10
ATOM     10  O   UNL     1      -0.508  12.283  21.299  0.00  0.00    +0.000 OA
BRANCH  10  11
ATOM     11  C   UNL     1      -1.387  12.730  22.262  0.00  0.00    +0.000 A 
ATOM     12  C   UNL     1      -1.286  14.084  22.586  0.00  0.00    +0.000 A 
ATOM     13  C   UNL     1      -2.136  14.643  23.541  0.00  0.00    +0.000 A 
ATOM     14  C   UNL     1      -3.091  13.851  24.177  0.00  0.00    +0.000 A 
ATOM     15  C   UNL     1      -3.210  12.503  23.843  0.00  0.00    +0.000 A 
ATOM     16  C   UNL     1      -2.377  11.949  22.869  0.00  0.00    +0.000 A 
ENDBRANCH  10  11
ENDBRANCH   9  10
ENDBRANCH   1   3
BRANCH   1  17
ATOM     17  S   UNL     1       0.863   9.016  21.348  0.00  0.00    +0.000 S 
ATOM     18  O   UNL     1      -0.563   8.789  21.497  0.00  0.00    +0.000 OA
ATOM     19  O   UNL     1       1.718   9.277  22.477  0.00  0.00    +0.000 OA
BRANCH  17  22
ATOM     20  C   UNL     1       1.822   5.197  20.360  0.00  0.00    +0.000 A 
ATOM     21  C   UNL     1       1.347   6.330  21.037  0.00  0.00    +0.000 A 
ATOM     22  C   UNL     1       1.538   7.601  20.488  0.00  0.00    +0.000 A 
ATOM     23  C   UNL     1       2.214   7.753  19.269  0.00  0.00    +0.000 A 
ATOM     24  C   UNL     1       2.691   6.623  18.594  0.00  0.00    +0.000 A 
ATOM     25  C   UNL     1       2.486   5.350  19.136  0.00  0.00    +0.000 A 
BRANCH  20  27
ATOM     26  O   UNL     1       2.212   3.540  22.015  0.00  0.00    +0.000 OA
ATOM     27  C   UNL     1       1.614   3.875  21.003  0.00  0.00    +0.000 C 
BRANCH  27  28
ATOM     28  O   UNL     1       0.668   3.110  20.423  0.00  0.00    +0.000 OA
ATOM     29  H   UNL     1       0.072   3.630  19.842  0.00  0.00    +0.000 HD
ENDBRANCH  27  28
ENDBRANCH  20  27
BRANCH  25  30
ATOM     30  O   UNL     1       2.918   4.243  18.452  0.00  0.00    +0.000 OA
ATOM     31  H   UNL     1       3.526   4.522  17.741  0.00  0.00    +0.000 HD
ENDBRANCH  25  30
ENDBRANCH  17  22
ENDBRANCH   1  17
TORSDOF 8
ENDMDL
MODEL 8
REMARK VINA RESULT:      -7.3      1.485      2.456
REMARK  Name = 
REMARK  8 active torsions:
REMARK  status: ('A' for Active; 'I' for Inactive)
REMARK    1  A    between atoms: C_2  and  O_3
REMARK    2  A    between atoms: C_2  and  C_4
REMARK    3  A    between atoms: C_6  and  S_7
REMARK    4  A    between atoms: S_7  and  N_10
REMARK    5  A    between atoms: N_10  and  C_11
REMARK    6  A    between atoms: C_17  and  O_18
REMARK    7  A    between atoms: O_18  and  C_19
REMARK    8  A    between atoms: C_27  and  O_28
REMARK                            x       y       z     vdW  Elec       q    Type
REMARK                         _______ _______ _______ _____ _____    ______ ____
ROOT
ATOM      1  N   UNL     1       1.944   5.749  17.962  0.00  0.00    +0.000 N 
ATOM      2  H   UNL     1       2.038   5.738  16.949  0.00  0.00    +0.000 HD
ENDROOT
BRANCH   1   3
ATOM      3  C   UNL     1       2.122   4.410  18.491  0.00  0.00    +0.000 A 
ATOM      4  C   UNL     1       1.572   4.078  19.735  0.00  0.00    +0.000 A 
ATOM      5  C   UNL     1       1.808   2.813  20.280  0.00  0.00    +0.000 A 
ATOM      6 CL   UNL     1       1.210   2.430  21.849  0.00  0.00    +0.000 Cl
ATOM      7  C   UNL     1       2.537   1.857  19.578  0.00  0.00    +0.000 A 
ATOM      8  C   UNL     1       3.030   2.163  18.310  0.00  0.00    +0.000 A 
ATOM      9  C   UNL     1       2.864   3.451  17.780  0.00  0.00    +0.000 A 
BRANCH   9  10
ATOM     10  O   UNL     1       3.386   3.826  16.561  0.00  0.00    +0.000 OA
BRANCH  10  11
ATOM     11  C   UNL     1       4.725   4.132  16.450  0.00  0.00    +0.000 A 
ATOM     12  C   UNL     1       5.419   4.238  17.656  0.00  0.00    +0.000 A 
ATOM     13  C   UNL     1       6.783   4.534  17.659  0.00  0.00    +0.000 A 
ATOM     14  C   UNL     1       7.459   4.725  16.455  0.00  0.00    +0.000 A 
ATOM     15  C   UNL     1       6.776   4.600  15.246  0.00  0.00    +0.000 A 
ATOM     16  C   UNL     1       5.417   4.279  15.243  0.00  0.00    +0.000 A 
ENDBRANCH  10  11
ENDBRANCH   9  10
ENDBRANCH   1   3
BRANCH   1  17
ATOM     17  S   UNL     1       3.037   6.918  18.542  0.00  0.00    +0.000 S 
ATOM     18  O   UNL     1       3.492   7.638  17.366  0.00  0.00    +0.000 OA
ATOM     19  O   UNL     1       3.955   6.346  19.492  0.00  0.00    +0.000 OA
BRANCH  17  22
ATOM     20  C   UNL     1       0.637  10.051  19.498  0.00  0.00    +0.000 A 
ATOM     21  C   UNL     1       1.527   9.195  18.832  0.00  0.00    +0.000 A 
ATOM     22  C   UNL     1       1.952   8.015  19.448  0.00  0.00    +0.000 A 
ATOM     23  C   UNL     1       1.505   7.686  20.735  0.00  0.00    +0.000 A 
ATOM     24  C   UNL     1       0.619   8.540  21.403  0.00  0.00    +0.000 A 
ATOM     25  C   UNL     1       0.182   9.714  20.780  0.00  0.00    +0.000 A 
BRANCH  20  27
ATOM     26  O   UNL     1       1.046  12.181  18.533  0.00  0.00    +0.000 OA
ATOM     27  C   UNL     1       0.240  11.304  18.807  0.00  0.00    +0.000 C 
BRANCH  27  28
ATOM     28  O   UNL     1      -1.057  11.361  18.448  0.00  0.00    +0.000 OA
ATOM     29  H   UNL     1      -1.335  10.578  17.924  0.00  0.00    +0.000 HD
ENDBRANCH  27  28
ENDBRANCH  20  27
BRANCH  25  30
ATOM     30  O   UNL     1      -0.717  10.527  21.420  0.00  0.00    +0.000 OA
ATOM     31  H   UNL     1      -1.358   9.976  21.907  0.00  0.00    +0.000 HD
ENDBRANCH  25  30
ENDBRANCH  17  22
ENDBRANCH   1  17
TORSDOF 8
ENDMDL
MODEL 9
REMARK VINA RESULT:      -7.3      1.548      2.639
REMARK  Name = 
REMARK  8 active torsions:
REMARK  status: ('A' for Active; 'I' for Inactive)
REMARK    1  A    between atoms: C_2  and  O_3
REMARK    2  A    between atoms: C_2  and  C_4
REMARK    3  A    between atoms: C_6  and  S_7
REMARK    4  A    between atoms: S_7  and  N_10
REMARK    5  A    between atoms: N_10  and  C_11
REMARK    6  A    between atoms: C_17  and  O_18
REMARK    7  A    between atoms: O_18  and  C_19
REMARK    8  A    between atoms: C_27  and  O_28
REMARK                            x       y       z     vdW  Elec       q    Type
REMARK                         _______ _______ _______ _____ _____    ______ ____
ROOT
ATOM      1  N   UNL     1       3.427   6.645  19.518  0.00  0.00    +0.000 N 
ATOM      2  H   UNL     1       3.244   7.017  20.447  0.00  0.00    +0.000 HD
ENDROOT
BRANCH   1   3
ATOM      3  C   UNL     1       3.246   5.205  19.516  0.00  0.00    +0.000 A 
ATOM      4  C   UNL     1       2.456   4.605  20.504  0.00  0.00    +0.000 A 
ATOM      5  C   UNL     1       2.344   3.213  20.549  0.00  0.00    +0.000 A 
ATOM      6 CL   UNL     1       1.449   2.465  21.816  0.00  0.00    +0.000 Cl
ATOM      7  C   UNL     1       2.964   2.415  19.590  0.00  0.00    +0.000 A 
ATOM      8  C   UNL     1       3.696   3.014  18.567  0.00  0.00    +0.000 A 
ATOM      9  C   UNL     1       3.878   4.404  18.549  0.00  0.00    +0.000 A 
BRANCH   9  10
ATOM     10  O   UNL     1       4.646   5.041  17.598  0.00  0.00    +0.000 OA
BRANCH  10  11
ATOM     11  C   UNL     1       5.840   5.628  17.958  0.00  0.00    +0.000 A 
ATOM     12  C   UNL     1       6.196   6.762  17.226  0.00  0.00    +0.000 A 
ATOM     13  C   UNL     1       7.381   7.441  17.514  0.00  0.00    +0.000 A 
ATOM     14  C   UNL     1       8.215   6.988  18.536  0.00  0.00    +0.000 A 
ATOM     15  C   UNL     1       7.854   5.869  19.284  0.00  0.00    +0.000 A 
ATOM     16  C   UNL     1       6.657   5.205  19.012  0.00  0.00    +0.000 A 
ENDBRANCH  10  11
ENDBRANCH   9  10
ENDBRANCH   1   3
BRANCH   1  17
ATOM     17  S   UNL     1       2.435   7.510  18.439  0.00  0.00    +0.000 S 
ATOM     18  O   UNL     1       1.531   6.526  17.873  0.00  0.00    +0.000 OA
ATOM     19  O   UNL     1       3.213   8.398  17.615  0.00  0.00    +0.000 OA
BRANCH  17  22
ATOM     20  C   UNL     1       0.009  10.426  19.886  0.00  0.00    +0.000 A 
ATOM     21  C   UNL     1       0.807   9.639  19.043  0.00  0.00    +0.000 A 
ATOM     22  C   UNL     1       1.478   8.527  19.558  0.00  0.00    +0.000 A 
ATOM     23  C   UNL     1       1.370   8.200  20.917  0.00  0.00    +0.000 A 
ATOM     24  C   UNL     1       0.577   8.986  21.760  0.00  0.00    +0.000 A 
ATOM     25  C   UNL     1      -0.107  10.090  21.241  0.00  0.00    +0.000 A 
BRANCH  20  27
ATOM     26  O   UNL     1      -1.665  12.106  19.777  0.00  0.00    +0.000 OA
ATOM     27  C   UNL     1      -0.659  11.611  19.291  0.00  0.00    +0.000 C 
BRANCH  27  28
ATOM     28  O   UNL     1      -0.029  12.134  18.220  0.00  0.00    +0.000 OA
ATOM     29  H   UNL     1      -0.561  12.054  17.398  0.00  0.00    +0.000 HD
ENDBRANCH  27  28
ENDBRANCH  20  27
BRANCH  25  30
ATOM     30  O   UNL     1      -0.916  10.834  22.061  0.00  0.00    +0.000 OA
ATOM     31  H   UNL     1      -0.490  10.926  22.934  0.00  0.00    +0.000 HD
ENDBRANCH  25  30
ENDBRANCH  17  22
ENDBRANCH   1  17
TORSDOF 8
ENDMDL
