MODEL 1
REMARK VINA RESULT:      -7.3      0.000      0.000
REMARK  Name = 
REMARK  9 active torsions:
REMARK  status: ('A' for Active; 'I' for Inactive)
REMARK    1  A    between atoms: C_1  and  O_2
REMARK    2  A    between atoms: O_2  and  C_3
REMARK    3  A    between atoms: C_5  and  C_6
REMARK    4  A    between atoms: C_13  and  C_14
REMARK    5  A    between atoms: C_14  and  C_15
REMARK    6  A    between atoms: C_15  and  O_17
REMARK    7  A    between atoms: C_28  and  O_29
REMARK    8  A    between atoms: O_29  and  C_30
REMARK    9  A    between atoms: C_31  and  O_32
REMARK                            x       y       z     vdW  Elec       q    Type
REMARK                         _______ _______ _______ _____ _____    ______ ____
ROOT
ATOM      1  C   UNL     1       1.386   9.257  18.641  0.00  0.00    +0.000 C 
ATOM      2  C   UNL     1       1.505  10.831  18.325  0.00  0.00    +0.000 A 
ATOM      3  C   UNL     1       2.658  11.593  18.124  0.00  0.00    +0.000 A 
ATOM      4  C   UNL     1       2.539  12.998  18.216  0.00  0.00    +0.000 A 
ATOM      5  C   UNL     1       1.343  13.664  18.431  0.00  0.00    +0.000 A 
ATOM      6  C   UNL     1       0.167  13.008  18.570  0.00  0.00    +0.000 A 
ATOM      7  C   UNL     1       0.266  11.618  18.581  0.00  0.00    +0.000 A 
ATOM      8  C   UNL     1      -0.875  10.920  19.336  0.00  0.00    +0.000 C 
ATOM      9  C   UNL     1       0.044  10.317  20.424  0.00  0.00    +0.000 C 
ATOM     10  C   UNL     1      -0.147  10.293  21.907  0.00  0.00    +0.000 C 
ATOM     11  O   UNL     1       0.715   9.222  22.337  0.00  0.00    +0.000 OA
ATOM     12  C   UNL     1       1.212   8.517  21.270  0.00  0.00    +0.000 C 
ATOM     13  O   UNL     1       1.923   7.527  21.413  0.00  0.00    +0.000 OA
ATOM     14  C   UNL     1       0.584   9.004  19.982  0.00  0.00    +0.000 C 
ATOM     15  O   UNL     1       1.469  14.999  18.632  0.00  0.00    +0.000 OA
ATOM     16  C   UNL     1       2.891  15.140  18.533  0.00  0.00    +0.000 C 
ATOM     17  O   UNL     1       3.574  13.899  18.215  0.00  0.00    +0.000 OA
ENDROOT
BRANCH   1  20
ATOM     18  C   UNL     1       4.180   6.866  17.298  0.00  0.00    +0.000 A 
ATOM     19  C   UNL     1       3.520   8.078  17.652  0.00  0.00    +0.000 A 
ATOM     20  C   UNL     1       2.263   8.064  18.254  0.00  0.00    +0.000 A 
ATOM     21  C   UNL     1       1.645   6.784  18.368  0.00  0.00    +0.000 A 
ATOM     22  C   UNL     1       2.260   5.590  18.026  0.00  0.00    +0.000 A 
ATOM     23  C   UNL     1       3.563   5.630  17.551  0.00  0.00    +0.000 A 
BRANCH  18  25
ATOM     24  C   UNL     1       6.563   6.896  17.497  0.00  0.00    +0.000 C 
ATOM     25  O   UNL     1       5.398   7.064  16.694  0.00  0.00    +0.000 OA
ENDBRANCH  18  25
BRANCH  22  26
ATOM     26  O   UNL     1       1.671   4.352  18.122  0.00  0.00    +0.000 OA
ATOM     27  C   UNL     1       1.351   3.917  19.447  0.00  0.00    +0.000 C 
ENDBRANCH  22  26
BRANCH  23  28
ATOM     28  O   UNL     1       4.175   4.422  17.337  0.00  0.00    +0.000 OA
ATOM     29  H   UNL     1       5.118   4.635  17.188  0.00  0.00    +0.000 HD
ENDBRANCH  23  28
ENDBRANCH   1  20
BRANCH   8  30
ATOM     30  C   UNL     1      -1.613  10.259  18.141  0.00  0.00    +0.000 C 
BRANCH  30  31
ATOM     31  C   UNL     1      -2.658  11.042  17.410  0.00  0.00    +0.000 C 
ATOM     32  O   UNL     1      -3.778  11.261  17.815  0.00  0.00    +0.000 OA
BRANCH  31  33
ATOM     33  O   UNL     1      -2.227  11.458  16.195  0.00  0.00    +0.000 OA
ATOM     34  H   UNL     1      -1.303  11.228  15.976  0.00  0.00    +0.000 HD
ENDBRANCH  31  33
ENDBRANCH  30  31
ENDBRANCH   8  30
TORSDOF 7
ENDMDL
MODEL 2
REMARK VINA RESULT:      -7.2      3.549      8.326
REMARK  Name = 
REMARK  9 active torsions:
REMARK  status: ('A' for Active; 'I' for Inactive)
REMARK    1  A    between atoms: C_1  and  O_2
REMARK    2  A    between atoms: O_2  and  C_3
REMARK    3  A    between atoms: C_5  and  C_6
REMARK    4  A    between atoms: C_13  and  C_14
REMARK    5  A    between atoms: C_14  and  C_15
REMARK    6  A    between atoms: C_15  and  O_17
REMARK    7  A    between atoms: C_28  and  O_29
REMARK    8  A    between atoms: O_29  and  C_30
REMARK    9  A    between atoms: C_31  and  O_32
REMARK                            x       y       z     vdW  Elec       q    Type
REMARK                         _______ _______ _______ _____ _____    ______ ____
ROOT
ATOM      1  C   UNL     1      -1.373  12.270  21.152  0.00  0.00    +0.000 C 
ATOM      2  C   UNL     1      -1.912  12.168  19.639  0.00  0.00    +0.000 A 
ATOM      3  C   UNL     1      -3.215  11.935  19.194  0.00  0.00    +0.000 A 
ATOM      4  C   UNL     1      -3.387  11.536  17.849  0.00  0.00    +0.000 A 
ATOM      5  C   UNL     1      -2.352  11.422  16.935  0.00  0.00    +0.000 A 
ATOM      6  C   UNL     1      -1.067  11.694  17.262  0.00  0.00    +0.000 A 
ATOM      7  C   UNL     1      -0.852  11.995  18.605  0.00  0.00    +0.000 A 
ATOM      8  C   UNL     1       0.571  11.686  19.093  0.00  0.00    +0.000 C 
ATOM      9  C   UNL     1       0.124  10.606  20.107  0.00  0.00    +0.000 C 
ATOM     10  C   UNL     1       0.698   9.246  20.344  0.00  0.00    +0.000 C 
ATOM     11  O   UNL     1       0.235   8.914  21.667  0.00  0.00    +0.000 OA
ATOM     12  C   UNL     1      -0.357   9.991  22.277  0.00  0.00    +0.000 C 
ATOM     13  O   UNL     1      -0.771   9.944  23.431  0.00  0.00    +0.000 OA
ATOM     14  C   UNL     1      -0.211  11.227  21.415  0.00  0.00    +0.000 C 
ATOM     15  O   UNL     1      -2.710  10.886  15.742  0.00  0.00    +0.000 OA
ATOM     16  C   UNL     1      -4.103  10.649  15.974  0.00  0.00    +0.000 C 
ATOM     17  O   UNL     1      -4.556  11.105  17.277  0.00  0.00    +0.000 OA
ENDROOT
BRANCH   1  20
ATOM     18  C   UNL     1      -3.747  12.885  24.204  0.00  0.00    +0.000 A 
ATOM     19  C   UNL     1      -3.231  12.294  23.014  0.00  0.00    +0.000 A 
ATOM     20  C   UNL     1      -2.038  12.739  22.449  0.00  0.00    +0.000 A 
ATOM     21  C   UNL     1      -1.453  13.888  23.058  0.00  0.00    +0.000 A 
ATOM     22  C   UNL     1      -1.936  14.487  24.212  0.00  0.00    +0.000 A 
ATOM     23  C   UNL     1      -3.053  13.937  24.824  0.00  0.00    +0.000 A 
BRANCH  18  25
ATOM     24  C   UNL     1      -6.129  12.845  24.004  0.00  0.00    +0.000 C 
ATOM     25  O   UNL     1      -4.942  12.342  24.610  0.00  0.00    +0.000 OA
ENDBRANCH  18  25
BRANCH  22  26
ATOM     26  O   UNL     1      -1.387  15.599  24.803  0.00  0.00    +0.000 OA
ATOM     27  C   UNL     1      -1.343  16.778  23.993  0.00  0.00    +0.000 C 
ENDBRANCH  22  26
BRANCH  23  28
ATOM     28  O   UNL     1      -3.427  14.486  26.024  0.00  0.00    +0.000 OA
ATOM     29  H   UNL     1      -4.402  14.423  26.042  0.00  0.00    +0.000 HD
ENDBRANCH  23  28
ENDBRANCH   1  20
BRANCH   8  30
ATOM     30  C   UNL     1       1.095  13.131  19.305  0.00  0.00    +0.000 C 
BRANCH  30  31
ATOM     31  C   UNL     1       2.061  13.705  18.315  0.00  0.00    +0.000 C 
ATOM     32  O   UNL     1       2.407  14.865  18.268  0.00  0.00    +0.000 OA
BRANCH  31  33
ATOM     33  O   UNL     1       2.489  12.779  17.424  0.00  0.00    +0.000 OA
ATOM     34  H   UNL     1       3.445  12.798  17.225  0.00  0.00    +0.000 HD
ENDBRANCH  31  33
ENDBRANCH  30  31
ENDBRANCH   8  30
TORSDOF 7
ENDMDL
MODEL 3
REMARK VINA RESULT:      -7.2      3.569      8.039
REMARK  Name = 
REMARK  9 active torsions:
REMARK  status: ('A' for Active; 'I' for Inactive)
REMARK    1  A    between atoms: C_1  and  O_2
REMARK    2  A    between atoms: O_2  and  C_3
REMARK    3  A    between atoms: C_5  and  C_6
REMARK    4  A    between atoms: C_13  and  C_14
REMARK    5  A    between atoms: C_14  and  C_15
REMARK    6  A    between atoms: C_15  and  O_17
REMARK    7  A    between atoms: C_28  and  O_29
REMARK    8  A    between atoms: O_29  and  C_30
REMARK    9  A    between atoms: C_31  and  O_32
REMARK                            x       y       z     vdW  Elec       q    Type
REMARK                         _______ _______ _______ _____ _____    ______ ____
ROOT
ATOM      1  C   UNL     1      -1.081  12.403  21.138  0.00  0.00    +0.000 C 
ATOM      2  C   UNL     1      -1.689  12.204  19.662  0.00  0.00    +0.000 A 
ATOM      3  C   UNL     1      -3.029  12.131  19.276  0.00  0.00    +0.000 A 
ATOM      4  C   UNL     1      -3.315  11.603  17.996  0.00  0.00    +0.000 A 
ATOM      5  C   UNL     1      -2.348  11.213  17.084  0.00  0.00    +0.000 A 
ATOM      6  C   UNL     1      -1.024  11.312  17.349  0.00  0.00    +0.000 A 
ATOM      7  C   UNL     1      -0.711  11.737  18.637  0.00  0.00    +0.000 A 
ATOM      8  C   UNL     1       0.663  11.265  19.133  0.00  0.00    +0.000 C 
ATOM      9  C   UNL     1       0.093  10.404  20.284  0.00  0.00    +0.000 C 
ATOM     10  C   UNL     1       0.455   9.009  20.682  0.00  0.00    +0.000 C 
ATOM     11  O   UNL     1      -0.001   8.921  22.045  0.00  0.00    +0.000 OA
ATOM     12  C   UNL     1      -0.392  10.145  22.525  0.00  0.00    +0.000 C 
ATOM     13  O   UNL     1      -0.762  10.308  23.683  0.00  0.00    +0.000 OA
ATOM     14  C   UNL     1      -0.088  11.227  21.509  0.00  0.00    +0.000 C 
ATOM     15  O   UNL     1      -2.833  10.599  15.976  0.00  0.00    +0.000 OA
ATOM     16  C   UNL     1      -4.236  10.620  16.264  0.00  0.00    +0.000 C 
ATOM     17  O   UNL     1      -4.560  11.299  17.507  0.00  0.00    +0.000 OA
ENDROOT
BRANCH   1  20
ATOM     18  C   UNL     1      -1.552  14.527  24.393  0.00  0.00    +0.000 A 
ATOM     19  C   UNL     1      -0.922  13.979  23.239  0.00  0.00    +0.000 A 
ATOM     20  C   UNL     1      -1.612  13.129  22.378  0.00  0.00    +0.000 A 
ATOM     21  C   UNL     1      -2.922  12.752  22.796  0.00  0.00    +0.000 A 
ATOM     22  C   UNL     1      -3.558  13.264  23.916  0.00  0.00    +0.000 A 
ATOM     23  C   UNL     1      -2.890  14.209  24.681  0.00  0.00    +0.000 A 
BRANCH  18  25
ATOM     24  C   UNL     1      -0.597  16.689  24.754  0.00  0.00    +0.000 C 
ATOM     25  O   UNL     1      -0.721  15.324  25.143  0.00  0.00    +0.000 OA
ENDBRANCH  18  25
BRANCH  22  26
ATOM     26  O   UNL     1      -4.816  12.902  24.334  0.00  0.00    +0.000 OA
ATOM     27  C   UNL     1      -5.860  13.055  23.368  0.00  0.00    +0.000 C 
ENDBRANCH  22  26
BRANCH  23  28
ATOM     28  O   UNL     1      -3.597  14.777  25.709  0.00  0.00    +0.000 OA
ATOM     29  H   UNL     1      -3.486  14.166  26.465  0.00  0.00    +0.000 HD
ENDBRANCH  23  28
ENDBRANCH   1  20
BRANCH   8  30
ATOM     30  C   UNL     1       1.416  12.622  19.148  0.00  0.00    +0.000 C 
BRANCH  30  31
ATOM     31  C   UNL     1       2.427  12.903  18.081  0.00  0.00    +0.000 C 
ATOM     32  O   UNL     1       3.030  13.945  17.945  0.00  0.00    +0.000 OA
BRANCH  31  33
ATOM     33  O   UNL     1       2.573  11.860  17.229  0.00  0.00    +0.000 OA
ATOM     34  H   UNL     1       3.423  11.825  16.749  0.00  0.00    +0.000 HD
ENDBRANCH  31  33
ENDBRANCH  30  31
ENDBRANCH   8  30
TORSDOF 7
ENDMDL
MODEL 4
REMARK VINA RESULT:      -6.8      0.940      2.251
REMARK  Name = 
REMARK  9 active torsions:
REMARK  status: ('A' for Active; 'I' for Inactive)
REMARK    1  A    between atoms: C_1  and  O_2
REMARK    2  A    between atoms: O_2  and  C_3
REMARK    3  A    between atoms: C_5  and  C_6
REMARK    4  A    between atoms: C_13  and  C_14
REMARK    5  A    between atoms: C_14  and  C_15
REMARK    6  A    between atoms: C_15  and  O_17
REMARK    7  A    between atoms: C_28  and  O_29
REMARK    8  A    between atoms: O_29  and  C_30
REMARK    9  A    between atoms: C_31  and  O_32
REMARK                            x       y       z     vdW  Elec       q    Type
REMARK                         _______ _______ _______ _____ _____    ______ ____
ROOT
ATOM      1  C   UNL     1       1.052   9.531  19.186  0.00  0.00    +0.000 C 
ATOM      2  C   UNL     1       1.326  11.014  18.625  0.00  0.00    +0.000 A 
ATOM      3  C   UNL     1       2.551  11.631  18.363  0.00  0.00    +0.000 A 
ATOM      4  C   UNL     1       2.560  13.037  18.219  0.00  0.00    +0.000 A 
ATOM      5  C   UNL     1       1.423  13.828  18.263  0.00  0.00    +0.000 A 
ATOM      6  C   UNL     1       0.188  13.307  18.447  0.00  0.00    +0.000 A 
ATOM      7  C   UNL     1       0.157  11.936  18.688  0.00  0.00    +0.000 A 
ATOM      8  C   UNL     1      -1.070  11.472  19.487  0.00  0.00    +0.000 C 
ATOM      9  C   UNL     1      -0.250  10.982  20.704  0.00  0.00    +0.000 C 
ATOM     10  C   UNL     1      -0.495  11.221  22.160  0.00  0.00    +0.000 C 
ATOM     11  O   UNL     1       0.249  10.167  22.801  0.00  0.00    +0.000 OA
ATOM     12  C   UNL     1       0.716   9.255  21.889  0.00  0.00    +0.000 C 
ATOM     13  O   UNL     1       1.327   8.245  22.226  0.00  0.00    +0.000 OA
ATOM     14  C   UNL     1       0.182   9.573  20.508  0.00  0.00    +0.000 C 
ATOM     15  O   UNL     1       1.665  15.163  18.250  0.00  0.00    +0.000 OA
ATOM     16  C   UNL     1       3.096  15.164  18.201  0.00  0.00    +0.000 C 
ATOM     17  O   UNL     1       3.673  13.834  18.124  0.00  0.00    +0.000 OA
ENDROOT
BRANCH   1  20
ATOM     18  C   UNL     1       2.685   6.005  19.664  0.00  0.00    +0.000 A 
ATOM     19  C   UNL     1       1.853   7.134  19.916  0.00  0.00    +0.000 A 
ATOM     20  C   UNL     1       1.829   8.219  19.043  0.00  0.00    +0.000 A 
ATOM     21  C   UNL     1       2.773   8.178  17.976  0.00  0.00    +0.000 A 
ATOM     22  C   UNL     1       3.599   7.097  17.709  0.00  0.00    +0.000 A 
ATOM     23  C   UNL     1       3.504   5.977  18.523  0.00  0.00    +0.000 A 
BRANCH  18  25
ATOM     24  C   UNL     1       1.409   4.262  20.689  0.00  0.00    +0.000 C 
ATOM     25  O   UNL     1       2.603   5.038  20.636  0.00  0.00    +0.000 OA
ENDBRANCH  18  25
BRANCH  22  26
ATOM     26  O   UNL     1       4.519   7.049  16.690  0.00  0.00    +0.000 OA
ATOM     27  C   UNL     1       5.888   7.189  17.079  0.00  0.00    +0.000 C 
ENDBRANCH  22  26
BRANCH  23  28
ATOM     28  O   UNL     1       4.252   4.887  18.155  0.00  0.00    +0.000 OA
ATOM     29  H   UNL     1       4.513   4.461  18.996  0.00  0.00    +0.000 HD
ENDBRANCH  23  28
ENDBRANCH   1  20
BRANCH   8  30
ATOM     30  C   UNL     1      -1.822  10.686  18.380  0.00  0.00    +0.000 C 
BRANCH  30  31
ATOM     31  C   UNL     1      -2.782  11.419  17.495  0.00  0.00    +0.000 C 
ATOM     32  O   UNL     1      -3.904  11.754  17.806  0.00  0.00    +0.000 OA
BRANCH  31  33
ATOM     33  O   UNL     1      -2.271  11.640  16.260  0.00  0.00    +0.000 OA
ATOM     34  H   UNL     1      -1.705  12.431  16.175  0.00  0.00    +0.000 HD
ENDBRANCH  31  33
ENDBRANCH  30  31
ENDBRANCH   8  30
TORSDOF 7
ENDMDL
MODEL 5
REMARK VINA RESULT:      -6.8      0.372      2.197
REMARK  Name = 
REMARK  9 active torsions:
REMARK  status: ('A' for Active; 'I' for Inactive)
REMARK    1  A    between atoms: C_1  and  O_2
REMARK    2  A    between atoms: O_2  and  C_3
REMARK    3  A    between atoms: C_5  and  C_6
REMARK    4  A    between atoms: C_13  and  C_14
REMARK    5  A    between atoms: C_14  and  C_15
REMARK    6  A    between atoms: C_15  and  O_17
REMARK    7  A    between atoms: C_28  and  O_29
REMARK    8  A    between atoms: O_29  and  C_30
REMARK    9  A    between atoms: C_31  and  O_32
REMARK                            x       y       z     vdW  Elec       q    Type
REMARK                         _______ _______ _______ _____ _____    ______ ____
ROOT
ATOM      1  C   UNL     1       1.353   9.004  18.544  0.00  0.00    +0.000 C 
ATOM      2  C   UNL     1       1.532  10.573  18.236  0.00  0.00    +0.000 A 
ATOM      3  C   UNL     1       2.712  11.284  18.004  0.00  0.00    +0.000 A 
ATOM      4  C   UNL     1       2.660  12.693  18.110  0.00  0.00    +0.000 A 
ATOM      5  C   UNL     1       1.503  13.409  18.368  0.00  0.00    +0.000 A 
ATOM      6  C   UNL     1       0.304  12.806  18.540  0.00  0.00    +0.000 A 
ATOM      7  C   UNL     1       0.339  11.414  18.538  0.00  0.00    +0.000 A 
ATOM      8  C   UNL     1      -0.808  10.760  19.323  0.00  0.00    +0.000 C 
ATOM      9  C   UNL     1       0.117  10.108  20.377  0.00  0.00    +0.000 C 
ATOM     10  C   UNL     1      -0.028  10.078  21.865  0.00  0.00    +0.000 C 
ATOM     11  O   UNL     1       0.798   8.966  22.259  0.00  0.00    +0.000 OA
ATOM     12  C   UNL     1       1.228   8.249  21.172  0.00  0.00    +0.000 C 
ATOM     13  O   UNL     1       1.897   7.227  21.285  0.00  0.00    +0.000 OA
ATOM     14  C   UNL     1       0.582   8.776  19.908  0.00  0.00    +0.000 C 
ATOM     15  O   UNL     1       1.696  14.736  18.574  0.00  0.00    +0.000 OA
ATOM     16  C   UNL     1       3.119  14.814  18.431  0.00  0.00    +0.000 C 
ATOM     17  O   UNL     1       3.734  13.545  18.083  0.00  0.00    +0.000 OA
ENDROOT
BRANCH   1  20
ATOM     18  C   UNL     1       2.792   5.408  17.972  0.00  0.00    +0.000 A 
ATOM     19  C   UNL     1       1.896   6.435  18.388  0.00  0.00    +0.000 A 
ATOM     20  C   UNL     1       2.162   7.776  18.121  0.00  0.00    +0.000 A 
ATOM     21  C   UNL     1       3.431   8.049  17.530  0.00  0.00    +0.000 A 
ATOM     22  C   UNL     1       4.326   7.073  17.121  0.00  0.00    +0.000 A 
ATOM     23  C   UNL     1       3.970   5.741  17.284  0.00  0.00    +0.000 A 
BRANCH  18  25
ATOM     24  C   UNL     1       1.437   4.046  19.394  0.00  0.00    +0.000 C 
ATOM     25  O   UNL     1       2.387   4.148  18.338  0.00  0.00    +0.000 OA
ENDBRANCH  18  25
BRANCH  22  26
ATOM     26  O   UNL     1       5.554   7.324  16.559  0.00  0.00    +0.000 OA
ATOM     27  C   UNL     1       6.664   7.320  17.462  0.00  0.00    +0.000 C 
ENDBRANCH  22  26
BRANCH  23  28
ATOM     28  O   UNL     1       4.829   4.810  16.759  0.00  0.00    +0.000 OA
ATOM     29  H   UNL     1       5.515   4.680  17.443  0.00  0.00    +0.000 HD
ENDBRANCH  23  28
ENDBRANCH   1  20
BRANCH   8  30
ATOM     30  C   UNL     1      -1.612  10.144  18.148  0.00  0.00    +0.000 C 
BRANCH  30  31
ATOM     31  C   UNL     1      -2.677  10.963  17.489  0.00  0.00    +0.000 C 
ATOM     32  O   UNL     1      -3.813  11.088  17.890  0.00  0.00    +0.000 OA
BRANCH  31  33
ATOM     33  O   UNL     1      -2.243  11.534  16.340  0.00  0.00    +0.000 OA
ATOM     34  H   UNL     1      -2.656  12.390  16.114  0.00  0.00    +0.000 HD
ENDBRANCH  31  33
ENDBRANCH  30  31
ENDBRANCH   8  30
TORSDOF 7
ENDMDL
MODEL 6
REMARK VINA RESULT:      -6.6      4.202      8.896
REMARK  Name = 
REMARK  9 active torsions:
REMARK  status: ('A' for Active; 'I' for Inactive)
REMARK    1  A    between atoms: C_1  and  O_2
REMARK    2  A    between atoms: O_2  and  C_3
REMARK    3  A    between atoms: C_5  and  C_6
REMARK    4  A    between atoms: C_13  and  C_14
REMARK    5  A    between atoms: C_14  and  C_15
REMARK    6  A    between atoms: C_15  and  O_17
REMARK    7  A    between atoms: C_28  and  O_29
REMARK    8  A    between atoms: O_29  and  C_30
REMARK    9  A    between atoms: C_31  and  O_32
REMARK                            x       y       z     vdW  Elec       q    Type
REMARK                         _______ _______ _______ _____ _____    ______ ____
ROOT
ATOM      1  C   UNL     1      -2.198  13.238  21.214  0.00  0.00    +0.000 C 
ATOM      2  C   UNL     1      -1.457  11.809  21.256  0.00  0.00    +0.000 A 
ATOM      3  C   UNL     1      -0.800  11.202  22.329  0.00  0.00    +0.000 A 
ATOM      4  C   UNL     1       0.070  10.127  22.041  0.00  0.00    +0.000 A 
ATOM      5  C   UNL     1       0.263   9.602  20.774  0.00  0.00    +0.000 A 
ATOM      6  C   UNL     1      -0.384  10.085  19.687  0.00  0.00    +0.000 A 
ATOM      7  C   UNL     1      -1.174  11.208  19.922  0.00  0.00    +0.000 A 
ATOM      8  C   UNL     1      -1.379  12.096  18.686  0.00  0.00    +0.000 C 
ATOM      9  C   UNL     1      -0.650  13.320  19.289  0.00  0.00    +0.000 C 
ATOM     10  C   UNL     1       0.378  14.205  18.660  0.00  0.00    +0.000 C 
ATOM     11  O   UNL     1       0.322  15.403  19.458  0.00  0.00    +0.000 OA
ATOM     12  C   UNL     1      -0.740  15.378  20.327  0.00  0.00    +0.000 C 
ATOM     13  O   UNL     1      -1.008  16.324  21.061  0.00  0.00    +0.000 OA
ATOM     14  C   UNL     1      -1.597  14.156  20.073  0.00  0.00    +0.000 C 
ATOM     15  O   UNL     1       1.246   8.672  20.692  0.00  0.00    +0.000 OA
ATOM     16  C   UNL     1       1.690   8.648  22.053  0.00  0.00    +0.000 C 
ATOM     17  O   UNL     1       0.922   9.517  22.927  0.00  0.00    +0.000 OA
ENDROOT
BRANCH   1  20
ATOM     18  C   UNL     1      -3.397  14.976  24.510  0.00  0.00    +0.000 A 
ATOM     19  C   UNL     1      -2.565  14.240  23.618  0.00  0.00    +0.000 A 
ATOM     20  C   UNL     1      -2.929  14.047  22.287  0.00  0.00    +0.000 A 
ATOM     21  C   UNL     1      -4.226  14.516  21.926  0.00  0.00    +0.000 A 
ATOM     22  C   UNL     1      -5.060  15.229  22.773  0.00  0.00    +0.000 A 
ATOM     23  C   UNL     1      -4.610  15.517  24.054  0.00  0.00    +0.000 A 
BRANCH  18  25
ATOM     24  C   UNL     1      -1.588  15.585  25.950  0.00  0.00    +0.000 C 
ATOM     25  O   UNL     1      -2.898  15.048  25.788  0.00  0.00    +0.000 OA
ENDBRANCH  18  25
BRANCH  22  26
ATOM     26  O   UNL     1      -6.315  15.678  22.439  0.00  0.00    +0.000 OA
ATOM     27  C   UNL     1      -7.250  14.672  22.038  0.00  0.00    +0.000 C 
ENDBRANCH  22  26
BRANCH  23  28
ATOM     28  O   UNL     1      -5.413  16.324  24.819  0.00  0.00    +0.000 OA
ATOM     29  H   UNL     1      -6.318  15.975  24.695  0.00  0.00    +0.000 HD
ENDBRANCH  23  28
ENDBRANCH   1  20
BRANCH   8  30
ATOM     30  C   UNL     1      -2.885  11.833  18.421  0.00  0.00    +0.000 C 
BRANCH  30  31
ATOM     31  C   UNL     1      -3.320  11.435  17.045  0.00  0.00    +0.000 C 
ATOM     32  O   UNL     1      -4.441  11.093  16.738  0.00  0.00    +0.000 OA
BRANCH  31  33
ATOM     33  O   UNL     1      -2.295  11.455  16.160  0.00  0.00    +0.000 OA
ATOM     34  H   UNL     1      -2.455  10.979  15.322  0.00  0.00    +0.000 HD
ENDBRANCH  31  33
ENDBRANCH  30  31
ENDBRANCH   8  30
TORSDOF 7
ENDMDL
MODEL 7
REMARK VINA RESULT:      -6.6      3.491      8.161
REMARK  Name = 
REMARK  9 active torsions:
REMARK  status: ('A' for Active; 'I' for Inactive)
REMARK    1  A    between atoms: C_1  and  O_2
REMARK    2  A    between atoms: O_2  and  C_3
REMARK    3  A    between atoms: C_5  and  C_6
REMARK    4  A    between atoms: C_13  and  C_14
REMARK    5  A    between atoms: C_14  and  C_15
REMARK    6  A    between atoms: C_15  and  O_17
REMARK    7  A    between atoms: C_28  and  O_29
REMARK    8  A    between atoms: O_29  and  C_30
REMARK    9  A    between atoms: C_31  and  O_32
REMARK                            x       y       z     vdW  Elec       q    Type
REMARK                         _______ _______ _______ _____ _____    ______ ____
ROOT
ATOM      1  C   UNL     1      -2.030  12.469  20.226  0.00  0.00    +0.000 C 
ATOM      2  C   UNL     1      -0.513  12.908  19.918  0.00  0.00    +0.000 A 
ATOM      3  C   UNL     1      -0.020  14.178  19.613  0.00  0.00    +0.000 A 
ATOM      4  C   UNL     1       1.268  14.261  19.037  0.00  0.00    +0.000 A 
ATOM      5  C   UNL     1       2.091  13.169  18.815  0.00  0.00    +0.000 A 
ATOM      6  C   UNL     1       1.721  11.909  19.141  0.00  0.00    +0.000 A 
ATOM      7  C   UNL     1       0.419  11.783  19.621  0.00  0.00    +0.000 A 
ATOM      8  C   UNL     1      -0.196  10.394  19.394  0.00  0.00    +0.000 C 
ATOM      9  C   UNL     1      -1.314  10.903  18.454  0.00  0.00    +0.000 C 
ATOM     10  C   UNL     1      -1.767  10.342  17.144  0.00  0.00    +0.000 C 
ATOM     11  O   UNL     1      -3.090  10.890  16.985  0.00  0.00    +0.000 OA
ATOM     12  C   UNL     1      -3.512  11.523  18.127  0.00  0.00    +0.000 C 
ATOM     13  O   UNL     1      -4.632  12.012  18.229  0.00  0.00    +0.000 OA
ATOM     14  C   UNL     1      -2.504  11.325  19.240  0.00  0.00    +0.000 C 
ATOM     15  O   UNL     1       3.222  13.447  18.121  0.00  0.00    +0.000 OA
ATOM     16  C   UNL     1       3.050  14.852  17.902  0.00  0.00    +0.000 C 
ATOM     17  O   UNL     1       1.852  15.390  18.521  0.00  0.00    +0.000 OA
ENDROOT
BRANCH   1  20
ATOM     18  C   UNL     1      -4.718  15.094  21.328  0.00  0.00    +0.000 A 
ATOM     19  C   UNL     1      -3.632  14.521  20.604  0.00  0.00    +0.000 A 
ATOM     20  C   UNL     1      -3.207  13.218  20.855  0.00  0.00    +0.000 A 
ATOM     21  C   UNL     1      -3.836  12.562  21.954  0.00  0.00    +0.000 A 
ATOM     22  C   UNL     1      -4.889  13.097  22.680  0.00  0.00    +0.000 A 
ATOM     23  C   UNL     1      -5.375  14.345  22.318  0.00  0.00    +0.000 A 
BRANCH  18  25
ATOM     24  C   UNL     1      -5.641  16.605  19.721  0.00  0.00    +0.000 C 
ATOM     25  O   UNL     1      -4.989  16.392  20.969  0.00  0.00    +0.000 OA
ENDBRANCH  18  25
BRANCH  22  26
ATOM     26  O   UNL     1      -5.496  12.478  23.746  0.00  0.00    +0.000 OA
ATOM     27  C   UNL     1      -4.689  12.320  24.917  0.00  0.00    +0.000 C 
ENDBRANCH  22  26
BRANCH  23  28
ATOM     28  O   UNL     1      -6.490  14.785  22.983  0.00  0.00    +0.000 OA
ATOM     29  H   UNL     1      -6.744  15.617  22.536  0.00  0.00    +0.000 HD
ENDBRANCH  23  28
ENDBRANCH   1  20
BRANCH   8  30
ATOM     30  C   UNL     1      -0.247   9.888  20.861  0.00  0.00    +0.000 C 
BRANCH  30  31
ATOM     31  C   UNL     1       0.974   9.258  21.453  0.00  0.00    +0.000 C 
ATOM     32  O   UNL     1       1.496   9.589  22.495  0.00  0.00    +0.000 OA
BRANCH  31  33
ATOM     33  O   UNL     1       1.478   8.279  20.664  0.00  0.00    +0.000 OA
ATOM     34  H   UNL     1       1.317   7.367  20.972  0.00  0.00    +0.000 HD
ENDBRANCH  31  33
ENDBRANCH  30  31
ENDBRANCH   8  30
TORSDOF 7
ENDMDL
MODEL 8
REMARK VINA RESULT:      -6.5      2.458      7.377
REMARK  Name = 
REMARK  9 active torsions:
REMARK  status: ('A' for Active; 'I' for Inactive)
REMARK    1  A    between atoms: C_1  and  O_2
REMARK    2  A    between atoms: O_2  and  C_3
REMARK    3  A    between atoms: C_5  and  C_6
REMARK    4  A    between atoms: C_13  and  C_14
REMARK    5  A    between atoms: C_14  and  C_15
REMARK    6  A    between atoms: C_15  and  O_17
REMARK    7  A    between atoms: C_28  and  O_29
REMARK    8  A    between atoms: O_29  and  C_30
REMARK    9  A    between atoms: C_31  and  O_32
REMARK                            x       y       z     vdW  Elec       q    Type
REMARK                         _______ _______ _______ _____ _____    ______ ____
ROOT
ATOM      1  C   UNL     1       0.565  12.614  19.623  0.00  0.00    +0.000 C 
ATOM      2  C   UNL     1      -0.523  11.807  18.754  0.00  0.00    +0.000 A 
ATOM      3  C   UNL     1      -1.504  12.317  17.901  0.00  0.00    +0.000 A 
ATOM      4  C   UNL     1      -2.561  11.455  17.529  0.00  0.00    +0.000 A 
ATOM      5  C   UNL     1      -2.649  10.125  17.909  0.00  0.00    +0.000 A 
ATOM      6  C   UNL     1      -1.708   9.532  18.680  0.00  0.00    +0.000 A 
ATOM      7  C   UNL     1      -0.704  10.380  19.143  0.00  0.00    +0.000 A 
ATOM      8  C   UNL     1      -0.046   9.911  20.448  0.00  0.00    +0.000 C 
ATOM      9  C   UNL     1      -0.521  11.130  21.273  0.00  0.00    +0.000 C 
ATOM     10  C   UNL     1      -1.142  11.160  22.634  0.00  0.00    +0.000 C 
ATOM     11  O   UNL     1      -0.917  12.513  23.074  0.00  0.00    +0.000 OA
ATOM     12  C   UNL     1      -0.079  13.186  22.221  0.00  0.00    +0.000 C 
ATOM     13  O   UNL     1       0.291  14.336  22.439  0.00  0.00    +0.000 OA
ATOM     14  C   UNL     1       0.453  12.247  21.159  0.00  0.00    +0.000 C 
ATOM     15  O   UNL     1      -3.812   9.517  17.568  0.00  0.00    +0.000 OA
ATOM     16  C   UNL     1      -4.490  10.602  16.924  0.00  0.00    +0.000 C 
ATOM     17  O   UNL     1      -3.693  11.813  16.842  0.00  0.00    +0.000 OA
ENDROOT
BRANCH   1  20
ATOM     18  C   UNL     1       1.528  16.316  18.793  0.00  0.00    +0.000 A 
ATOM     19  C   UNL     1       0.713  15.172  19.028  0.00  0.00    +0.000 A 
ATOM     20  C   UNL     1       1.275  13.951  19.395  0.00  0.00    +0.000 A 
ATOM     21  C   UNL     1       2.699  13.898  19.389  0.00  0.00    +0.000 A 
ATOM     22  C   UNL     1       3.518  14.992  19.157  0.00  0.00    +0.000 A 
ATOM     23  C   UNL     1       2.923  16.224  18.924  0.00  0.00    +0.000 A 
BRANCH  18  25
ATOM     24  C   UNL     1      -0.525  17.228  17.972  0.00  0.00    +0.000 C 
ATOM     25  O   UNL     1       0.814  17.428  18.418  0.00  0.00    +0.000 OA
ENDBRANCH  18  25
BRANCH  22  26
ATOM     26  O   UNL     1       4.891  14.951  19.140  0.00  0.00    +0.000 OA
ATOM     27  C   UNL     1       5.488  14.588  17.892  0.00  0.00    +0.000 C 
ENDBRANCH  22  26
BRANCH  23  28
ATOM     28  O   UNL     1       3.766  17.301  18.818  0.00  0.00    +0.000 OA
ATOM     29  H   UNL     1       4.429  17.177  19.526  0.00  0.00    +0.000 HD
ENDBRANCH  23  28
ENDBRANCH   1  20
BRANCH   8  30
ATOM     30  C   UNL     1       1.358   9.526  19.910  0.00  0.00    +0.000 C 
BRANCH  30  31
ATOM     31  C   UNL     1       1.843   8.121  20.088  0.00  0.00    +0.000 C 
ATOM     32  O   UNL     1       2.265   7.410  19.204  0.00  0.00    +0.000 OA
BRANCH  31  33
ATOM     33  O   UNL     1       1.719   7.697  21.369  0.00  0.00    +0.000 OA
ATOM     34  H   UNL     1       2.075   8.302  22.048  0.00  0.00    +0.000 HD
ENDBRANCH  31  33
ENDBRANCH  30  31
ENDBRANCH   8  30
TORSDOF 7
ENDMDL
MODEL 9
REMARK VINA RESULT:      -6.5      4.280      9.086
REMARK  Name = 
REMARK  9 active torsions:
REMARK  status: ('A' for Active; 'I' for Inactive)
REMARK    1  A    between atoms: C_1  and  O_2
REMARK    2  A    between atoms: O_2  and  C_3
REMARK    3  A    between atoms: C_5  and  C_6
REMARK    4  A    between atoms: C_13  and  C_14
REMARK    5  A    between atoms: C_14  and  C_15
REMARK    6  A    between atoms: C_15  and  O_17
REMARK    7  A    between atoms: C_28  and  O_29
REMARK    8  A    between atoms: O_29  and  C_30
REMARK    9  A    between atoms: C_31  and  O_32
REMARK                            x       y       z     vdW  Elec       q    Type
REMARK                         _______ _______ _______ _____ _____    ______ ____
ROOT
ATOM      1  C   UNL     1      -2.280  13.358  21.021  0.00  0.00    +0.000 C 
ATOM      2  C   UNL     1      -1.523  11.951  21.215  0.00  0.00    +0.000 A 
ATOM      3  C   UNL     1      -1.005  11.397  22.388  0.00  0.00    +0.000 A 
ATOM      4  C   UNL     1      -0.082  10.335  22.259  0.00  0.00    +0.000 A 
ATOM      5  C   UNL     1       0.291   9.773  21.049  0.00  0.00    +0.000 A 
ATOM      6  C   UNL     1      -0.212  10.203  19.869  0.00  0.00    +0.000 A 
ATOM      7  C   UNL     1      -1.050  11.312  19.954  0.00  0.00    +0.000 A 
ATOM      8  C   UNL     1      -1.104  12.153  18.670  0.00  0.00    +0.000 C 
ATOM      9  C   UNL     1      -0.488  13.415  19.321  0.00  0.00    +0.000 C 
ATOM     10  C   UNL     1       0.598  14.304  18.803  0.00  0.00    +0.000 C 
ATOM     11  O   UNL     1       0.409  15.525  19.542  0.00  0.00    +0.000 OA
ATOM     12  C   UNL     1      -0.759  15.504  20.260  0.00  0.00    +0.000 C 
ATOM     13  O   UNL     1      -1.143  16.467  20.916  0.00  0.00    +0.000 OA
ATOM     14  C   UNL     1      -1.549  14.253  19.938  0.00  0.00    +0.000 C 
ATOM     15  O   UNL     1       1.295   8.866  21.135  0.00  0.00    +0.000 OA
ATOM     16  C   UNL     1       1.551   8.898  22.544  0.00  0.00    +0.000 C 
ATOM     17  O   UNL     1       0.654   9.776  23.273  0.00  0.00    +0.000 OA
ENDROOT
BRANCH   1  20
ATOM     18  C   UNL     1      -4.926  15.763  22.615  0.00  0.00    +0.000 A 
ATOM     19  C   UNL     1      -4.240  15.007  21.621  0.00  0.00    +0.000 A 
ATOM     20  C   UNL     1      -3.166  14.185  21.956  0.00  0.00    +0.000 A 
ATOM     21  C   UNL     1      -2.731  14.255  23.312  0.00  0.00    +0.000 A 
ATOM     22  C   UNL     1      -3.374  14.987  24.299  0.00  0.00    +0.000 A 
ATOM     23  C   UNL     1      -4.520  15.691  23.957  0.00  0.00    +0.000 A 
BRANCH  18  25
ATOM     24  C   UNL     1      -7.187  15.893  21.847  0.00  0.00    +0.000 C 
ATOM     25  O   UNL     1      -5.943  16.536  22.108  0.00  0.00    +0.000 OA
ENDBRANCH  18  25
BRANCH  22  26
ATOM     26  O   UNL     1      -2.960  15.069  25.606  0.00  0.00    +0.000 OA
ATOM     27  C   UNL     1      -1.718  15.746  25.823  0.00  0.00    +0.000 C 
ENDBRANCH  22  26
BRANCH  23  28
ATOM     28  O   UNL     1      -5.192  16.303  24.984  0.00  0.00    +0.000 OA
ATOM     29  H   UNL     1      -6.001  15.771  25.114  0.00  0.00    +0.000 HD
ENDBRANCH  23  28
ENDBRANCH   1  20
BRANCH   8  30
ATOM     30  C   UNL     1      -2.554  11.844  18.215  0.00  0.00    +0.000 C 
BRANCH  30  31
ATOM     31  C   UNL     1      -2.771  10.888  17.083  0.00  0.00    +0.000 C 
ATOM     32  O   UNL     1      -3.171   9.750  17.195  0.00  0.00    +0.000 OA
BRANCH  31  33
ATOM     33  O   UNL     1      -2.424  11.425  15.889  0.00  0.00    +0.000 OA
ATOM     34  H   UNL     1      -2.003  12.305  15.930  0.00  0.00    +0.000 HD
ENDBRANCH  31  33
ENDBRANCH  30  31
ENDBRANCH   8  30
TORSDOF 7
ENDMDL
