MODEL 1
REMARK VINA RESULT:      -7.1      0.000      0.000
REMARK  Name = 
REMARK  5 active torsions:
REMARK  status: ('A' for Active; 'I' for Inactive)
REMARK    1  A    between atoms: C_1  and  C_2
REMARK    2  A    between atoms: C_2  and  N_3
REMARK    3  A    between atoms: C_4  and  C_5
REMARK    4  A    between atoms: C_5  and  N_6
REMARK    5  A    between atoms: C_7  and  C_9
REMARK                            x       y       z     vdW  Elec       q    Type
REMARK                         _______ _______ _______ _____ _____    ______ ____
ROOT
ATOM      1  C   UNL     1       2.131   8.607  18.376  0.00  0.00    +0.000 C 
ENDROOT
BRANCH   1   3
ATOM      2  N   UNL     1       0.758  10.396  19.548  0.00  0.00    +0.000 N 
ATOM      3  C   UNL     1       1.372   9.152  19.550  0.00  0.00    +0.000 A 
ATOM      4  C   UNL     1       1.116   8.593  20.791  0.00  0.00    +0.000 A 
ATOM      5  C   UNL     1       0.308   9.483  21.540  0.00  0.00    +0.000 A 
ATOM      6  C   UNL     1      -0.246   9.435  22.834  0.00  0.00    +0.000 A 
ATOM      7  C   UNL     1      -1.050  10.489  23.279  0.00  0.00    +0.000 A 
ATOM      8  C   UNL     1      -1.311  11.575  22.449  0.00  0.00    +0.000 A 
ATOM      9  C   UNL     1      -0.762  11.647  21.164  0.00  0.00    +0.000 A 
ATOM     10  C   UNL     1       0.059  10.589  20.731  0.00  0.00    +0.000 A 
BRANCH   2  12
ATOM     11  C   UNL     1       2.034  12.381  18.752  0.00  0.00    +0.000 C 
ATOM     12  C   UNL     1       0.882  11.419  18.519  0.00  0.00    +0.000 C 
ENDBRANCH   2  12
ENDBRANCH   1   3
BRANCH   1  13
ATOM     13  N   UNL     1       2.344   7.185  18.545  0.00  0.00    +0.000 N 
ATOM     14  C   UNL     1       3.332   6.490  17.874  0.00  0.00    +0.000 C 
ATOM     15  O   UNL     1       4.146   7.025  17.133  0.00  0.00    +0.000 OA
ATOM     16  H   UNL     1       1.732   6.705  19.188  0.00  0.00    +0.000 HD
BRANCH  14  17
ATOM     17  C   UNL     1       3.339   5.011  18.085  0.00  0.00    +0.000 A 
ATOM     18  C   UNL     1       2.253   4.255  17.603  0.00  0.00    +0.000 A 
ATOM     19  C   UNL     1       2.214   2.869  17.761  0.00  0.00    +0.000 A 
ATOM     20  C   UNL     1       3.270   2.213  18.385  0.00  0.00    +0.000 A 
ATOM     21  C   UNL     1       4.362   2.946  18.850  0.00  0.00    +0.000 A 
ATOM     22  C   UNL     1       4.405   4.341  18.705  0.00  0.00    +0.000 A 
ATOM     23 CL   UNL     1       5.783   5.145  19.365  0.00  0.00    +0.000 Cl
ENDBRANCH  14  17
ENDBRANCH   1  13
TORSDOF 4
ENDMDL
MODEL 2
REMARK VINA RESULT:      -7.1      3.304      8.031
REMARK  Name = 
REMARK  5 active torsions:
REMARK  status: ('A' for Active; 'I' for Inactive)
REMARK    1  A    between atoms: C_1  and  C_2
REMARK    2  A    between atoms: C_2  and  N_3
REMARK    3  A    between atoms: C_4  and  C_5
REMARK    4  A    between atoms: C_5  and  N_6
REMARK    5  A    between atoms: C_7  and  C_9
REMARK                            x       y       z     vdW  Elec       q    Type
REMARK                         _______ _______ _______ _____ _____    ______ ____
ROOT
ATOM      1  C   UNL     1       4.964   4.574  19.383  0.00  0.00    +0.000 C 
ENDROOT
BRANCH   1   3
ATOM      2  N   UNL     1       6.480   5.014  17.392  0.00  0.00    +0.000 N 
ATOM      3  C   UNL     1       5.290   4.536  17.920  0.00  0.00    +0.000 A 
ATOM      4  C   UNL     1       4.557   4.050  16.849  0.00  0.00    +0.000 A 
ATOM      5  C   UNL     1       5.318   4.195  15.664  0.00  0.00    +0.000 A 
ATOM      6  C   UNL     1       5.081   3.878  14.313  0.00  0.00    +0.000 A 
ATOM      7  C   UNL     1       6.077   4.122  13.362  0.00  0.00    +0.000 A 
ATOM      8  C   UNL     1       7.299   4.665  13.746  0.00  0.00    +0.000 A 
ATOM      9  C   UNL     1       7.552   4.998  15.081  0.00  0.00    +0.000 A 
ATOM     10  C   UNL     1       6.537   4.764  16.028  0.00  0.00    +0.000 A 
BRANCH   2  12
ATOM     11  C   UNL     1       7.508   7.246  17.793  0.00  0.00    +0.000 C 
ATOM     12  C   UNL     1       7.505   5.761  18.109  0.00  0.00    +0.000 C 
ENDBRANCH   2  12
ENDBRANCH   1   3
BRANCH   1  13
ATOM     13  N   UNL     1       4.138   5.728  19.674  0.00  0.00    +0.000 N 
ATOM     14  C   UNL     1       2.757   5.679  19.676  0.00  0.00    +0.000 C 
ATOM     15  O   UNL     1       2.120   4.650  19.494  0.00  0.00    +0.000 OA
ATOM     16  H   UNL     1       4.617   6.591  19.884  0.00  0.00    +0.000 HD
BRANCH  14  17
ATOM     17  C   UNL     1       2.065   6.986  19.889  0.00  0.00    +0.000 A 
ATOM     18  C   UNL     1       1.365   7.190  21.094  0.00  0.00    +0.000 A 
ATOM     19  C   UNL     1       0.712   8.396  21.352  0.00  0.00    +0.000 A 
ATOM     20  C   UNL     1       0.764   9.425  20.419  0.00  0.00    +0.000 A 
ATOM     21  C   UNL     1       1.470   9.246  19.229  0.00  0.00    +0.000 A 
ATOM     22  C   UNL     1       2.121   8.032  18.956  0.00  0.00    +0.000 A 
ATOM     23 CL   UNL     1       2.919   7.909  17.430  0.00  0.00    +0.000 Cl
ENDBRANCH  14  17
ENDBRANCH   1  13
TORSDOF 4
ENDMDL
MODEL 3
REMARK VINA RESULT:      -7.1      2.539      7.497
REMARK  Name = 
REMARK  5 active torsions:
REMARK  status: ('A' for Active; 'I' for Inactive)
REMARK    1  A    between atoms: C_1  and  C_2
REMARK    2  A    between atoms: C_2  and  N_3
REMARK    3  A    between atoms: C_4  and  C_5
REMARK    4  A    between atoms: C_5  and  N_6
REMARK    5  A    between atoms: C_7  and  C_9
REMARK                            x       y       z     vdW  Elec       q    Type
REMARK                         _______ _______ _______ _____ _____    ______ ____
ROOT
ATOM      1  C   UNL     1       2.652   8.225  18.078  0.00  0.00    +0.000 C 
ENDROOT
BRANCH   1   3
ATOM      2  N   UNL     1       3.760   5.969  17.701  0.00  0.00    +0.000 N 
ATOM      3  C   UNL     1       2.639   6.727  18.008  0.00  0.00    +0.000 A 
ATOM      4  C   UNL     1       1.609   5.826  18.225  0.00  0.00    +0.000 A 
ATOM      5  C   UNL     1       2.110   4.509  18.089  0.00  0.00    +0.000 A 
ATOM      6  C   UNL     1       1.527   3.232  18.200  0.00  0.00    +0.000 A 
ATOM      7  C   UNL     1       2.322   2.094  18.037  0.00  0.00    +0.000 A 
ATOM      8  C   UNL     1       3.684   2.217  17.776  0.00  0.00    +0.000 A 
ATOM      9  C   UNL     1       4.281   3.476  17.651  0.00  0.00    +0.000 A 
ATOM     10  C   UNL     1       3.469   4.616  17.800  0.00  0.00    +0.000 A 
BRANCH   2  12
ATOM     11  C   UNL     1       5.213   6.437  15.734  0.00  0.00    +0.000 C 
ATOM     12  C   UNL     1       5.046   6.477  17.243  0.00  0.00    +0.000 C 
ENDBRANCH   2  12
ENDBRANCH   1   3
BRANCH   1  13
ATOM     13  N   UNL     1       1.925   8.669  19.250  0.00  0.00    +0.000 N 
ATOM     14  C   UNL     1       0.799   9.466  19.175  0.00  0.00    +0.000 C 
ATOM     15  O   UNL     1       0.287   9.810  18.118  0.00  0.00    +0.000 OA
ATOM     16  H   UNL     1       2.276   8.367  20.146  0.00  0.00    +0.000 HD
BRANCH  14  17
ATOM     17  C   UNL     1       0.241   9.919  20.484  0.00  0.00    +0.000 A 
ATOM     18  C   UNL     1      -0.017   8.956  21.479  0.00  0.00    +0.000 A 
ATOM     19  C   UNL     1      -0.526   9.324  22.725  0.00  0.00    +0.000 A 
ATOM     20  C   UNL     1      -0.767  10.664  23.006  0.00  0.00    +0.000 A 
ATOM     21  C   UNL     1      -0.498  11.633  22.038  0.00  0.00    +0.000 A 
ATOM     22  C   UNL     1       0.004  11.271  20.779  0.00  0.00    +0.000 A 
ATOM     23 CL   UNL     1       0.249  12.551  19.647  0.00  0.00    +0.000 Cl
ENDBRANCH  14  17
ENDBRANCH   1  13
TORSDOF 4
ENDMDL
MODEL 4
REMARK VINA RESULT:      -7.1      4.169      6.341
REMARK  Name = 
REMARK  5 active torsions:
REMARK  status: ('A' for Active; 'I' for Inactive)
REMARK    1  A    between atoms: C_1  and  C_2
REMARK    2  A    between atoms: C_2  and  N_3
REMARK    3  A    between atoms: C_4  and  C_5
REMARK    4  A    between atoms: C_5  and  N_6
REMARK    5  A    between atoms: C_7  and  C_9
REMARK                            x       y       z     vdW  Elec       q    Type
REMARK                         _______ _______ _______ _____ _____    ______ ____
ROOT
ATOM      1  C   UNL     1       5.585   6.260  17.296  0.00  0.00    +0.000 C 
ENDROOT
BRANCH   1   3
ATOM      2  N   UNL     1       3.363   5.674  18.380  0.00  0.00    +0.000 N 
ATOM      3  C   UNL     1       4.719   5.440  18.205  0.00  0.00    +0.000 A 
ATOM      4  C   UNL     1       5.031   4.349  19.000  0.00  0.00    +0.000 A 
ATOM      5  C   UNL     1       3.852   3.888  19.635  0.00  0.00    +0.000 A 
ATOM      6  C   UNL     1       3.580   2.836  20.530  0.00  0.00    +0.000 A 
ATOM      7  C   UNL     1       2.267   2.617  20.958  0.00  0.00    +0.000 A 
ATOM      8  C   UNL     1       1.232   3.424  20.497  0.00  0.00    +0.000 A 
ATOM      9  C   UNL     1       1.482   4.482  19.616  0.00  0.00    +0.000 A 
ATOM     10  C   UNL     1       2.809   4.705  19.204  0.00  0.00    +0.000 A 
BRANCH   2  12
ATOM     11  C   UNL     1       2.317   7.868  18.924  0.00  0.00    +0.000 C 
ATOM     12  C   UNL     1       2.610   6.813  17.871  0.00  0.00    +0.000 C 
ENDBRANCH   2  12
ENDBRANCH   1   3
BRANCH   1  13
ATOM     13  N   UNL     1       5.621   5.662  15.977  0.00  0.00    +0.000 N 
ATOM     14  C   UNL     1       6.699   4.930  15.515  0.00  0.00    +0.000 C 
ATOM     15  O   UNL     1       7.681   4.674  16.199  0.00  0.00    +0.000 OA
ATOM     16  H   UNL     1       4.811   5.799  15.392  0.00  0.00    +0.000 HD
BRANCH  14  17
ATOM     17  C   UNL     1       6.611   4.479  14.094  0.00  0.00    +0.000 A 
ATOM     18  C   UNL     1       5.553   3.630  13.719  0.00  0.00    +0.000 A 
ATOM     19  C   UNL     1       5.415   3.189  12.402  0.00  0.00    +0.000 A 
ATOM     20  C   UNL     1       6.321   3.606  11.434  0.00  0.00    +0.000 A 
ATOM     21  C   UNL     1       7.364   4.463  11.785  0.00  0.00    +0.000 A 
ATOM     22  C   UNL     1       7.516   4.904  13.109  0.00  0.00    +0.000 A 
ATOM     23 CL   UNL     1       8.873   5.921  13.434  0.00  0.00    +0.000 Cl
ENDBRANCH  14  17
ENDBRANCH   1  13
TORSDOF 4
ENDMDL
MODEL 5
REMARK VINA RESULT:      -7.0      2.818      8.031
REMARK  Name = 
REMARK  5 active torsions:
REMARK  status: ('A' for Active; 'I' for Inactive)
REMARK    1  A    between atoms: C_1  and  C_2
REMARK    2  A    between atoms: C_2  and  N_3
REMARK    3  A    between atoms: C_4  and  C_5
REMARK    4  A    between atoms: C_5  and  N_6
REMARK    5  A    between atoms: C_7  and  C_9
REMARK                            x       y       z     vdW  Elec       q    Type
REMARK                         _______ _______ _______ _____ _____    ______ ____
ROOT
ATOM      1  C   UNL     1       4.224   4.674  19.840  0.00  0.00    +0.000 C 
ENDROOT
BRANCH   1   3
ATOM      2  N   UNL     1       4.255   4.150  17.354  0.00  0.00    +0.000 N 
ATOM      3  C   UNL     1       4.894   4.601  18.500  0.00  0.00    +0.000 A 
ATOM      4  C   UNL     1       6.181   4.943  18.119  0.00  0.00    +0.000 A 
ATOM      5  C   UNL     1       6.320   4.739  16.725  0.00  0.00    +0.000 A 
ATOM      6  C   UNL     1       7.383   4.918  15.818  0.00  0.00    +0.000 A 
ATOM      7  C   UNL     1       7.184   4.651  14.461  0.00  0.00    +0.000 A 
ATOM      8  C   UNL     1       5.943   4.219  14.002  0.00  0.00    +0.000 A 
ATOM      9  C   UNL     1       4.877   4.024  14.887  0.00  0.00    +0.000 A 
ATOM     10  C   UNL     1       5.091   4.280  16.254  0.00  0.00    +0.000 A 
BRANCH   2  12
ATOM     11  C   UNL     1       2.920   2.083  17.732  0.00  0.00    +0.000 C 
ATOM     12  C   UNL     1       2.937   3.534  17.285  0.00  0.00    +0.000 C 
ENDBRANCH   2  12
ENDBRANCH   1   3
BRANCH   1  13
ATOM     13  N   UNL     1       3.567   5.956  19.992  0.00  0.00    +0.000 N 
ATOM     14  C   UNL     1       2.196   6.085  20.114  0.00  0.00    +0.000 C 
ATOM     15  O   UNL     1       1.432   5.131  20.167  0.00  0.00    +0.000 OA
ATOM     16  H   UNL     1       4.158   6.773  20.009  0.00  0.00    +0.000 HD
BRANCH  14  17
ATOM     17  C   UNL     1       1.681   7.487  20.152  0.00  0.00    +0.000 A 
ATOM     18  C   UNL     1       1.058   7.945  21.329  0.00  0.00    +0.000 A 
ATOM     19  C   UNL     1       0.570   9.249  21.426  0.00  0.00    +0.000 A 
ATOM     20  C   UNL     1       0.714  10.123  20.354  0.00  0.00    +0.000 A 
ATOM     21  C   UNL     1       1.346   9.690  19.188  0.00  0.00    +0.000 A 
ATOM     22  C   UNL     1       1.831   8.377  19.078  0.00  0.00    +0.000 A 
ATOM     23 CL   UNL     1       2.548   7.941  17.570  0.00  0.00    +0.000 Cl
ENDBRANCH  14  17
ENDBRANCH   1  13
TORSDOF 4
ENDMDL
MODEL 6
REMARK VINA RESULT:      -7.0      5.024      6.627
REMARK  Name = 
REMARK  5 active torsions:
REMARK  status: ('A' for Active; 'I' for Inactive)
REMARK    1  A    between atoms: C_1  and  C_2
REMARK    2  A    between atoms: C_2  and  N_3
REMARK    3  A    between atoms: C_4  and  C_5
REMARK    4  A    between atoms: C_5  and  N_6
REMARK    5  A    between atoms: C_7  and  C_9
REMARK                            x       y       z     vdW  Elec       q    Type
REMARK                         _______ _______ _______ _____ _____    ______ ____
ROOT
ATOM      1  C   UNL     1       4.795   6.424  16.861  0.00  0.00    +0.000 C 
ENDROOT
BRANCH   1   3
ATOM      2  N   UNL     1       4.527   4.739  18.744  0.00  0.00    +0.000 N 
ATOM      3  C   UNL     1       3.975   5.620  17.825  0.00  0.00    +0.000 A 
ATOM      4  C   UNL     1       2.604   5.576  18.019  0.00  0.00    +0.000 A 
ATOM      5  C   UNL     1       2.317   4.694  19.089  0.00  0.00    +0.000 A 
ATOM      6  C   UNL     1       1.124   4.276  19.709  0.00  0.00    +0.000 A 
ATOM      7  C   UNL     1       1.182   3.397  20.795  0.00  0.00    +0.000 A 
ATOM      8  C   UNL     1       2.409   2.943  21.269  0.00  0.00    +0.000 A 
ATOM      9  C   UNL     1       3.605   3.337  20.660  0.00  0.00    +0.000 A 
ATOM     10  C   UNL     1       3.536   4.209  19.558  0.00  0.00    +0.000 A 
BRANCH   2  12
ATOM     11  C   UNL     1       6.844   5.399  19.372  0.00  0.00    +0.000 C 
ATOM     12  C   UNL     1       5.922   4.328  18.816  0.00  0.00    +0.000 C 
ENDBRANCH   2  12
ENDBRANCH   1   3
BRANCH   1  13
ATOM     13  N   UNL     1       5.056   5.647  15.667  0.00  0.00    +0.000 N 
ATOM     14  C   UNL     1       6.332   5.356  15.226  0.00  0.00    +0.000 C 
ATOM     15  O   UNL     1       7.344   5.675  15.835  0.00  0.00    +0.000 OA
ATOM     16  H   UNL     1       4.252   5.313  15.156  0.00  0.00    +0.000 HD
BRANCH  14  17
ATOM     17  C   UNL     1       6.416   4.637  13.919  0.00  0.00    +0.000 A 
ATOM     18  C   UNL     1       5.407   3.710  13.592  0.00  0.00    +0.000 A 
ATOM     19  C   UNL     1       5.428   3.020  12.380  0.00  0.00    +0.000 A 
ATOM     20  C   UNL     1       6.446   3.259  11.464  0.00  0.00    +0.000 A 
ATOM     21  C   UNL     1       7.442   4.189  11.764  0.00  0.00    +0.000 A 
ATOM     22  C   UNL     1       7.435   4.881  12.986  0.00  0.00    +0.000 A 
ATOM     23 CL   UNL     1       8.746   5.968  13.266  0.00  0.00    +0.000 Cl
ENDBRANCH  14  17
ENDBRANCH   1  13
TORSDOF 4
ENDMDL
MODEL 7
REMARK VINA RESULT:      -7.0      2.393      3.064
REMARK  Name = 
REMARK  5 active torsions:
REMARK  status: ('A' for Active; 'I' for Inactive)
REMARK    1  A    between atoms: C_1  and  C_2
REMARK    2  A    between atoms: C_2  and  N_3
REMARK    3  A    between atoms: C_4  and  C_5
REMARK    4  A    between atoms: C_5  and  N_6
REMARK    5  A    between atoms: C_7  and  C_9
REMARK                            x       y       z     vdW  Elec       q    Type
REMARK                         _______ _______ _______ _____ _____    ______ ____
ROOT
ATOM      1  C   UNL     1       1.912   9.723  18.156  0.00  0.00    +0.000 C 
ENDROOT
BRANCH   1   3
ATOM      2  N   UNL     1      -0.152  10.970  18.957  0.00  0.00    +0.000 N 
ATOM      3  C   UNL     1       0.440  10.007  18.153  0.00  0.00    +0.000 A 
ATOM      4  C   UNL     1      -0.582   9.440  17.408  0.00  0.00    +0.000 A 
ATOM      5  C   UNL     1      -1.801  10.086  17.730  0.00  0.00    +0.000 A 
ATOM      6  C   UNL     1      -3.129   9.928  17.289  0.00  0.00    +0.000 A 
ATOM      7  C   UNL     1      -4.126  10.770  17.789  0.00  0.00    +0.000 A 
ATOM      8  C   UNL     1      -3.812  11.766  18.709  0.00  0.00    +0.000 A 
ATOM      9  C   UNL     1      -2.501  11.932  19.169  0.00  0.00    +0.000 A 
ATOM     10  C   UNL     1      -1.506  11.069  18.672  0.00  0.00    +0.000 A 
BRANCH   2  12
ATOM     11  C   UNL     1       0.401  11.051  21.384  0.00  0.00    +0.000 C 
ATOM     12  C   UNL     1       0.496  11.721  20.024  0.00  0.00    +0.000 C 
ENDBRANCH   2  12
ENDBRANCH   1   3
BRANCH   1  13
ATOM     13  N   UNL     1       2.149   8.342  17.788  0.00  0.00    +0.000 N 
ATOM     14  C   UNL     1       2.376   7.346  18.719  0.00  0.00    +0.000 C 
ATOM     15  O   UNL     1       2.334   7.533  19.927  0.00  0.00    +0.000 OA
ATOM     16  H   UNL     1       2.139   8.125  16.803  0.00  0.00    +0.000 HD
BRANCH  14  17
ATOM     17  C   UNL     1       2.708   6.002  18.158  0.00  0.00    +0.000 A 
ATOM     18  C   UNL     1       1.740   4.982  18.230  0.00  0.00    +0.000 A 
ATOM     19  C   UNL     1       1.992   3.711  17.711  0.00  0.00    +0.000 A 
ATOM     20  C   UNL     1       3.209   3.445  17.093  0.00  0.00    +0.000 A 
ATOM     21  C   UNL     1       4.171   4.451  16.995  0.00  0.00    +0.000 A 
ATOM     22  C   UNL     1       3.930   5.728  17.524  0.00  0.00    +0.000 A 
ATOM     23 CL   UNL     1       5.213   6.875  17.390  0.00  0.00    +0.000 Cl
ENDBRANCH  14  17
ENDBRANCH   1  13
TORSDOF 4
ENDMDL
MODEL 8
REMARK VINA RESULT:      -6.9      1.224      1.368
REMARK  Name = 
REMARK  5 active torsions:
REMARK  status: ('A' for Active; 'I' for Inactive)
REMARK    1  A    between atoms: C_1  and  C_2
REMARK    2  A    between atoms: C_2  and  N_3
REMARK    3  A    between atoms: C_4  and  C_5
REMARK    4  A    between atoms: C_5  and  N_6
REMARK    5  A    between atoms: C_7  and  C_9
REMARK                            x       y       z     vdW  Elec       q    Type
REMARK                         _______ _______ _______ _____ _____    ______ ____
ROOT
ATOM      1  C   UNL     1       2.198   8.255  18.533  0.00  0.00    +0.000 C 
ENDROOT
BRANCH   1   3
ATOM      2  N   UNL     1       0.792  10.126  19.524  0.00  0.00    +0.000 N 
ATOM      3  C   UNL     1       1.435   8.903  19.650  0.00  0.00    +0.000 A 
ATOM      4  C   UNL     1       1.202   8.473  20.946  0.00  0.00    +0.000 A 
ATOM      5  C   UNL     1       0.379   9.418  21.606  0.00  0.00    +0.000 A 
ATOM      6  C   UNL     1      -0.164   9.495  22.902  0.00  0.00    +0.000 A 
ATOM      7  C   UNL     1      -0.989  10.571  23.242  0.00  0.00    +0.000 A 
ATOM      8  C   UNL     1      -1.283  11.557  22.305  0.00  0.00    +0.000 A 
ATOM      9  C   UNL     1      -0.745  11.506  21.014  0.00  0.00    +0.000 A 
ATOM     10  C   UNL     1       0.098  10.427  20.687  0.00  0.00    +0.000 A 
BRANCH   2  12
ATOM     11  C   UNL     1       1.972  12.085  18.540  0.00  0.00    +0.000 C 
ATOM     12  C   UNL     1       0.883  11.037  18.391  0.00  0.00    +0.000 C 
ENDBRANCH   2  12
ENDBRANCH   1   3
BRANCH   1  13
ATOM     13  N   UNL     1       1.921   6.833  18.508  0.00  0.00    +0.000 N 
ATOM     14  C   UNL     1       2.817   5.887  18.967  0.00  0.00    +0.000 C 
ATOM     15  O   UNL     1       3.887   6.171  19.488  0.00  0.00    +0.000 OA
ATOM     16  H   UNL     1       1.027   6.549  18.137  0.00  0.00    +0.000 HD
BRANCH  14  17
ATOM     17  C   UNL     1       2.413   4.463  18.766  0.00  0.00    +0.000 A 
ATOM     18  C   UNL     1       1.363   3.942  19.547  0.00  0.00    +0.000 A 
ATOM     19  C   UNL     1       0.936   2.623  19.391  0.00  0.00    +0.000 A 
ATOM     20  C   UNL     1       1.537   1.808  18.438  0.00  0.00    +0.000 A 
ATOM     21  C   UNL     1       2.564   2.315  17.643  0.00  0.00    +0.000 A 
ATOM     22  C   UNL     1       3.008   3.638  17.799  0.00  0.00    +0.000 A 
ATOM     23 CL   UNL     1       4.319   4.138  16.794  0.00  0.00    +0.000 Cl
ENDBRANCH  14  17
ENDBRANCH   1  13
TORSDOF 4
ENDMDL
MODEL 9
REMARK VINA RESULT:      -6.9      3.657      7.193
REMARK  Name = 
REMARK  5 active torsions:
REMARK  status: ('A' for Active; 'I' for Inactive)
REMARK    1  A    between atoms: C_1  and  C_2
REMARK    2  A    between atoms: C_2  and  N_3
REMARK    3  A    between atoms: C_4  and  C_5
REMARK    4  A    between atoms: C_5  and  N_6
REMARK    5  A    between atoms: C_7  and  C_9
REMARK                            x       y       z     vdW  Elec       q    Type
REMARK                         _______ _______ _______ _____ _____    ______ ____
ROOT
ATOM      1  C   UNL     1       2.052   9.543  18.231  0.00  0.00    +0.000 C 
ENDROOT
BRANCH   1   3
ATOM      2  N   UNL     1       1.923   7.581  19.841  0.00  0.00    +0.000 N 
ATOM      3  C   UNL     1       2.217   8.095  18.587  0.00  0.00    +0.000 A 
ATOM      4  C   UNL     1       2.648   7.026  17.819  0.00  0.00    +0.000 A 
ATOM      5  C   UNL     1       2.581   5.843  18.596  0.00  0.00    +0.000 A 
ATOM      6  C   UNL     1       2.885   4.493  18.337  0.00  0.00    +0.000 A 
ATOM      7  C   UNL     1       2.670   3.534  19.331  0.00  0.00    +0.000 A 
ATOM      8  C   UNL     1       2.150   3.906  20.568  0.00  0.00    +0.000 A 
ATOM      9  C   UNL     1       1.851   5.244  20.849  0.00  0.00    +0.000 A 
ATOM     10  C   UNL     1       2.086   6.204  19.847  0.00  0.00    +0.000 A 
BRANCH   2  12
ATOM     11  C   UNL     1       0.091   8.428  21.299  0.00  0.00    +0.000 C 
ATOM     12  C   UNL     1       1.583   8.350  21.031  0.00  0.00    +0.000 C 
ENDBRANCH   2  12
ENDBRANCH   1   3
BRANCH   1  13
ATOM     13  N   UNL     1       0.674   9.808  17.873  0.00  0.00    +0.000 N 
ATOM     14  C   UNL     1      -0.106  10.740  18.532  0.00  0.00    +0.000 C 
ATOM     15  O   UNL     1       0.318  11.460  19.427  0.00  0.00    +0.000 OA
ATOM     16  H   UNL     1       0.292   9.278  17.105  0.00  0.00    +0.000 HD
BRANCH  14  17
ATOM     17  C   UNL     1      -1.535  10.805  18.103  0.00  0.00    +0.000 A 
ATOM     18  C   UNL     1      -1.958   9.991  17.035  0.00  0.00    +0.000 A 
ATOM     19  C   UNL     1      -3.284  10.002  16.601  0.00  0.00    +0.000 A 
ATOM     20  C   UNL     1      -4.215  10.812  17.241  0.00  0.00    +0.000 A 
ATOM     21  C   UNL     1      -3.817  11.610  18.314  0.00  0.00    +0.000 A 
ATOM     22  C   UNL     1      -2.483  11.613  18.750  0.00  0.00    +0.000 A 
ATOM     23 CL   UNL     1      -2.098  12.679  20.053  0.00  0.00    +0.000 Cl
ENDBRANCH  14  17
ENDBRANCH   1  13
TORSDOF 4
ENDMDL
