MODEL 1
REMARK VINA RESULT:      -8.1      0.000      0.000
REMARK  Name = 
REMARK  3 active torsions:
REMARK  status: ('A' for Active; 'I' for Inactive)
REMARK    1  A    between atoms: C_1  and  C_2
REMARK    2  A    between atoms: C_8  and  C_9
REMARK    3  A    between atoms: C_11  and  C_12
REMARK                            x       y       z     vdW  Elec       q    Type
REMARK                         _______ _______ _______ _____ _____    ______ ____
ROOT
ATOM      1  C   UNL     1       6.382   3.669  12.397  0.00  0.00    +0.000 C 
ATOM      2  C   UNL     1       6.498   4.219  13.793  0.00  0.00    +0.000 C 
ATOM      3  O   UNL     1       7.496   4.837  14.147  0.00  0.00    +0.000 OA
ATOM      4  N   UNL     1       5.374   3.976  14.566  0.00  0.00    +0.000 N 
ATOM      5  C   UNL     1       5.263   4.287  15.887  0.00  0.00    +0.000 C 
ATOM      6  N   UNL     1       6.142   4.887  16.615  0.00  0.00    +0.000 NA
ATOM      7  N   UNL     1       5.731   4.979  17.922  0.00  0.00    +0.000 N 
ATOM      8  C   UNL     1       6.611   5.406  18.903  0.00  0.00    +0.000 C 
ATOM      9  C   UNL     1       7.938   5.963  18.441  0.00  0.00    +0.000 C 
ATOM     10  O   UNL     1       6.329   5.377  20.102  0.00  0.00    +0.000 OA
ATOM     11  C   UNL     1       4.464   4.325  18.264  0.00  0.00    +0.000 C 
ATOM     12  S   UNL     1       3.787   3.786  16.641  0.00  0.00    +0.000 S 
ATOM     13  H   UNL     1       4.599   3.475  14.160  0.00  0.00    +0.000 HD
ENDROOT
BRANCH  11  14
ATOM     14  C   UNL     1       3.476   5.178  19.022  0.00  0.00    +0.000 A 
ATOM     15  C   UNL     1       3.157   6.487  18.632  0.00  0.00    +0.000 A 
ATOM     16  C   UNL     1       2.281   7.270  19.397  0.00  0.00    +0.000 A 
ATOM     17  C   UNL     1       1.979   8.598  19.045  0.00  0.00    +0.000 A 
ATOM     18  C   UNL     1       1.099   9.348  19.821  0.00  0.00    +0.000 A 
ATOM     19  C   UNL     1       0.522   8.780  20.950  0.00  0.00    +0.000 A 
ATOM     20  C   UNL     1       0.833   7.463  21.302  0.00  0.00    +0.000 A 
ATOM     21  C   UNL     1       1.705   6.692  20.544  0.00  0.00    +0.000 A 
ATOM     22  N   UNL     1       1.970   5.432  20.918  0.00  0.00    +0.000 NA
ATOM     23  C   UNL     1       2.838   4.716  20.167  0.00  0.00    +0.000 A 
ATOM     24 CL   UNL     1       3.062   3.124  20.789  0.00  0.00    +0.000 Cl
ENDBRANCH  11  14
TORSDOF 1
ENDMDL
MODEL 2
REMARK VINA RESULT:      -6.5      1.087      1.212
REMARK  Name = 
REMARK  3 active torsions:
REMARK  status: ('A' for Active; 'I' for Inactive)
REMARK    1  A    between atoms: C_1  and  C_2
REMARK    2  A    between atoms: C_8  and  C_9
REMARK    3  A    between atoms: C_11  and  C_12
REMARK                            x       y       z     vdW  Elec       q    Type
REMARK                         _______ _______ _______ _____ _____    ______ ____
ROOT
ATOM      1  C   UNL     1       6.564   3.423  11.904  0.00  0.00    +0.000 C 
ATOM      2  C   UNL     1       6.673   4.294  13.127  0.00  0.00    +0.000 C 
ATOM      3  O   UNL     1       7.567   5.126  13.230  0.00  0.00    +0.000 OA
ATOM      4  N   UNL     1       5.663   4.064  14.047  0.00  0.00    +0.000 N 
ATOM      5  C   UNL     1       5.587   4.653  15.273  0.00  0.00    +0.000 C 
ATOM      6  N   UNL     1       6.392   5.536  15.756  0.00  0.00    +0.000 NA
ATOM      7  N   UNL     1       6.059   5.865  17.047  0.00  0.00    +0.000 N 
ATOM      8  C   UNL     1       6.912   6.641  17.814  0.00  0.00    +0.000 C 
ATOM      9  C   UNL     1       8.086   7.276  17.105  0.00  0.00    +0.000 C 
ATOM     10  O   UNL     1       6.720   6.848  19.013  0.00  0.00    +0.000 OA
ATOM     11  C   UNL     1       4.952   5.117  17.654  0.00  0.00    +0.000 C 
ATOM     12  S   UNL     1       4.275   4.116  16.268  0.00  0.00    +0.000 S 
ATOM     13  H   UNL     1       4.964   3.368  13.844  0.00  0.00    +0.000 HD
ENDROOT
BRANCH  11  14
ATOM     14  C   UNL     1       3.881   5.958  18.306  0.00  0.00    +0.000 A 
ATOM     15  C   UNL     1       3.458   7.184  17.774  0.00  0.00    +0.000 A 
ATOM     16  C   UNL     1       2.505   7.965  18.441  0.00  0.00    +0.000 A 
ATOM     17  C   UNL     1       2.096   9.215  17.945  0.00  0.00    +0.000 A 
ATOM     18  C   UNL     1       1.140   9.965  18.627  0.00  0.00    +0.000 A 
ATOM     19  C   UNL     1       0.595   9.474  19.807  0.00  0.00    +0.000 A 
ATOM     20  C   UNL     1       1.013   8.235  20.302  0.00  0.00    +0.000 A 
ATOM     21  C   UNL     1       1.960   7.465  19.640  0.00  0.00    +0.000 A 
ATOM     22  N   UNL     1       2.326   6.281  20.151  0.00  0.00    +0.000 NA
ATOM     23  C   UNL     1       3.266   5.568  19.490  0.00  0.00    +0.000 A 
ATOM     24 CL   UNL     1       3.615   4.077  20.283  0.00  0.00    +0.000 Cl
ENDBRANCH  11  14
TORSDOF 1
ENDMDL
MODEL 3
REMARK VINA RESULT:      -6.4      2.542      3.268
REMARK  Name = 
REMARK  3 active torsions:
REMARK  status: ('A' for Active; 'I' for Inactive)
REMARK    1  A    between atoms: C_1  and  C_2
REMARK    2  A    between atoms: C_8  and  C_9
REMARK    3  A    between atoms: C_11  and  C_12
REMARK                            x       y       z     vdW  Elec       q    Type
REMARK                         _______ _______ _______ _____ _____    ______ ____
ROOT
ATOM      1  C   UNL     1       7.782   4.688  11.345  0.00  0.00    +0.000 C 
ATOM      2  C   UNL     1       7.637   5.219  12.745  0.00  0.00    +0.000 C 
ATOM      3  O   UNL     1       8.095   6.313  13.055  0.00  0.00    +0.000 OA
ATOM      4  N   UNL     1       6.923   4.370  13.575  0.00  0.00    +0.000 N 
ATOM      5  C   UNL     1       6.732   4.574  14.908  0.00  0.00    +0.000 C 
ATOM      6  N   UNL     1       7.128   5.587  15.598  0.00  0.00    +0.000 NA
ATOM      7  N   UNL     1       6.823   5.437  16.929  0.00  0.00    +0.000 N 
ATOM      8  C   UNL     1       7.339   6.315  17.868  0.00  0.00    +0.000 C 
ATOM      9  C   UNL     1       8.048   7.543  17.344  0.00  0.00    +0.000 C 
ATOM     10  O   UNL     1       7.203   6.142  19.080  0.00  0.00    +0.000 OA
ATOM     11  C   UNL     1       6.213   4.165  17.327  0.00  0.00    +0.000 C 
ATOM     12  S   UNL     1       5.887   3.307  15.733  0.00  0.00    +0.000 S 
ATOM     13  H   UNL     1       6.572   3.502  13.203  0.00  0.00    +0.000 HD
ENDROOT
BRANCH  11  14
ATOM     14  C   UNL     1       4.960   4.279  18.162  0.00  0.00    +0.000 A 
ATOM     15  C   UNL     1       4.654   3.374  19.188  0.00  0.00    +0.000 A 
ATOM     16  C   UNL     1       3.451   3.477  19.900  0.00  0.00    +0.000 A 
ATOM     17  C   UNL     1       3.108   2.556  20.906  0.00  0.00    +0.000 A 
ATOM     18  C   UNL     1       1.908   2.689  21.602  0.00  0.00    +0.000 A 
ATOM     19  C   UNL     1       1.047   3.735  21.294  0.00  0.00    +0.000 A 
ATOM     20  C   UNL     1       1.388   4.642  20.285  0.00  0.00    +0.000 A 
ATOM     21  C   UNL     1       2.579   4.535  19.579  0.00  0.00    +0.000 A 
ATOM     22  N   UNL     1       2.865   5.430  18.624  0.00  0.00    +0.000 NA
ATOM     23  C   UNL     1       4.025   5.284  17.943  0.00  0.00    +0.000 A 
ATOM     24 CL   UNL     1       4.232   6.517  16.757  0.00  0.00    +0.000 Cl
ENDBRANCH  11  14
TORSDOF 1
ENDMDL
MODEL 4
REMARK VINA RESULT:      -6.3      5.848      8.981
REMARK  Name = 
REMARK  3 active torsions:
REMARK  status: ('A' for Active; 'I' for Inactive)
REMARK    1  A    between atoms: C_1  and  C_2
REMARK    2  A    between atoms: C_8  and  C_9
REMARK    3  A    between atoms: C_11  and  C_12
REMARK                            x       y       z     vdW  Elec       q    Type
REMARK                         _______ _______ _______ _____ _____    ______ ____
ROOT
ATOM      1  C   UNL     1       0.582  17.197  19.840  0.00  0.00    +0.000 C 
ATOM      2  C   UNL     1       0.153  15.853  19.315  0.00  0.00    +0.000 C 
ATOM      3  O   UNL     1      -0.437  15.753  18.245  0.00  0.00    +0.000 OA
ATOM      4  N   UNL     1       0.526  14.805  20.141  0.00  0.00    +0.000 N 
ATOM      5  C   UNL     1       0.179  13.503  19.940  0.00  0.00    +0.000 C 
ATOM      6  N   UNL     1      -0.497  13.028  18.951  0.00  0.00    +0.000 NA
ATOM      7  N   UNL     1      -0.723  11.682  19.100  0.00  0.00    +0.000 N 
ATOM      8  C   UNL     1      -1.598  11.022  18.253  0.00  0.00    +0.000 C 
ATOM      9  C   UNL     1      -2.103  11.790  17.053  0.00  0.00    +0.000 C 
ATOM     10  O   UNL     1      -1.934   9.851  18.431  0.00  0.00    +0.000 OA
ATOM     11  C   UNL     1      -0.258  11.068  20.348  0.00  0.00    +0.000 C 
ATOM     12  S   UNL     1       0.695  12.405  21.177  0.00  0.00    +0.000 S 
ATOM     13  H   UNL     1       1.032  15.006  20.989  0.00  0.00    +0.000 HD
ENDROOT
BRANCH  11  14
ATOM     14  C   UNL     1       0.569   9.815  20.187  0.00  0.00    +0.000 A 
ATOM     15  C   UNL     1       1.351   9.570  19.049  0.00  0.00    +0.000 A 
ATOM     16  C   UNL     1       2.057   8.368  18.909  0.00  0.00    +0.000 A 
ATOM     17  C   UNL     1       2.815   8.086  17.759  0.00  0.00    +0.000 A 
ATOM     18  C   UNL     1       3.512   6.884  17.652  0.00  0.00    +0.000 A 
ATOM     19  C   UNL     1       3.451   5.960  18.688  0.00  0.00    +0.000 A 
ATOM     20  C   UNL     1       2.687   6.240  19.825  0.00  0.00    +0.000 A 
ATOM     21  C   UNL     1       1.986   7.431  19.959  0.00  0.00    +0.000 A 
ATOM     22  N   UNL     1       1.271   7.658  21.070  0.00  0.00    +0.000 NA
ATOM     23  C   UNL     1       0.585   8.820  21.158  0.00  0.00    +0.000 A 
ATOM     24 CL   UNL     1      -0.276   8.947  22.646  0.00  0.00    +0.000 Cl
ENDBRANCH  11  14
TORSDOF 1
ENDMDL
MODEL 5
REMARK VINA RESULT:      -6.3      2.591      7.256
REMARK  Name = 
REMARK  3 active torsions:
REMARK  status: ('A' for Active; 'I' for Inactive)
REMARK    1  A    between atoms: C_1  and  C_2
REMARK    2  A    between atoms: C_8  and  C_9
REMARK    3  A    between atoms: C_11  and  C_12
REMARK                            x       y       z     vdW  Elec       q    Type
REMARK                         _______ _______ _______ _____ _____    ______ ____
ROOT
ATOM      1  C   UNL     1       1.000   7.739  21.565  0.00  0.00    +0.000 C 
ATOM      2  C   UNL     1       1.409   6.612  20.655  0.00  0.00    +0.000 C 
ATOM      3  O   UNL     1       0.635   5.697  20.398  0.00  0.00    +0.000 OA
ATOM      4  N   UNL     1       2.690   6.762  20.149  0.00  0.00    +0.000 N 
ATOM      5  C   UNL     1       3.329   5.838  19.380  0.00  0.00    +0.000 C 
ATOM      6  N   UNL     1       2.849   4.718  18.961  0.00  0.00    +0.000 NA
ATOM      7  N   UNL     1       3.790   3.999  18.264  0.00  0.00    +0.000 N 
ATOM      8  C   UNL     1       3.540   2.685  17.904  0.00  0.00    +0.000 C 
ATOM      9  C   UNL     1       2.135   2.170  18.114  0.00  0.00    +0.000 C 
ATOM     10  O   UNL     1       4.401   1.963  17.400  0.00  0.00    +0.000 OA
ATOM     11  C   UNL     1       5.141   4.565  18.203  0.00  0.00    +0.000 C 
ATOM     12  S   UNL     1       4.963   6.231  18.961  0.00  0.00    +0.000 S 
ATOM     13  H   UNL     1       3.229   7.572  20.412  0.00  0.00    +0.000 HD
ENDROOT
BRANCH  11  14
ATOM     14  C   UNL     1       5.750   4.646  16.823  0.00  0.00    +0.000 A 
ATOM     15  C   UNL     1       5.150   4.058  15.701  0.00  0.00    +0.000 A 
ATOM     16  C   UNL     1       5.777   4.102  14.447  0.00  0.00    +0.000 A 
ATOM     17  C   UNL     1       5.211   3.485  13.317  0.00  0.00    +0.000 A 
ATOM     18  C   UNL     1       5.854   3.552  12.083  0.00  0.00    +0.000 A 
ATOM     19  C   UNL     1       7.063   4.229  11.974  0.00  0.00    +0.000 A 
ATOM     20  C   UNL     1       7.627   4.831  13.103  0.00  0.00    +0.000 A 
ATOM     21  C   UNL     1       7.005   4.783  14.344  0.00  0.00    +0.000 A 
ATOM     22  N   UNL     1       7.581   5.380  15.397  0.00  0.00    +0.000 NA
ATOM     23  C   UNL     1       6.957   5.295  16.594  0.00  0.00    +0.000 A 
ATOM     24 CL   UNL     1       7.832   6.116  17.833  0.00  0.00    +0.000 Cl
ENDBRANCH  11  14
TORSDOF 1
ENDMDL
MODEL 6
REMARK VINA RESULT:      -6.3      5.866      9.289
REMARK  Name = 
REMARK  3 active torsions:
REMARK  status: ('A' for Active; 'I' for Inactive)
REMARK    1  A    between atoms: C_1  and  C_2
REMARK    2  A    between atoms: C_8  and  C_9
REMARK    3  A    between atoms: C_11  and  C_12
REMARK                            x       y       z     vdW  Elec       q    Type
REMARK                         _______ _______ _______ _____ _____    ______ ____
ROOT
ATOM      1  C   UNL     1      -5.944  13.359  19.779  0.00  0.00    +0.000 C 
ATOM      2  C   UNL     1      -4.482  13.244  20.120  0.00  0.00    +0.000 C 
ATOM      3  O   UNL     1      -3.992  13.911  21.024  0.00  0.00    +0.000 OA
ATOM      4  N   UNL     1      -3.817  12.310  19.343  0.00  0.00    +0.000 N 
ATOM      5  C   UNL     1      -2.475  12.083  19.389  0.00  0.00    +0.000 C 
ATOM      6  N   UNL     1      -1.623  12.648  20.175  0.00  0.00    +0.000 NA
ATOM      7  N   UNL     1      -0.342  12.233  19.906  0.00  0.00    +0.000 N 
ATOM      8  C   UNL     1       0.737  12.867  20.498  0.00  0.00    +0.000 C 
ATOM      9  C   UNL     1       0.433  13.861  21.595  0.00  0.00    +0.000 C 
ATOM     10  O   UNL     1       1.903  12.620  20.186  0.00  0.00    +0.000 OA
ATOM     11  C   UNL     1      -0.165  11.333  18.761  0.00  0.00    +0.000 C 
ATOM     12  S   UNL     1      -1.883  10.929  18.241  0.00  0.00    +0.000 S 
ATOM     13  H   UNL     1      -4.331  11.801  18.641  0.00  0.00    +0.000 HD
ENDROOT
BRANCH  11  14
ATOM     14  C   UNL     1       0.639  10.085  19.034  0.00  0.00    +0.000 A 
ATOM     15  C   UNL     1       1.553   9.561  18.109  0.00  0.00    +0.000 A 
ATOM     16  C   UNL     1       2.237   8.366  18.374  0.00  0.00    +0.000 A 
ATOM     17  C   UNL     1       3.128   7.804  17.443  0.00  0.00    +0.000 A 
ATOM     18  C   UNL     1       3.798   6.618  17.738  0.00  0.00    +0.000 A 
ATOM     19  C   UNL     1       3.578   5.989  18.957  0.00  0.00    +0.000 A 
ATOM     20  C   UNL     1       2.682   6.546  19.875  0.00  0.00    +0.000 A 
ATOM     21  C   UNL     1       2.004   7.729  19.608  0.00  0.00    +0.000 A 
ATOM     22  N   UNL     1       1.159   8.228  20.521  0.00  0.00    +0.000 NA
ATOM     23  C   UNL     1       0.501   9.371  20.219  0.00  0.00    +0.000 A 
ATOM     24 CL   UNL     1      -0.540   9.869  21.500  0.00  0.00    +0.000 Cl
ENDBRANCH  11  14
TORSDOF 1
ENDMDL
MODEL 7
REMARK VINA RESULT:      -6.1      5.514      8.913
REMARK  Name = 
REMARK  3 active torsions:
REMARK  status: ('A' for Active; 'I' for Inactive)
REMARK    1  A    between atoms: C_1  and  C_2
REMARK    2  A    between atoms: C_8  and  C_9
REMARK    3  A    between atoms: C_11  and  C_12
REMARK                            x       y       z     vdW  Elec       q    Type
REMARK                         _______ _______ _______ _____ _____    ______ ____
ROOT
ATOM      1  C   UNL     1      -4.859  13.669  20.754  0.00  0.00    +0.000 C 
ATOM      2  C   UNL     1      -3.374  13.494  20.585  0.00  0.00    +0.000 C 
ATOM      3  O   UNL     1      -2.587  14.320  21.033  0.00  0.00    +0.000 OA
ATOM      4  N   UNL     1      -3.038  12.322  19.926  0.00  0.00    +0.000 N 
ATOM      5  C   UNL     1      -1.772  11.975  19.567  0.00  0.00    +0.000 C 
ATOM      6  N   UNL     1      -0.692  12.634  19.813  0.00  0.00    +0.000 NA
ATOM      7  N   UNL     1       0.404  12.029  19.247  0.00  0.00    +0.000 N 
ATOM      8  C   UNL     1       1.626  12.679  19.221  0.00  0.00    +0.000 C 
ATOM      9  C   UNL     1       1.743  13.954  20.024  0.00  0.00    +0.000 C 
ATOM     10  O   UNL     1       2.598  12.235  18.608  0.00  0.00    +0.000 OA
ATOM     11  C   UNL     1       0.150  10.844  18.419  0.00  0.00    +0.000 C 
ATOM     12  S   UNL     1      -1.640  10.502  18.665  0.00  0.00    +0.000 S 
ATOM     13  H   UNL     1      -3.773  11.703  19.622  0.00  0.00    +0.000 HD
ENDROOT
BRANCH  11  14
ATOM     14  C   UNL     1       0.995   9.635  18.740  0.00  0.00    +0.000 A 
ATOM     15  C   UNL     1       1.842   9.037  17.796  0.00  0.00    +0.000 A 
ATOM     16  C   UNL     1       2.565   7.878  18.113  0.00  0.00    +0.000 A 
ATOM     17  C   UNL     1       3.388   7.240  17.169  0.00  0.00    +0.000 A 
ATOM     18  C   UNL     1       4.100   6.094  17.517  0.00  0.00    +0.000 A 
ATOM     19  C   UNL     1       3.988   5.579  18.803  0.00  0.00    +0.000 A 
ATOM     20  C   UNL     1       3.159   6.210  19.735  0.00  0.00    +0.000 A 
ATOM     21  C   UNL     1       2.442   7.356  19.416  0.00  0.00    +0.000 A 
ATOM     22  N   UNL     1       1.663   7.930  20.344  0.00  0.00    +0.000 NA
ATOM     23  C   UNL     1       0.964   9.033  19.992  0.00  0.00    +0.000 A 
ATOM     24 CL   UNL     1       0.020   9.638  21.302  0.00  0.00    +0.000 Cl
ENDBRANCH  11  14
TORSDOF 1
ENDMDL
MODEL 8
REMARK VINA RESULT:      -5.9      5.191      7.582
REMARK  Name = 
REMARK  3 active torsions:
REMARK  status: ('A' for Active; 'I' for Inactive)
REMARK    1  A    between atoms: C_1  and  C_2
REMARK    2  A    between atoms: C_8  and  C_9
REMARK    3  A    between atoms: C_11  and  C_12
REMARK                            x       y       z     vdW  Elec       q    Type
REMARK                         _______ _______ _______ _____ _____    ______ ____
ROOT
ATOM      1  C   UNL     1       3.708   4.988  18.472  0.00  0.00    +0.000 C 
ATOM      2  C   UNL     1       3.032   6.086  19.247  0.00  0.00    +0.000 C 
ATOM      3  O   UNL     1       2.937   6.029  20.468  0.00  0.00    +0.000 OA
ATOM      4  N   UNL     1       2.592   7.125  18.444  0.00  0.00    +0.000 N 
ATOM      5  C   UNL     1       1.871   8.192  18.887  0.00  0.00    +0.000 C 
ATOM      6  N   UNL     1       1.523   8.436  20.103  0.00  0.00    +0.000 NA
ATOM      7  N   UNL     1       0.743   9.563  20.184  0.00  0.00    +0.000 N 
ATOM      8  C   UNL     1       0.100   9.885  21.368  0.00  0.00    +0.000 C 
ATOM      9  C   UNL     1       0.471   9.080  22.593  0.00  0.00    +0.000 C 
ATOM     10  O   UNL     1      -0.713  10.807  21.450  0.00  0.00    +0.000 OA
ATOM     11  C   UNL     1       0.380  10.208  18.918  0.00  0.00    +0.000 C 
ATOM     12  S   UNL     1       1.363   9.300  17.656  0.00  0.00    +0.000 S 
ATOM     13  H   UNL     1       2.748   7.075  17.449  0.00  0.00    +0.000 HD
ENDROOT
BRANCH  11  14
ATOM     14  C   UNL     1       0.631  11.695  18.851  0.00  0.00    +0.000 A 
ATOM     15  C   UNL     1       1.902  12.254  19.046  0.00  0.00    +0.000 A 
ATOM     16  C   UNL     1       2.084  13.644  19.037  0.00  0.00    +0.000 A 
ATOM     17  C   UNL     1       3.343  14.225  19.269  0.00  0.00    +0.000 A 
ATOM     18  C   UNL     1       3.494  15.610  19.246  0.00  0.00    +0.000 A 
ATOM     19  C   UNL     1       2.390  16.417  18.998  0.00  0.00    +0.000 A 
ATOM     20  C   UNL     1       1.138  15.835  18.779  0.00  0.00    +0.000 A 
ATOM     21  C   UNL     1       0.961  14.458  18.792  0.00  0.00    +0.000 A 
ATOM     22  N   UNL     1      -0.258  13.945  18.572  0.00  0.00    +0.000 NA
ATOM     23  C   UNL     1      -0.397  12.600  18.612  0.00  0.00    +0.000 A 
ATOM     24 CL   UNL     1      -2.023  12.114  18.308  0.00  0.00    +0.000 Cl
ENDBRANCH  11  14
TORSDOF 1
ENDMDL
MODEL 9
REMARK VINA RESULT:      -5.9      8.192     11.163
REMARK  Name = 
REMARK  3 active torsions:
REMARK  status: ('A' for Active; 'I' for Inactive)
REMARK    1  A    between atoms: C_1  and  C_2
REMARK    2  A    between atoms: C_8  and  C_9
REMARK    3  A    between atoms: C_11  and  C_12
REMARK                            x       y       z     vdW  Elec       q    Type
REMARK                         _______ _______ _______ _____ _____    ______ ____
ROOT
ATOM      1  C   UNL     1      -4.649  12.450  24.927  0.00  0.00    +0.000 C 
ATOM      2  C   UNL     1      -4.246  12.433  23.477  0.00  0.00    +0.000 C 
ATOM      3  O   UNL     1      -5.087  12.493  22.588  0.00  0.00    +0.000 OA
ATOM      4  N   UNL     1      -2.873  12.381  23.298  0.00  0.00    +0.000 N 
ATOM      5  C   UNL     1      -2.256  12.263  22.089  0.00  0.00    +0.000 C 
ATOM      6  N   UNL     1      -2.825  12.228  20.933  0.00  0.00    +0.000 NA
ATOM      7  N   UNL     1      -1.907  12.034  19.929  0.00  0.00    +0.000 N 
ATOM      8  C   UNL     1      -2.330  11.765  18.638  0.00  0.00    +0.000 C 
ATOM      9  C   UNL     1      -3.807  11.917  18.353  0.00  0.00    +0.000 C 
ATOM     10  O   UNL     1      -1.549  11.453  17.738  0.00  0.00    +0.000 OA
ATOM     11  C   UNL     1      -0.516  11.815  20.339  0.00  0.00    +0.000 C 
ATOM     12  S   UNL     1      -0.531  12.120  22.153  0.00  0.00    +0.000 S 
ATOM     13  H   UNL     1      -2.273  12.359  24.107  0.00  0.00    +0.000 HD
ENDROOT
BRANCH  11  14
ATOM     14  C   UNL     1       0.509  12.674  19.640  0.00  0.00    +0.000 A 
ATOM     15  C   UNL     1       0.535  14.070  19.768  0.00  0.00    +0.000 A 
ATOM     16  C   UNL     1       1.466  14.838  19.055  0.00  0.00    +0.000 A 
ATOM     17  C   UNL     1       1.483  16.242  19.138  0.00  0.00    +0.000 A 
ATOM     18  C   UNL     1       2.425  16.978  18.423  0.00  0.00    +0.000 A 
ATOM     19  C   UNL     1       3.347  16.318  17.619  0.00  0.00    +0.000 A 
ATOM     20  C   UNL     1       3.319  14.923  17.531  0.00  0.00    +0.000 A 
ATOM     21  C   UNL     1       2.393  14.165  18.236  0.00  0.00    +0.000 A 
ATOM     22  N   UNL     1       2.408  12.829  18.124  0.00  0.00    +0.000 NA
ATOM     23  C   UNL     1       1.479  12.124  18.810  0.00  0.00    +0.000 A 
ATOM     24 CL   UNL     1       1.643  10.427  18.552  0.00  0.00    +0.000 Cl
ENDBRANCH  11  14
TORSDOF 1
ENDMDL
