MODEL 1
REMARK VINA RESULT:     -10.4      0.000      0.000
REMARK  Name = 
REMARK  8 active torsions:
REMARK  status: ('A' for Active; 'I' for Inactive)
REMARK    1  A    between atoms: C_1  and  O_2
REMARK    2  A    between atoms: O_2  and  C_3
REMARK    3  A    between atoms: C_9  and  C_10
REMARK    4  A    between atoms: C_10  and  N_11
REMARK    5  A    between atoms: C_15  and  N_16
REMARK    6  A    between atoms: C_17  and  C_19
REMARK    7  A    between atoms: C_25  and  C_26
REMARK    8  A    between atoms: C_30  and  C_31
REMARK                            x       y       z     vdW  Elec       q    Type
REMARK                         _______ _______ _______ _____ _____    ______ ____
ROOT
ATOM      1  N   UNL     1       0.998   7.562  21.313  0.00  0.00    +0.000 N 
ATOM      2  C   UNL     1       1.791   7.231  20.236  0.00  0.00    +0.000 C 
ATOM      3  O   UNL     1       2.402   8.056  19.569  0.00  0.00    +0.000 OA
ATOM      4  H   UNL     1       0.525   6.842  21.839  0.00  0.00    +0.000 HD
ENDROOT
BRANCH   2   5
ATOM      5  C   UNL     1       1.923   5.782  19.923  0.00  0.00    +0.000 A 
ATOM      6  C   UNL     1       1.058   4.814  20.449  0.00  0.00    +0.000 A 
ATOM      7  C   UNL     1       1.197   3.462  20.105  0.00  0.00    +0.000 A 
ATOM      8  C   UNL     1       2.234   3.126  19.228  0.00  0.00    +0.000 A 
ATOM      9  N   UNL     1       2.616   1.929  18.688  0.00  0.00    +0.000 N 
ATOM     10  N   UNL     1       3.677   2.000  17.872  0.00  0.00    +0.000 NA
ATOM     11  C   UNL     1       4.021   3.298  17.877  0.00  0.00    +0.000 A 
ATOM     12  C   UNL     1       3.120   4.056  18.695  0.00  0.00    +0.000 A 
ATOM     13  C   UNL     1       2.945   5.412  19.034  0.00  0.00    +0.000 A 
ATOM     14  H   UNL     1       2.184   1.022  18.833  0.00  0.00    +0.000 HD
BRANCH  11  15
ATOM     15  C   UNL     1       5.175   3.777  17.110  0.00  0.00    +0.000 A 
ATOM     16  C   UNL     1       6.271   4.365  17.741  0.00  0.00    +0.000 A 
ATOM     17  C   UNL     1       7.320   4.818  16.961  0.00  0.00    +0.000 A 
ATOM     18  N   UNL     1       7.358   4.709  15.618  0.00  0.00    +0.000 NA
ATOM     19  C   UNL     1       6.302   4.118  15.014  0.00  0.00    +0.000 A 
ATOM     20  C   UNL     1       6.355   3.989  13.521  0.00  0.00    +0.000 C 
ATOM     21  C   UNL     1       5.202   3.644  15.718  0.00  0.00    +0.000 A 
ENDBRANCH  11  15
ENDBRANCH   2   5
BRANCH   1  26
ATOM     22  N   UNL     1      -0.077  11.157  20.696  0.00  0.00    +0.000 NA
ATOM     23  C   UNL     1      -1.047  11.268  21.784  0.00  0.00    +0.000 C 
ATOM     24  C   UNL     1      -0.659  10.488  23.038  0.00  0.00    +0.000 C 
ATOM     25  C   UNL     1      -0.380   9.033  22.696  0.00  0.00    +0.000 C 
ATOM     26  C   UNL     1       0.742   8.957  21.663  0.00  0.00    +0.000 C 
ATOM     27  C   UNL     1       0.374   9.789  20.410  0.00  0.00    +0.000 C 
BRANCH  22  28
ATOM     28  C   UNL     1      -0.504  11.881  19.474  0.00  0.00    +0.000 C 
BRANCH  28  35
ATOM     29  C   UNL     1      -3.043  11.969  19.111  0.00  0.00    +0.000 A 
ATOM     30  C   UNL     1      -4.201  11.494  18.478  0.00  0.00    +0.000 A 
ATOM     31  C   UNL     1      -4.126  10.457  17.548  0.00  0.00    +0.000 A 
ATOM     32  C   UNL     1      -2.892   9.903  17.234  0.00  0.00    +0.000 A 
ATOM     33  C   UNL     1      -1.740  10.387  17.851  0.00  0.00    +0.000 A 
ATOM     34  F   UNL     1      -0.566   9.833  17.514  0.00  0.00    +0.000 F 
ATOM     35  C   UNL     1      -1.785  11.414  18.802  0.00  0.00    +0.000 A 
BRANCH  29  37
ATOM     36  C   UNL     1      -4.355  13.374  20.495  0.00  0.00    +0.000 C 
ATOM     37  O   UNL     1      -3.066  13.004  20.013  0.00  0.00    +0.000 OA
ENDBRANCH  29  37
ENDBRANCH  28  35
ENDBRANCH  22  28
ENDBRANCH   1  26
TORSDOF 6
ENDMDL
MODEL 2
REMARK VINA RESULT:     -10.1      0.722      1.281
REMARK  Name = 
REMARK  8 active torsions:
REMARK  status: ('A' for Active; 'I' for Inactive)
REMARK    1  A    between atoms: C_1  and  O_2
REMARK    2  A    between atoms: O_2  and  C_3
REMARK    3  A    between atoms: C_9  and  C_10
REMARK    4  A    between atoms: C_10  and  N_11
REMARK    5  A    between atoms: C_15  and  N_16
REMARK    6  A    between atoms: C_17  and  C_19
REMARK    7  A    between atoms: C_25  and  C_26
REMARK    8  A    between atoms: C_30  and  C_31
REMARK                            x       y       z     vdW  Elec       q    Type
REMARK                         _______ _______ _______ _____ _____    ______ ____
ROOT
ATOM      1  N   UNL     1       1.240   7.871  21.559  0.00  0.00    +0.000 N 
ATOM      2  C   UNL     1       1.693   7.564  20.295  0.00  0.00    +0.000 C 
ATOM      3  O   UNL     1       1.880   8.403  19.423  0.00  0.00    +0.000 OA
ATOM      4  H   UNL     1       1.115   7.142  22.246  0.00  0.00    +0.000 HD
ENDROOT
BRANCH   2   5
ATOM      5  C   UNL     1       2.004   6.133  20.025  0.00  0.00    +0.000 A 
ATOM      6  C   UNL     1       1.282   5.082  20.601  0.00  0.00    +0.000 A 
ATOM      7  C   UNL     1       1.586   3.748  20.297  0.00  0.00    +0.000 A 
ATOM      8  C   UNL     1       2.639   3.517  19.405  0.00  0.00    +0.000 A 
ATOM      9  N   UNL     1       3.160   2.360  18.893  0.00  0.00    +0.000 N 
ATOM     10  N   UNL     1       4.186   2.538  18.049  0.00  0.00    +0.000 NA
ATOM     11  C   UNL     1       4.360   3.870  18.004  0.00  0.00    +0.000 A 
ATOM     12  C   UNL     1       3.386   4.534  18.821  0.00  0.00    +0.000 A 
ATOM     13  C   UNL     1       3.046   5.867  19.121  0.00  0.00    +0.000 A 
ATOM     14  H   UNL     1       2.851   1.411  19.077  0.00  0.00    +0.000 HD
BRANCH  11  15
ATOM     15  C   UNL     1       5.426   4.465  17.194  0.00  0.00    +0.000 A 
ATOM     16  C   UNL     1       5.829   3.888  15.989  0.00  0.00    +0.000 A 
ATOM     17  C   UNL     1       6.857   4.484  15.280  0.00  0.00    +0.000 A 
ATOM     18  N   UNL     1       7.486   5.609  15.674  0.00  0.00    +0.000 NA
ATOM     19  C   UNL     1       7.075   6.176  16.831  0.00  0.00    +0.000 A 
ATOM     20  C   UNL     1       7.770   7.435  17.258  0.00  0.00    +0.000 C 
ATOM     21  C   UNL     1       6.059   5.641  17.613  0.00  0.00    +0.000 A 
ENDBRANCH  11  15
ENDBRANCH   2   5
BRANCH   1  26
ATOM     22  N   UNL     1      -0.096  11.372  20.915  0.00  0.00    +0.000 NA
ATOM     23  C   UNL     1      -1.151  11.376  21.928  0.00  0.00    +0.000 C 
ATOM     24  C   UNL     1      -0.790  10.606  23.196  0.00  0.00    +0.000 C 
ATOM     25  C   UNL     1      -0.361   9.187  22.855  0.00  0.00    +0.000 C 
ATOM     26  C   UNL     1       0.837   9.231  21.909  0.00  0.00    +0.000 C 
ATOM     27  C   UNL     1       0.493  10.054  20.644  0.00  0.00    +0.000 C 
BRANCH  22  28
ATOM     28  C   UNL     1      -0.492  12.082  19.675  0.00  0.00    +0.000 C 
BRANCH  28  35
ATOM     29  C   UNL     1      -2.990  11.981  19.091  0.00  0.00    +0.000 A 
ATOM     30  C   UNL     1      -4.049  11.420  18.364  0.00  0.00    +0.000 A 
ATOM     31  C   UNL     1      -3.817  10.387  17.455  0.00  0.00    +0.000 A 
ATOM     32  C   UNL     1      -2.523   9.923  17.257  0.00  0.00    +0.000 A 
ATOM     33  C   UNL     1      -1.468  10.494  17.966  0.00  0.00    +0.000 A 
ATOM     34  F   UNL     1      -0.232  10.026  17.739  0.00  0.00    +0.000 F 
ATOM     35  C   UNL     1      -1.672  11.520  18.898  0.00  0.00    +0.000 A 
BRANCH  29  37
ATOM     36  C   UNL     1      -4.454  13.095  20.583  0.00  0.00    +0.000 C 
ATOM     37  O   UNL     1      -3.167  13.016  19.975  0.00  0.00    +0.000 OA
ENDBRANCH  29  37
ENDBRANCH  28  35
ENDBRANCH  22  28
ENDBRANCH   1  26
TORSDOF 6
ENDMDL
MODEL 3
REMARK VINA RESULT:      -9.8      1.912      2.800
REMARK  Name = 
REMARK  8 active torsions:
REMARK  status: ('A' for Active; 'I' for Inactive)
REMARK    1  A    between atoms: C_1  and  O_2
REMARK    2  A    between atoms: O_2  and  C_3
REMARK    3  A    between atoms: C_9  and  C_10
REMARK    4  A    between atoms: C_10  and  N_11
REMARK    5  A    between atoms: C_15  and  N_16
REMARK    6  A    between atoms: C_17  and  C_19
REMARK    7  A    between atoms: C_25  and  C_26
REMARK    8  A    between atoms: C_30  and  C_31
REMARK                            x       y       z     vdW  Elec       q    Type
REMARK                         _______ _______ _______ _____ _____    ______ ____
ROOT
ATOM      1  N   UNL     1       1.289   7.773  21.421  0.00  0.00    +0.000 N 
ATOM      2  C   UNL     1       1.836   7.455  20.197  0.00  0.00    +0.000 C 
ATOM      3  O   UNL     1       2.163   8.292  19.365  0.00  0.00    +0.000 OA
ATOM      4  H   UNL     1       1.048   7.045  22.077  0.00  0.00    +0.000 HD
ENDROOT
BRANCH   2   5
ATOM      5  C   UNL     1       2.066   6.010  19.924  0.00  0.00    +0.000 A 
ATOM      6  C   UNL     1       1.322   4.997  20.538  0.00  0.00    +0.000 A 
ATOM      7  C   UNL     1       1.550   3.648  20.231  0.00  0.00    +0.000 A 
ATOM      8  C   UNL     1       2.551   3.364  19.295  0.00  0.00    +0.000 A 
ATOM      9  N   UNL     1       2.994   2.181  18.770  0.00  0.00    +0.000 N 
ATOM     10  N   UNL     1       3.990   2.307  17.881  0.00  0.00    +0.000 NA
ATOM     11  C   UNL     1       4.225   3.628  17.820  0.00  0.00    +0.000 A 
ATOM     12  C   UNL     1       3.319   4.341  18.673  0.00  0.00    +0.000 A 
ATOM     13  C   UNL     1       3.055   5.690  18.978  0.00  0.00    +0.000 A 
ATOM     14  H   UNL     1       2.650   1.249  18.974  0.00  0.00    +0.000 HD
BRANCH  11  15
ATOM     15  C   UNL     1       5.281   4.169  16.960  0.00  0.00    +0.000 A 
ATOM     16  C   UNL     1       6.251   5.037  17.463  0.00  0.00    +0.000 A 
ATOM     17  C   UNL     1       7.209   5.533  16.596  0.00  0.00    +0.000 A 
ATOM     18  N   UNL     1       7.277   5.210  15.289  0.00  0.00    +0.000 NA
ATOM     19  C   UNL     1       6.348   4.350  14.814  0.00  0.00    +0.000 A 
ATOM     20  C   UNL     1       6.436   3.986  13.361  0.00  0.00    +0.000 C 
ATOM     21  C   UNL     1       5.344   3.812  15.609  0.00  0.00    +0.000 A 
ENDBRANCH  11  15
ENDBRANCH   2   5
BRANCH   1  26
ATOM     22  N   UNL     1       0.245  11.366  20.740  0.00  0.00    +0.000 NA
ATOM     23  C   UNL     1      -0.880  11.430  21.672  0.00  0.00    +0.000 C 
ATOM     24  C   UNL     1      -0.670  10.621  22.949  0.00  0.00    +0.000 C 
ATOM     25  C   UNL     1      -0.312   9.181  22.617  0.00  0.00    +0.000 C 
ATOM     26  C   UNL     1       0.954   9.154  21.764  0.00  0.00    +0.000 C 
ATOM     27  C   UNL     1       0.762  10.014  20.491  0.00  0.00    +0.000 C 
BRANCH  22  28
ATOM     28  C   UNL     1      -0.008  12.117  19.487  0.00  0.00    +0.000 C 
BRANCH  28  35
ATOM     29  C   UNL     1       0.706  14.583  19.506  0.00  0.00    +0.000 A 
ATOM     30  C   UNL     1       1.615  15.591  19.154  0.00  0.00    +0.000 A 
ATOM     31  C   UNL     1       2.767  15.286  18.429  0.00  0.00    +0.000 A 
ATOM     32  C   UNL     1       3.023  13.969  18.067  0.00  0.00    +0.000 A 
ATOM     33  C   UNL     1       2.128  12.966  18.433  0.00  0.00    +0.000 A 
ATOM     34  F   UNL     1       2.417  11.706  18.074  0.00  0.00    +0.000 F 
ATOM     35  C   UNL     1       0.955  13.243  19.145  0.00  0.00    +0.000 A 
BRANCH  29  37
ATOM     36  C   UNL     1      -1.107  16.047  19.935  0.00  0.00    +0.000 C 
ATOM     37  O   UNL     1      -0.426  14.832  20.242  0.00  0.00    +0.000 OA
ENDBRANCH  29  37
ENDBRANCH  28  35
ENDBRANCH  22  28
ENDBRANCH   1  26
TORSDOF 6
ENDMDL
MODEL 4
REMARK VINA RESULT:      -9.6      1.976      2.999
REMARK  Name = 
REMARK  8 active torsions:
REMARK  status: ('A' for Active; 'I' for Inactive)
REMARK    1  A    between atoms: C_1  and  O_2
REMARK    2  A    between atoms: O_2  and  C_3
REMARK    3  A    between atoms: C_9  and  C_10
REMARK    4  A    between atoms: C_10  and  N_11
REMARK    5  A    between atoms: C_15  and  N_16
REMARK    6  A    between atoms: C_17  and  C_19
REMARK    7  A    between atoms: C_25  and  C_26
REMARK    8  A    between atoms: C_30  and  C_31
REMARK                            x       y       z     vdW  Elec       q    Type
REMARK                         _______ _______ _______ _____ _____    ______ ____
ROOT
ATOM      1  N   UNL     1       1.205   7.994  21.565  0.00  0.00    +0.000 N 
ATOM      2  C   UNL     1       1.701   7.682  20.318  0.00  0.00    +0.000 C 
ATOM      3  O   UNL     1       1.936   8.520  19.456  0.00  0.00    +0.000 OA
ATOM      4  H   UNL     1       1.041   7.267  22.245  0.00  0.00    +0.000 HD
ENDROOT
BRANCH   2   5
ATOM      5  C   UNL     1       1.994   6.247  20.055  0.00  0.00    +0.000 A 
ATOM      6  C   UNL     1       1.258   5.207  20.635  0.00  0.00    +0.000 A 
ATOM      7  C   UNL     1       1.547   3.868  20.337  0.00  0.00    +0.000 A 
ATOM      8  C   UNL     1       2.599   3.620  19.449  0.00  0.00    +0.000 A 
ATOM      9  N   UNL     1       3.107   2.455  18.944  0.00  0.00    +0.000 N 
ATOM     10  N   UNL     1       4.138   2.616  18.101  0.00  0.00    +0.000 NA
ATOM     11  C   UNL     1       4.329   3.945  18.052  0.00  0.00    +0.000 A 
ATOM     12  C   UNL     1       3.361   4.625  18.863  0.00  0.00    +0.000 A 
ATOM     13  C   UNL     1       3.035   5.963  19.156  0.00  0.00    +0.000 A 
ATOM     14  H   UNL     1       2.786   1.510  19.132  0.00  0.00    +0.000 HD
BRANCH  11  15
ATOM     15  C   UNL     1       5.404   4.524  17.241  0.00  0.00    +0.000 A 
ATOM     16  C   UNL     1       5.798   3.941  16.037  0.00  0.00    +0.000 A 
ATOM     17  C   UNL     1       6.835   4.521  15.328  0.00  0.00    +0.000 A 
ATOM     18  N   UNL     1       7.482   5.636  15.722  0.00  0.00    +0.000 NA
ATOM     19  C   UNL     1       7.080   6.209  16.880  0.00  0.00    +0.000 A 
ATOM     20  C   UNL     1       7.795   7.456  17.308  0.00  0.00    +0.000 C 
ATOM     21  C   UNL     1       6.055   5.689  17.661  0.00  0.00    +0.000 A 
ENDBRANCH  11  15
ENDBRANCH   2   5
BRANCH   1  26
ATOM     22  N   UNL     1      -0.004  11.533  20.877  0.00  0.00    +0.000 NA
ATOM     23  C   UNL     1      -1.118  11.555  21.824  0.00  0.00    +0.000 C 
ATOM     24  C   UNL     1      -0.854  10.764  23.103  0.00  0.00    +0.000 C 
ATOM     25  C   UNL     1      -0.439   9.339  22.775  0.00  0.00    +0.000 C 
ATOM     26  C   UNL     1       0.815   9.361  21.904  0.00  0.00    +0.000 C 
ATOM     27  C   UNL     1       0.568  10.204  20.629  0.00  0.00    +0.000 C 
BRANCH  22  28
ATOM     28  C   UNL     1      -0.307  12.264  19.623  0.00  0.00    +0.000 C 
BRANCH  28  35
ATOM     29  C   UNL     1       0.352  14.742  19.495  0.00  0.00    +0.000 A 
ATOM     30  C   UNL     1       1.245  15.746  19.096  0.00  0.00    +0.000 A 
ATOM     31  C   UNL     1       2.419  15.422  18.416  0.00  0.00    +0.000 A 
ATOM     32  C   UNL     1       2.713  14.091  18.147  0.00  0.00    +0.000 A 
ATOM     33  C   UNL     1       1.833  13.093  18.559  0.00  0.00    +0.000 A 
ATOM     34  F   UNL     1       2.157  11.819  18.290  0.00  0.00    +0.000 F 
ATOM     35  C   UNL     1       0.638  13.388  19.228  0.00  0.00    +0.000 A 
BRANCH  29  37
ATOM     36  C   UNL     1      -1.308  16.338  20.054  0.00  0.00    +0.000 C 
ATOM     37  O   UNL     1      -0.802  15.012  20.189  0.00  0.00    +0.000 OA
ENDBRANCH  29  37
ENDBRANCH  28  35
ENDBRANCH  22  28
ENDBRANCH   1  26
TORSDOF 6
ENDMDL
MODEL 5
REMARK VINA RESULT:      -9.5      2.394      3.434
REMARK  Name = 
REMARK  8 active torsions:
REMARK  status: ('A' for Active; 'I' for Inactive)
REMARK    1  A    between atoms: C_1  and  O_2
REMARK    2  A    between atoms: O_2  and  C_3
REMARK    3  A    between atoms: C_9  and  C_10
REMARK    4  A    between atoms: C_10  and  N_11
REMARK    5  A    between atoms: C_15  and  N_16
REMARK    6  A    between atoms: C_17  and  C_19
REMARK    7  A    between atoms: C_25  and  C_26
REMARK    8  A    between atoms: C_30  and  C_31
REMARK                            x       y       z     vdW  Elec       q    Type
REMARK                         _______ _______ _______ _____ _____    ______ ____
ROOT
ATOM      1  N   UNL     1       1.448   7.911  21.727  0.00  0.00    +0.000 N 
ATOM      2  C   UNL     1       1.696   7.595  20.410  0.00  0.00    +0.000 C 
ATOM      3  O   UNL     1       1.722   8.424  19.509  0.00  0.00    +0.000 OA
ATOM      4  H   UNL     1       1.450   7.191  22.434  0.00  0.00    +0.000 HD
ENDROOT
BRANCH   2   5
ATOM      5  C   UNL     1       1.986   6.166  20.109  0.00  0.00    +0.000 A 
ATOM      6  C   UNL     1       1.272   5.112  20.690  0.00  0.00    +0.000 A 
ATOM      7  C   UNL     1       1.556   3.780  20.357  0.00  0.00    +0.000 A 
ATOM      8  C   UNL     1       2.580   3.555  19.430  0.00  0.00    +0.000 A 
ATOM      9  N   UNL     1       3.076   2.402  18.886  0.00  0.00    +0.000 N 
ATOM     10  N   UNL     1       4.078   2.585  18.014  0.00  0.00    +0.000 NA
ATOM     11  C   UNL     1       4.263   3.915  17.986  0.00  0.00    +0.000 A 
ATOM     12  C   UNL     1       3.319   4.574  18.841  0.00  0.00    +0.000 A 
ATOM     13  C   UNL     1       2.998   5.905  19.171  0.00  0.00    +0.000 A 
ATOM     14  H   UNL     1       2.765   1.453  19.065  0.00  0.00    +0.000 HD
BRANCH  11  15
ATOM     15  C   UNL     1       5.310   4.515  17.153  0.00  0.00    +0.000 A 
ATOM     16  C   UNL     1       6.178   5.480  17.665  0.00  0.00    +0.000 A 
ATOM     17  C   UNL     1       7.131   6.025  16.822  0.00  0.00    +0.000 A 
ATOM     18  N   UNL     1       7.287   5.666  15.533  0.00  0.00    +0.000 NA
ATOM     19  C   UNL     1       6.457   4.713  15.051  0.00  0.00    +0.000 A 
ATOM     20  C   UNL     1       6.644   4.308  13.619  0.00  0.00    +0.000 C 
ATOM     21  C   UNL     1       5.465   4.119  15.821  0.00  0.00    +0.000 A 
ENDBRANCH  11  15
ENDBRANCH   2   5
BRANCH   1  26
ATOM     22  N   UNL     1       0.680  11.597  21.194  0.00  0.00    +0.000 NA
ATOM     23  C   UNL     1      -0.624  11.631  21.855  0.00  0.00    +0.000 C 
ATOM     24  C   UNL     1      -0.727  10.699  23.061  0.00  0.00    +0.000 C 
ATOM     25  C   UNL     1      -0.343   9.280  22.674  0.00  0.00    +0.000 C 
ATOM     26  C   UNL     1       1.081   9.269  22.124  0.00  0.00    +0.000 C 
ATOM     27  C   UNL     1       1.203  10.250  20.932  0.00  0.00    +0.000 C 
BRANCH  22  28
ATOM     28  C   UNL     1       0.735  12.470  19.997  0.00  0.00    +0.000 C 
BRANCH  28  35
ATOM     29  C   UNL     1       2.359  14.263  20.856  0.00  0.00    +0.000 A 
ATOM     30  C   UNL     1       3.480  15.084  20.666  0.00  0.00    +0.000 A 
ATOM     31  C   UNL     1       4.199  15.037  19.471  0.00  0.00    +0.000 A 
ATOM     32  C   UNL     1       3.810  14.158  18.468  0.00  0.00    +0.000 A 
ATOM     33  C   UNL     1       2.706  13.330  18.665  0.00  0.00    +0.000 A 
ATOM     34  F   UNL     1       2.368  12.488  17.678  0.00  0.00    +0.000 F 
ATOM     35  C   UNL     1       1.954  13.367  19.847  0.00  0.00    +0.000 A 
BRANCH  29  37
ATOM     36  C   UNL     1       0.826  15.405  22.255  0.00  0.00    +0.000 C 
ATOM     37  O   UNL     1       1.638  14.257  22.024  0.00  0.00    +0.000 OA
ENDBRANCH  29  37
ENDBRANCH  28  35
ENDBRANCH  22  28
ENDBRANCH   1  26
TORSDOF 6
ENDMDL
MODEL 6
REMARK VINA RESULT:      -9.3      2.287      3.384
REMARK  Name = 
REMARK  8 active torsions:
REMARK  status: ('A' for Active; 'I' for Inactive)
REMARK    1  A    between atoms: C_1  and  O_2
REMARK    2  A    between atoms: O_2  and  C_3
REMARK    3  A    between atoms: C_9  and  C_10
REMARK    4  A    between atoms: C_10  and  N_11
REMARK    5  A    between atoms: C_15  and  N_16
REMARK    6  A    between atoms: C_17  and  C_19
REMARK    7  A    between atoms: C_25  and  C_26
REMARK    8  A    between atoms: C_30  and  C_31
REMARK                            x       y       z     vdW  Elec       q    Type
REMARK                         _______ _______ _______ _____ _____    ______ ____
ROOT
ATOM      1  N   UNL     1       1.280   8.150  21.644  0.00  0.00    +0.000 N 
ATOM      2  C   UNL     1       1.636   7.791  20.362  0.00  0.00    +0.000 C 
ATOM      3  O   UNL     1       1.682   8.582  19.428  0.00  0.00    +0.000 OA
ATOM      4  H   UNL     1       1.271   7.462  22.382  0.00  0.00    +0.000 HD
ENDROOT
BRANCH   2   5
ATOM      5  C   UNL     1       2.019   6.369  20.148  0.00  0.00    +0.000 A 
ATOM      6  C   UNL     1       1.346   5.306  20.760  0.00  0.00    +0.000 A 
ATOM      7  C   UNL     1       1.719   3.977  20.508  0.00  0.00    +0.000 A 
ATOM      8  C   UNL     1       2.789   3.766  19.631  0.00  0.00    +0.000 A 
ATOM      9  N   UNL     1       3.371   2.619  19.167  0.00  0.00    +0.000 N 
ATOM     10  N   UNL     1       4.393   2.817  18.322  0.00  0.00    +0.000 NA
ATOM     11  C   UNL     1       4.501   4.153  18.228  0.00  0.00    +0.000 A 
ATOM     12  C   UNL     1       3.489   4.797  19.014  0.00  0.00    +0.000 A 
ATOM     13  C   UNL     1       3.080   6.122  19.262  0.00  0.00    +0.000 A 
ATOM     14  H   UNL     1       3.108   1.663  19.385  0.00  0.00    +0.000 HD
BRANCH  11  15
ATOM     15  C   UNL     1       5.542   4.770  17.402  0.00  0.00    +0.000 A 
ATOM     16  C   UNL     1       5.919   4.216  16.179  0.00  0.00    +0.000 A 
ATOM     17  C   UNL     1       6.925   4.833  15.455  0.00  0.00    +0.000 A 
ATOM     18  N   UNL     1       7.555   5.956  15.852  0.00  0.00    +0.000 NA
ATOM     19  C   UNL     1       7.168   6.500  17.028  0.00  0.00    +0.000 A 
ATOM     20  C   UNL     1       7.864   7.757  17.459  0.00  0.00    +0.000 C 
ATOM     21  C   UNL     1       6.176   5.944  17.825  0.00  0.00    +0.000 A 
ENDBRANCH  11  15
ENDBRANCH   2   5
BRANCH   1  26
ATOM     22  N   UNL     1      -0.167  11.583  20.881  0.00  0.00    +0.000 NA
ATOM     23  C   UNL     1      -1.249  11.570  21.866  0.00  0.00    +0.000 C 
ATOM     24  C   UNL     1      -0.895  10.843  23.160  0.00  0.00    +0.000 C 
ATOM     25  C   UNL     1      -0.403   9.434  22.865  0.00  0.00    +0.000 C 
ATOM     26  C   UNL     1       0.818   9.502  21.951  0.00  0.00    +0.000 C 
ATOM     27  C   UNL     1       0.478  10.282  20.658  0.00  0.00    +0.000 C 
BRANCH  22  28
ATOM     28  C   UNL     1      -0.555  12.249  19.615  0.00  0.00    +0.000 C 
BRANCH  28  35
ATOM     29  C   UNL     1       0.994  14.157  18.874  0.00  0.00    +0.000 A 
ATOM     30  C   UNL     1       1.281  15.526  18.778  0.00  0.00    +0.000 A 
ATOM     31  C   UNL     1       0.391  16.474  19.283  0.00  0.00    +0.000 A 
ATOM     32  C   UNL     1      -0.796  16.058  19.872  0.00  0.00    +0.000 A 
ATOM     33  C   UNL     1      -1.088  14.698  19.951  0.00  0.00    +0.000 A 
ATOM     34  F   UNL     1      -2.249  14.337  20.517  0.00  0.00    +0.000 F 
ATOM     35  C   UNL     1      -0.207  13.722  19.469  0.00  0.00    +0.000 A 
BRANCH  29  37
ATOM     36  C   UNL     1       3.203  13.548  18.274  0.00  0.00    +0.000 C 
ATOM     37  O   UNL     1       1.827  13.190  18.367  0.00  0.00    +0.000 OA
ENDBRANCH  29  37
ENDBRANCH  28  35
ENDBRANCH  22  28
ENDBRANCH   1  26
TORSDOF 6
ENDMDL
MODEL 7
REMARK VINA RESULT:      -9.3      2.147      3.142
REMARK  Name = 
REMARK  8 active torsions:
REMARK  status: ('A' for Active; 'I' for Inactive)
REMARK    1  A    between atoms: C_1  and  O_2
REMARK    2  A    between atoms: O_2  and  C_3
REMARK    3  A    between atoms: C_9  and  C_10
REMARK    4  A    between atoms: C_10  and  N_11
REMARK    5  A    between atoms: C_15  and  N_16
REMARK    6  A    between atoms: C_17  and  C_19
REMARK    7  A    between atoms: C_25  and  C_26
REMARK    8  A    between atoms: C_30  and  C_31
REMARK                            x       y       z     vdW  Elec       q    Type
REMARK                         _______ _______ _______ _____ _____    ______ ____
ROOT
ATOM      1  N   UNL     1       1.260   7.758  21.560  0.00  0.00    +0.000 N 
ATOM      2  C   UNL     1       1.745   7.457  20.306  0.00  0.00    +0.000 C 
ATOM      3  O   UNL     1       2.000   8.304  19.459  0.00  0.00    +0.000 OA
ATOM      4  H   UNL     1       1.078   7.023  22.227  0.00  0.00    +0.000 HD
ENDROOT
BRANCH   2   5
ATOM      5  C   UNL     1       2.001   6.019  20.016  0.00  0.00    +0.000 A 
ATOM      6  C   UNL     1       1.260   4.987  20.603  0.00  0.00    +0.000 A 
ATOM      7  C   UNL     1       1.512   3.646  20.280  0.00  0.00    +0.000 A 
ATOM      8  C   UNL     1       2.534   3.389  19.359  0.00  0.00    +0.000 A 
ATOM      9  N   UNL     1       3.004   2.221  18.825  0.00  0.00    +0.000 N 
ATOM     10  N   UNL     1       4.014   2.373  17.956  0.00  0.00    +0.000 NA
ATOM     11  C   UNL     1       4.231   3.698  17.918  0.00  0.00    +0.000 A 
ATOM     12  C   UNL     1       3.300   4.386  18.765  0.00  0.00    +0.000 A 
ATOM     13  C   UNL     1       3.011   5.727  19.085  0.00  0.00    +0.000 A 
ATOM     14  H   UNL     1       2.669   1.281  19.009  0.00  0.00    +0.000 HD
BRANCH  11  15
ATOM     15  C   UNL     1       5.295   4.266  17.086  0.00  0.00    +0.000 A 
ATOM     16  C   UNL     1       6.226   5.162  17.612  0.00  0.00    +0.000 A 
ATOM     17  C   UNL     1       7.194   5.682  16.770  0.00  0.00    +0.000 A 
ATOM     18  N   UNL     1       7.306   5.359  15.467  0.00  0.00    +0.000 NA
ATOM     19  C   UNL     1       6.415   4.472  14.969  0.00  0.00    +0.000 A 
ATOM     20  C   UNL     1       6.552   4.107  13.521  0.00  0.00    +0.000 C 
ATOM     21  C   UNL     1       5.404   3.909  15.738  0.00  0.00    +0.000 A 
ENDBRANCH  11  15
ENDBRANCH   2   5
BRANCH   1  26
ATOM     22  N   UNL     1       0.159  11.344  20.938  0.00  0.00    +0.000 NA
ATOM     23  C   UNL     1      -0.963  11.377  21.875  0.00  0.00    +0.000 C 
ATOM     24  C   UNL     1      -0.734  10.552  23.139  0.00  0.00    +0.000 C 
ATOM     25  C   UNL     1      -0.357   9.123  22.784  0.00  0.00    +0.000 C 
ATOM     26  C   UNL     1       0.906   9.128  21.925  0.00  0.00    +0.000 C 
ATOM     27  C   UNL     1       0.696  10.004  20.667  0.00  0.00    +0.000 C 
BRANCH  22  28
ATOM     28  C   UNL     1      -0.110  12.110  19.697  0.00  0.00    +0.000 C 
BRANCH  28  35
ATOM     29  C   UNL     1       1.529  14.079  19.535  0.00  0.00    +0.000 A 
ATOM     30  C   UNL     1       1.786  15.457  19.574  0.00  0.00    +0.000 A 
ATOM     31  C   UNL     1       0.753  16.365  19.806  0.00  0.00    +0.000 A 
ATOM     32  C   UNL     1      -0.545  15.900  19.983  0.00  0.00    +0.000 A 
ATOM     33  C   UNL     1      -0.802  14.532  19.926  0.00  0.00    +0.000 A 
ATOM     34  F   UNL     1      -2.069  14.123  20.091  0.00  0.00    +0.000 F 
ATOM     35  C   UNL     1       0.217  13.595  19.712  0.00  0.00    +0.000 A 
BRANCH  29  37
ATOM     36  C   UNL     1       2.820  12.939  17.908  0.00  0.00    +0.000 C 
ATOM     37  O   UNL     1       2.509  13.152  19.283  0.00  0.00    +0.000 OA
ENDBRANCH  29  37
ENDBRANCH  28  35
ENDBRANCH  22  28
ENDBRANCH   1  26
TORSDOF 6
ENDMDL
MODEL 8
REMARK VINA RESULT:      -9.2      2.429      3.527
REMARK  Name = 
REMARK  8 active torsions:
REMARK  status: ('A' for Active; 'I' for Inactive)
REMARK    1  A    between atoms: C_1  and  O_2
REMARK    2  A    between atoms: O_2  and  C_3
REMARK    3  A    between atoms: C_9  and  C_10
REMARK    4  A    between atoms: C_10  and  N_11
REMARK    5  A    between atoms: C_15  and  N_16
REMARK    6  A    between atoms: C_17  and  C_19
REMARK    7  A    between atoms: C_25  and  C_26
REMARK    8  A    between atoms: C_30  and  C_31
REMARK                            x       y       z     vdW  Elec       q    Type
REMARK                         _______ _______ _______ _____ _____    ______ ____
ROOT
ATOM      1  N   UNL     1       0.899   8.887  20.853  0.00  0.00    +0.000 N 
ATOM      2  C   UNL     1       1.477   8.289  19.755  0.00  0.00    +0.000 C 
ATOM      3  O   UNL     1       1.613   8.849  18.675  0.00  0.00    +0.000 OA
ATOM      4  H   UNL     1       0.822   8.386  21.726  0.00  0.00    +0.000 HD
ENDROOT
BRANCH   2   5
ATOM      5  C   UNL     1       1.991   6.904  19.941  0.00  0.00    +0.000 A 
ATOM      6  C   UNL     1       1.461   6.023  20.890  0.00  0.00    +0.000 A 
ATOM      7  C   UNL     1       1.953   4.716  21.014  0.00  0.00    +0.000 A 
ATOM      8  C   UNL     1       2.993   4.339  20.157  0.00  0.00    +0.000 A 
ATOM      9  N   UNL     1       3.665   3.156  20.009  0.00  0.00    +0.000 N 
ATOM     10  N   UNL     1       4.618   3.173  19.066  0.00  0.00    +0.000 NA
ATOM     11  C   UNL     1       4.586   4.423  18.575  0.00  0.00    +0.000 A 
ATOM     12  C   UNL     1       3.554   5.189  19.211  0.00  0.00    +0.000 A 
ATOM     13  C   UNL     1       3.026   6.489  19.088  0.00  0.00    +0.000 A 
ATOM     14  H   UNL     1       3.511   2.292  20.519  0.00  0.00    +0.000 HD
BRANCH  11  15
ATOM     15  C   UNL     1       5.517   4.845  17.524  0.00  0.00    +0.000 A 
ATOM     16  C   UNL     1       6.462   5.846  17.754  0.00  0.00    +0.000 A 
ATOM     17  C   UNL     1       7.298   6.218  16.715  0.00  0.00    +0.000 A 
ATOM     18  N   UNL     1       7.269   5.655  15.491  0.00  0.00    +0.000 NA
ATOM     19  C   UNL     1       6.366   4.670  15.283  0.00  0.00    +0.000 A 
ATOM     20  C   UNL     1       6.347   4.039  13.922  0.00  0.00    +0.000 C 
ATOM     21  C   UNL     1       5.481   4.241  16.264  0.00  0.00    +0.000 A 
ENDBRANCH  11  15
ENDBRANCH   2   5
BRANCH   1  26
ATOM     22  N   UNL     1      -1.147  11.861  22.047  0.00  0.00    +0.000 NA
ATOM     23  C   UNL     1      -0.135  12.898  21.845  0.00  0.00    +0.000 C 
ATOM     24  C   UNL     1       0.760  12.657  20.632  0.00  0.00    +0.000 C 
ATOM     25  C   UNL     1       1.393  11.276  20.701  0.00  0.00    +0.000 C 
ATOM     26  C   UNL     1       0.297  10.215  20.762  0.00  0.00    +0.000 C 
ATOM     27  C   UNL     1      -0.644  10.484  21.962  0.00  0.00    +0.000 C 
BRANCH  22  28
ATOM     28  C   UNL     1      -1.968  12.092  23.260  0.00  0.00    +0.000 C 
BRANCH  28  35
ATOM     29  C   UNL     1      -4.071  13.442  22.674  0.00  0.00    +0.000 A 
ATOM     30  C   UNL     1      -4.806  14.635  22.721  0.00  0.00    +0.000 A 
ATOM     31  C   UNL     1      -4.293  15.759  23.370  0.00  0.00    +0.000 A 
ATOM     32  C   UNL     1      -3.051  15.688  23.988  0.00  0.00    +0.000 A 
ATOM     33  C   UNL     1      -2.330  14.496  23.956  0.00  0.00    +0.000 A 
ATOM     34  F   UNL     1      -1.140  14.465  24.575  0.00  0.00    +0.000 F 
ATOM     35  C   UNL     1      -2.811  13.357  23.298  0.00  0.00    +0.000 A 
BRANCH  29  37
ATOM     36  C   UNL     1      -5.409  12.512  20.954  0.00  0.00    +0.000 C 
ATOM     37  O   UNL     1      -4.548  12.304  22.071  0.00  0.00    +0.000 OA
ENDBRANCH  29  37
ENDBRANCH  28  35
ENDBRANCH  22  28
ENDBRANCH   1  26
TORSDOF 6
ENDMDL
MODEL 9
REMARK VINA RESULT:      -9.2      2.312      3.156
REMARK  Name = 
REMARK  8 active torsions:
REMARK  status: ('A' for Active; 'I' for Inactive)
REMARK    1  A    between atoms: C_1  and  O_2
REMARK    2  A    between atoms: O_2  and  C_3
REMARK    3  A    between atoms: C_9  and  C_10
REMARK    4  A    between atoms: C_10  and  N_11
REMARK    5  A    between atoms: C_15  and  N_16
REMARK    6  A    between atoms: C_17  and  C_19
REMARK    7  A    between atoms: C_25  and  C_26
REMARK    8  A    between atoms: C_30  and  C_31
REMARK                            x       y       z     vdW  Elec       q    Type
REMARK                         _______ _______ _______ _____ _____    ______ ____
ROOT
ATOM      1  N   UNL     1       1.235   7.476  21.490  0.00  0.00    +0.000 N 
ATOM      2  C   UNL     1       1.829   7.170  20.285  0.00  0.00    +0.000 C 
ATOM      3  O   UNL     1       2.272   8.014  19.517  0.00  0.00    +0.000 OA
ATOM      4  H   UNL     1       0.898   6.741  22.094  0.00  0.00    +0.000 HD
ENDROOT
BRANCH   2   5
ATOM      5  C   UNL     1       1.961   5.725  19.953  0.00  0.00    +0.000 A 
ATOM      6  C   UNL     1       1.111   4.747  20.482  0.00  0.00    +0.000 A 
ATOM      7  C   UNL     1       1.250   3.400  20.121  0.00  0.00    +0.000 A 
ATOM      8  C   UNL     1       2.272   3.079  19.221  0.00  0.00    +0.000 A 
ATOM      9  N   UNL     1       2.649   1.890  18.660  0.00  0.00    +0.000 N 
ATOM     10  N   UNL     1       3.695   1.976  17.825  0.00  0.00    +0.000 NA
ATOM     11  C   UNL     1       4.034   3.276  17.840  0.00  0.00    +0.000 A 
ATOM     12  C   UNL     1       3.144   4.019  18.684  0.00  0.00    +0.000 A 
ATOM     13  C   UNL     1       2.969   5.370  19.041  0.00  0.00    +0.000 A 
ATOM     14  H   UNL     1       2.224   0.979  18.802  0.00  0.00    +0.000 HD
BRANCH  11  15
ATOM     15  C   UNL     1       5.171   3.769  17.058  0.00  0.00    +0.000 A 
ATOM     16  C   UNL     1       6.256   4.394  17.673  0.00  0.00    +0.000 A 
ATOM     17  C   UNL     1       7.290   4.859  16.878  0.00  0.00    +0.000 A 
ATOM     18  N   UNL     1       7.323   4.727  15.537  0.00  0.00    +0.000 NA
ATOM     19  C   UNL     1       6.278   4.100  14.950  0.00  0.00    +0.000 A 
ATOM     20  C   UNL     1       6.325   3.947  13.459  0.00  0.00    +0.000 C 
ATOM     21  C   UNL     1       5.193   3.612  15.668  0.00  0.00    +0.000 A 
ENDBRANCH  11  15
ENDBRANCH   2   5
BRANCH   1  26
ATOM     22  N   UNL     1       0.760  11.209  20.941  0.00  0.00    +0.000 NA
ATOM     23  C   UNL     1      -0.522  11.353  21.630  0.00  0.00    +0.000 C 
ATOM     24  C   UNL     1      -0.675  10.442  22.845  0.00  0.00    +0.000 C 
ATOM     25  C   UNL     1      -0.417   8.993  22.462  0.00  0.00    +0.000 C 
ATOM     26  C   UNL     1       0.989   8.862  21.882  0.00  0.00    +0.000 C 
ATOM     27  C   UNL     1       1.165   9.822  20.680  0.00  0.00    +0.000 C 
BRANCH  22  28
ATOM     28  C   UNL     1       0.861  12.066  19.736  0.00  0.00    +0.000 C 
BRANCH  28  35
ATOM     29  C   UNL     1       1.615  14.284  20.786  0.00  0.00    +0.000 A 
ATOM     30  C   UNL     1       1.458  15.667  20.957  0.00  0.00    +0.000 A 
ATOM     31  C   UNL     1       0.429  16.350  20.309  0.00  0.00    +0.000 A 
ATOM     32  C   UNL     1      -0.437  15.655  19.473  0.00  0.00    +0.000 A 
ATOM     33  C   UNL     1      -0.269  14.285  19.289  0.00  0.00    +0.000 A 
ATOM     34  F   UNL     1      -1.118  13.652  18.466  0.00  0.00    +0.000 F 
ATOM     35  C   UNL     1       0.744  13.568  19.940  0.00  0.00    +0.000 A 
BRANCH  29  37
ATOM     36  C   UNL     1       3.882  14.250  21.473  0.00  0.00    +0.000 C 
ATOM     37  O   UNL     1       2.629  13.576  21.382  0.00  0.00    +0.000 OA
ENDBRANCH  29  37
ENDBRANCH  28  35
ENDBRANCH  22  28
ENDBRANCH   1  26
TORSDOF 6
ENDMDL
