MODEL 1
REMARK VINA RESULT:      -7.6      0.000      0.000
REMARK  Name = 
REMARK  9 active torsions:
REMARK  status: ('A' for Active; 'I' for Inactive)
REMARK    1  A    between atoms: C_1  and  C_2
REMARK    2  A    between atoms: N_4  and  C_5
REMARK    3  A    between atoms: C_5  and  C_6
REMARK    4  A    between atoms: C_5  and  C_7
REMARK    5  A    between atoms: C_10  and  O_11
REMARK    6  A    between atoms: O_11  and  C_12
REMARK    7  A    between atoms: N_15  and  C_16
REMARK    8  A    between atoms: C_19  and  O_20
REMARK    9  A    between atoms: O_20  and  C_21
REMARK                            x       y       z     vdW  Elec       q    Type
REMARK                         _______ _______ _______ _____ _____    ______ ____
ROOT
ATOM      1  C   UNL     1       2.712   3.318  21.138  0.00  0.00    +0.000 C 
ATOM      2  C   UNL     1       1.193   3.254  20.979  0.00  0.00    +0.000 C 
ATOM      3  C   UNL     1       0.836   4.382  20.009  0.00  0.00    +0.000 C 
ATOM      4  N   UNL     1       1.878   5.382  20.211  0.00  0.00    +0.000 N 
ATOM      5  C   UNL     1       3.020   4.816  20.932  0.00  0.00    +0.000 C 
ENDROOT
BRANCH   4   6
ATOM      6  C   UNL     1       1.686   6.736  19.997  0.00  0.00    +0.000 A 
ATOM      7  C   UNL     1       1.103   7.551  20.983  0.00  0.00    +0.000 A 
ATOM      8  C   UNL     1       0.824   8.907  20.762  0.00  0.00    +0.000 A 
ATOM      9  C   UNL     1       1.155   9.508  19.553  0.00  0.00    +0.000 A 
ATOM     10  C   UNL     1       1.775   8.753  18.567  0.00  0.00    +0.000 A 
ATOM     11  C   UNL     1       2.032   7.395  18.795  0.00  0.00    +0.000 A 
ATOM     12  F   UNL     1       2.631   6.718  17.799  0.00  0.00    +0.000 F 
BRANCH   9  13
ATOM     13  O   UNL     1       0.737  10.799  19.383  0.00  0.00    +0.000 OA
BRANCH  13  14
ATOM     14  C   UNL     1       1.724  11.823  19.607  0.00  0.00    +0.000 C 
ATOM     15  C   UNL     1       2.251  12.567  18.411  0.00  0.00    +0.000 C 
ATOM     16  C   UNL     1       1.216  13.207  19.285  0.00  0.00    +0.000 C 
ENDBRANCH  13  14
ENDBRANCH   9  13
ENDBRANCH   4   6
BRANCH   1  17
ATOM     17  O   UNL     1       3.326   2.456  20.170  0.00  0.00    +0.000 OA
BRANCH  17  21
ATOM     18  C   UNL     1       5.269   4.449  17.023  0.00  0.00    +0.000 A 
ATOM     19  C   UNL     1       4.107   3.690  16.823  0.00  0.00    +0.000 A 
ATOM     20  C   UNL     1       3.501   3.012  17.893  0.00  0.00    +0.000 A 
ATOM     21  C   UNL     1       4.051   3.065  19.175  0.00  0.00    +0.000 A 
ATOM     22  C   UNL     1       5.234   3.776  19.369  0.00  0.00    +0.000 A 
ATOM     23  C   UNL     1       5.835   4.461  18.305  0.00  0.00    +0.000 A 
BRANCH  18  24
ATOM     24  C   UNL     1       5.841   5.302  15.900  0.00  0.00    +0.000 C 
ATOM     25  C   UNL     1       5.081   6.619  15.721  0.00  0.00    +0.000 C 
BRANCH  24  29
ATOM     26  C   UNL     1       6.560   3.765  12.511  0.00  0.00    +0.000 C 
ATOM     27  C   UNL     1       6.817   4.628  13.718  0.00  0.00    +0.000 C 
ATOM     28  O   UNL     1       7.814   5.332  13.827  0.00  0.00    +0.000 OA
ATOM     29  N   UNL     1       5.831   4.531  14.667  0.00  0.00    +0.000 N 
ATOM     30  H   UNL     1       5.019   3.964  14.465  0.00  0.00    +0.000 HD
ENDBRANCH  24  29
ENDBRANCH  18  24
ENDBRANCH  17  21
ENDBRANCH   1  17
TORSDOF 7
ENDMDL
MODEL 2
REMARK VINA RESULT:      -7.6      2.797      8.357
REMARK  Name = 
REMARK  9 active torsions:
REMARK  status: ('A' for Active; 'I' for Inactive)
REMARK    1  A    between atoms: C_1  and  C_2
REMARK    2  A    between atoms: N_4  and  C_5
REMARK    3  A    between atoms: C_5  and  C_6
REMARK    4  A    between atoms: C_5  and  C_7
REMARK    5  A    between atoms: C_10  and  O_11
REMARK    6  A    between atoms: O_11  and  C_12
REMARK    7  A    between atoms: N_15  and  C_16
REMARK    8  A    between atoms: C_19  and  O_20
REMARK    9  A    between atoms: O_20  and  C_21
REMARK                            x       y       z     vdW  Elec       q    Type
REMARK                         _______ _______ _______ _____ _____    ______ ____
ROOT
ATOM      1  C   UNL     1       1.789   6.625  19.610  0.00  0.00    +0.000 C 
ATOM      2  C   UNL     1       2.492   5.468  20.322  0.00  0.00    +0.000 C 
ATOM      3  C   UNL     1       3.886   5.392  19.697  0.00  0.00    +0.000 C 
ATOM      4  N   UNL     1       3.709   5.903  18.343  0.00  0.00    +0.000 N 
ATOM      5  C   UNL     1       2.437   6.617  18.211  0.00  0.00    +0.000 C 
ENDROOT
BRANCH   4   6
ATOM      6  C   UNL     1       4.502   5.522  17.275  0.00  0.00    +0.000 A 
ATOM      7  C   UNL     1       4.961   6.465  16.339  0.00  0.00    +0.000 A 
ATOM      8  C   UNL     1       5.697   6.094  15.205  0.00  0.00    +0.000 A 
ATOM      9  C   UNL     1       6.036   4.764  14.987  0.00  0.00    +0.000 A 
ATOM     10  C   UNL     1       5.644   3.803  15.909  0.00  0.00    +0.000 A 
ATOM     11  C   UNL     1       4.893   4.186  17.029  0.00  0.00    +0.000 A 
ATOM     12  F   UNL     1       4.542   3.208  17.882  0.00  0.00    +0.000 F 
BRANCH   9  13
ATOM     13  O   UNL     1       6.649   4.481  13.796  0.00  0.00    +0.000 OA
BRANCH  13  14
ATOM     14  C   UNL     1       6.212   3.286  13.124  0.00  0.00    +0.000 C 
ATOM     15  C   UNL     1       5.183   3.426  12.036  0.00  0.00    +0.000 C 
ATOM     16  C   UNL     1       6.625   3.246  11.673  0.00  0.00    +0.000 C 
ENDBRANCH  13  14
ENDBRANCH   9  13
ENDBRANCH   4   6
BRANCH   1  17
ATOM     17  O   UNL     1       2.005   7.835  20.348  0.00  0.00    +0.000 OA
BRANCH  17  21
ATOM     18  C   UNL     1      -0.465  10.977  19.053  0.00  0.00    +0.000 A 
ATOM     19  C   UNL     1       0.598  10.494  18.277  0.00  0.00    +0.000 A 
ATOM     20  C   UNL     1       1.423   9.462  18.754  0.00  0.00    +0.000 A 
ATOM     21  C   UNL     1       1.212   8.908  20.018  0.00  0.00    +0.000 A 
ATOM     22  C   UNL     1       0.189   9.420  20.815  0.00  0.00    +0.000 A 
ATOM     23  C   UNL     1      -0.641  10.442  20.336  0.00  0.00    +0.000 A 
BRANCH  18  24
ATOM     24  C   UNL     1      -1.447  11.988  18.478  0.00  0.00    +0.000 C 
ATOM     25  C   UNL     1      -2.698  12.146  19.346  0.00  0.00    +0.000 C 
BRANCH  24  29
ATOM     26  C   UNL     1      -2.771  10.246  15.383  0.00  0.00    +0.000 C 
ATOM     27  C   UNL     1      -2.574  10.479  16.857  0.00  0.00    +0.000 C 
ATOM     28  O   UNL     1      -3.060   9.750  17.714  0.00  0.00    +0.000 OA
ATOM     29  N   UNL     1      -1.807  11.585  17.128  0.00  0.00    +0.000 N 
ATOM     30  H   UNL     1      -1.405  12.096  16.354  0.00  0.00    +0.000 HD
ENDBRANCH  24  29
ENDBRANCH  18  24
ENDBRANCH  17  21
ENDBRANCH   1  17
TORSDOF 7
ENDMDL
MODEL 3
REMARK VINA RESULT:      -7.5      2.392      3.135
REMARK  Name = 
REMARK  9 active torsions:
REMARK  status: ('A' for Active; 'I' for Inactive)
REMARK    1  A    between atoms: C_1  and  C_2
REMARK    2  A    between atoms: N_4  and  C_5
REMARK    3  A    between atoms: C_5  and  C_6
REMARK    4  A    between atoms: C_5  and  C_7
REMARK    5  A    between atoms: C_10  and  O_11
REMARK    6  A    between atoms: O_11  and  C_12
REMARK    7  A    between atoms: N_15  and  C_16
REMARK    8  A    between atoms: C_19  and  O_20
REMARK    9  A    between atoms: O_20  and  C_21
REMARK                            x       y       z     vdW  Elec       q    Type
REMARK                         _______ _______ _______ _____ _____    ______ ____
ROOT
ATOM      1  C   UNL     1       2.852   5.527  19.249  0.00  0.00    +0.000 C 
ATOM      2  C   UNL     1       2.486   6.100  17.879  0.00  0.00    +0.000 C 
ATOM      3  C   UNL     1       2.362   7.610  18.088  0.00  0.00    +0.000 C 
ATOM      4  N   UNL     1       1.960   7.755  19.482  0.00  0.00    +0.000 N 
ATOM      5  C   UNL     1       2.185   6.515  20.228  0.00  0.00    +0.000 C 
ENDROOT
BRANCH   4   6
ATOM      6  C   UNL     1       1.216   8.823  19.953  0.00  0.00    +0.000 A 
ATOM      7  C   UNL     1       0.820   8.894  21.300  0.00  0.00    +0.000 A 
ATOM      8  C   UNL     1      -0.002   9.921  21.784  0.00  0.00    +0.000 A 
ATOM      9  C   UNL     1      -0.428  10.941  20.941  0.00  0.00    +0.000 A 
ATOM     10  C   UNL     1      -0.024  10.938  19.613  0.00  0.00    +0.000 A 
ATOM     11  C   UNL     1       0.783   9.895  19.139  0.00  0.00    +0.000 A 
ATOM     12  F   UNL     1       1.137   9.947  17.842  0.00  0.00    +0.000 F 
BRANCH   9  13
ATOM     13  O   UNL     1      -1.322  11.832  21.469  0.00  0.00    +0.000 OA
BRANCH  13  14
ATOM     14  C   UNL     1      -1.405  11.872  22.906  0.00  0.00    +0.000 C 
ATOM     15  C   UNL     1      -1.717  13.192  23.556  0.00  0.00    +0.000 C 
ATOM     16  C   UNL     1      -2.799  12.168  23.403  0.00  0.00    +0.000 C 
ENDBRANCH  13  14
ENDBRANCH   9  13
ENDBRANCH   4   6
BRANCH   1  17
ATOM     17  O   UNL     1       4.280   5.461  19.367  0.00  0.00    +0.000 OA
BRANCH  17  21
ATOM     18  C   UNL     1       6.137   4.483  15.728  0.00  0.00    +0.000 A 
ATOM     19  C   UNL     1       5.169   3.658  16.318  0.00  0.00    +0.000 A 
ATOM     20  C   UNL     1       4.591   4.001  17.551  0.00  0.00    +0.000 A 
ATOM     21  C   UNL     1       4.979   5.161  18.224  0.00  0.00    +0.000 A 
ATOM     22  C   UNL     1       5.979   5.958  17.666  0.00  0.00    +0.000 A 
ATOM     23  C   UNL     1       6.549   5.623  16.432  0.00  0.00    +0.000 A 
BRANCH  18  24
ATOM     24  C   UNL     1       6.655   4.192  14.327  0.00  0.00    +0.000 C 
ATOM     25  C   UNL     1       7.557   5.307  13.793  0.00  0.00    +0.000 C 
BRANCH  24  29
ATOM     26  C   UNL     1       4.323   3.226  11.499  0.00  0.00    +0.000 C 
ATOM     27  C   UNL     1       5.619   3.272  12.264  0.00  0.00    +0.000 C 
ATOM     28  O   UNL     1       6.642   2.728  11.867  0.00  0.00    +0.000 OA
ATOM     29  N   UNL     1       5.523   3.976  13.439  0.00  0.00    +0.000 N 
ATOM     30  H   UNL     1       4.650   4.436  13.658  0.00  0.00    +0.000 HD
ENDBRANCH  24  29
ENDBRANCH  18  24
ENDBRANCH  17  21
ENDBRANCH   1  17
TORSDOF 7
ENDMDL
MODEL 4
REMARK VINA RESULT:      -7.4      2.763      8.654
REMARK  Name = 
REMARK  9 active torsions:
REMARK  status: ('A' for Active; 'I' for Inactive)
REMARK    1  A    between atoms: C_1  and  C_2
REMARK    2  A    between atoms: N_4  and  C_5
REMARK    3  A    between atoms: C_5  and  C_6
REMARK    4  A    between atoms: C_5  and  C_7
REMARK    5  A    between atoms: C_10  and  O_11
REMARK    6  A    between atoms: O_11  and  C_12
REMARK    7  A    between atoms: N_15  and  C_16
REMARK    8  A    between atoms: C_19  and  O_20
REMARK    9  A    between atoms: O_20  and  C_21
REMARK                            x       y       z     vdW  Elec       q    Type
REMARK                         _______ _______ _______ _____ _____    ______ ____
ROOT
ATOM      1  C   UNL     1       1.943   6.368  19.706  0.00  0.00    +0.000 C 
ATOM      2  C   UNL     1       2.758   5.279  20.403  0.00  0.00    +0.000 C 
ATOM      3  C   UNL     1       4.114   5.266  19.693  0.00  0.00    +0.000 C 
ATOM      4  N   UNL     1       3.823   5.723  18.340  0.00  0.00    +0.000 N 
ATOM      5  C   UNL     1       2.504   6.356  18.269  0.00  0.00    +0.000 C 
ENDROOT
BRANCH   4   6
ATOM      6  C   UNL     1       4.572   5.356  17.235  0.00  0.00    +0.000 A 
ATOM      7  C   UNL     1       5.135   6.325  16.387  0.00  0.00    +0.000 A 
ATOM      8  C   UNL     1       5.829   5.982  15.217  0.00  0.00    +0.000 A 
ATOM      9  C   UNL     1       6.016   4.648  14.874  0.00  0.00    +0.000 A 
ATOM     10  C   UNL     1       5.517   3.656  15.706  0.00  0.00    +0.000 A 
ATOM     11  C   UNL     1       4.811   4.014  16.863  0.00  0.00    +0.000 A 
ATOM     12  F   UNL     1       4.349   3.006  17.624  0.00  0.00    +0.000 F 
BRANCH   9  13
ATOM     13  O   UNL     1       6.596   4.410  13.658  0.00  0.00    +0.000 OA
BRANCH  13  14
ATOM     14  C   UNL     1       6.200   3.199  12.989  0.00  0.00    +0.000 C 
ATOM     15  C   UNL     1       5.174   3.302  11.894  0.00  0.00    +0.000 C 
ATOM     16  C   UNL     1       6.623   3.164  11.541  0.00  0.00    +0.000 C 
ENDBRANCH  13  14
ENDBRANCH   9  13
ENDBRANCH   4   6
BRANCH   1  17
ATOM     17  O   UNL     1       2.130   7.612  20.395  0.00  0.00    +0.000 OA
BRANCH  17  21
ATOM     18  C   UNL     1      -0.384  10.889  19.621  0.00  0.00    +0.000 A 
ATOM     19  C   UNL     1      -0.463  10.150  20.810  0.00  0.00    +0.000 A 
ATOM     20  C   UNL     1       0.372   9.042  21.023  0.00  0.00    +0.000 A 
ATOM     21  C   UNL     1       1.288   8.641  20.048  0.00  0.00    +0.000 A 
ATOM     22  C   UNL     1       1.334   9.339  18.842  0.00  0.00    +0.000 A 
ATOM     23  C   UNL     1       0.509  10.451  18.632  0.00  0.00    +0.000 A 
BRANCH  18  24
ATOM     24  C   UNL     1      -1.181  12.174  19.451  0.00  0.00    +0.000 C 
ATOM     25  C   UNL     1      -1.068  13.096  20.667  0.00  0.00    +0.000 C 
BRANCH  24  29
ATOM     26  C   UNL     1      -4.527  11.281  17.911  0.00  0.00    +0.000 C 
ATOM     27  C   UNL     1      -3.046  11.552  17.932  0.00  0.00    +0.000 C 
ATOM     28  O   UNL     1      -2.351  11.511  16.924  0.00  0.00    +0.000 OA
ATOM     29  N   UNL     1      -2.571  11.839  19.188  0.00  0.00    +0.000 N 
ATOM     30  H   UNL     1      -3.230  11.901  19.952  0.00  0.00    +0.000 HD
ENDBRANCH  24  29
ENDBRANCH  18  24
ENDBRANCH  17  21
ENDBRANCH   1  17
TORSDOF 7
ENDMDL
MODEL 5
REMARK VINA RESULT:      -7.4      3.119      9.375
REMARK  Name = 
REMARK  9 active torsions:
REMARK  status: ('A' for Active; 'I' for Inactive)
REMARK    1  A    between atoms: C_1  and  C_2
REMARK    2  A    between atoms: N_4  and  C_5
REMARK    3  A    between atoms: C_5  and  C_6
REMARK    4  A    between atoms: C_5  and  C_7
REMARK    5  A    between atoms: C_10  and  O_11
REMARK    6  A    between atoms: O_11  and  C_12
REMARK    7  A    between atoms: N_15  and  C_16
REMARK    8  A    between atoms: C_19  and  O_20
REMARK    9  A    between atoms: O_20  and  C_21
REMARK                            x       y       z     vdW  Elec       q    Type
REMARK                         _______ _______ _______ _____ _____    ______ ____
ROOT
ATOM      1  C   UNL     1       1.508   6.923  20.140  0.00  0.00    +0.000 C 
ATOM      2  C   UNL     1       1.819   5.492  20.580  0.00  0.00    +0.000 C 
ATOM      3  C   UNL     1       3.216   5.192  20.033  0.00  0.00    +0.000 C 
ATOM      4  N   UNL     1       3.329   6.023  18.841  0.00  0.00    +0.000 N 
ATOM      5  C   UNL     1       2.294   7.060  18.820  0.00  0.00    +0.000 C 
ENDROOT
BRANCH   4   6
ATOM      6  C   UNL     1       4.125   5.697  17.757  0.00  0.00    +0.000 A 
ATOM      7  C   UNL     1       4.899   6.672  17.105  0.00  0.00    +0.000 A 
ATOM      8  C   UNL     1       5.650   6.385  15.956  0.00  0.00    +0.000 A 
ATOM      9  C   UNL     1       5.684   5.095  15.439  0.00  0.00    +0.000 A 
ATOM     10  C   UNL     1       4.972   4.089  16.077  0.00  0.00    +0.000 A 
ATOM     11  C   UNL     1       4.211   4.395  17.214  0.00  0.00    +0.000 A 
ATOM     12  F   UNL     1       3.541   3.377  17.783  0.00  0.00    +0.000 F 
BRANCH   9  13
ATOM     13  O   UNL     1       6.343   4.935  14.251  0.00  0.00    +0.000 OA
BRANCH  13  14
ATOM     14  C   UNL     1       6.163   3.669  13.589  0.00  0.00    +0.000 C 
ATOM     15  C   UNL     1       5.227   3.617  12.414  0.00  0.00    +0.000 C 
ATOM     16  C   UNL     1       6.705   3.664  12.181  0.00  0.00    +0.000 C 
ENDBRANCH  13  14
ENDBRANCH   9  13
ENDBRANCH   4   6
BRANCH   1  17
ATOM     17  O   UNL     1       1.924   7.834  21.166  0.00  0.00    +0.000 OA
BRANCH  17  21
ATOM     18  C   UNL     1      -0.718  11.073  21.589  0.00  0.00    +0.000 A 
ATOM     19  C   UNL     1      -0.123  10.749  20.362  0.00  0.00    +0.000 A 
ATOM     20  C   UNL     1       0.779   9.677  20.263  0.00  0.00    +0.000 A 
ATOM     21  C   UNL     1       1.117   8.923  21.388  0.00  0.00    +0.000 A 
ATOM     22  C   UNL     1       0.569   9.274  22.621  0.00  0.00    +0.000 A 
ATOM     23  C   UNL     1      -0.339  10.335  22.720  0.00  0.00    +0.000 A 
BRANCH  18  24
ATOM     24  C   UNL     1      -1.804  12.135  21.668  0.00  0.00    +0.000 C 
ATOM     25  C   UNL     1      -2.211  12.659  20.289  0.00  0.00    +0.000 C 
BRANCH  24  29
ATOM     26  C   UNL     1      -1.392  14.841  24.290  0.00  0.00    +0.000 C 
ATOM     27  C   UNL     1      -2.054  13.679  23.599  0.00  0.00    +0.000 C 
ATOM     28  O   UNL     1      -3.114  13.197  23.981  0.00  0.00    +0.000 OA
ATOM     29  N   UNL     1      -1.344  13.223  22.516  0.00  0.00    +0.000 N 
ATOM     30  H   UNL     1      -0.505  13.718  22.245  0.00  0.00    +0.000 HD
ENDBRANCH  24  29
ENDBRANCH  18  24
ENDBRANCH  17  21
ENDBRANCH   1  17
TORSDOF 7
ENDMDL
MODEL 6
REMARK VINA RESULT:      -7.4      3.243      9.530
REMARK  Name = 
REMARK  9 active torsions:
REMARK  status: ('A' for Active; 'I' for Inactive)
REMARK    1  A    between atoms: C_1  and  C_2
REMARK    2  A    between atoms: N_4  and  C_5
REMARK    3  A    between atoms: C_5  and  C_6
REMARK    4  A    between atoms: C_5  and  C_7
REMARK    5  A    between atoms: C_10  and  O_11
REMARK    6  A    between atoms: O_11  and  C_12
REMARK    7  A    between atoms: N_15  and  C_16
REMARK    8  A    between atoms: C_19  and  O_20
REMARK    9  A    between atoms: O_20  and  C_21
REMARK                            x       y       z     vdW  Elec       q    Type
REMARK                         _______ _______ _______ _____ _____    ______ ____
ROOT
ATOM      1  C   UNL     1       1.448   7.123  20.133  0.00  0.00    +0.000 C 
ATOM      2  C   UNL     1       1.801   5.719  20.623  0.00  0.00    +0.000 C 
ATOM      3  C   UNL     1       3.203   5.437  20.077  0.00  0.00    +0.000 C 
ATOM      4  N   UNL     1       3.284   6.226  18.854  0.00  0.00    +0.000 N 
ATOM      5  C   UNL     1       2.221   7.232  18.803  0.00  0.00    +0.000 C 
ENDROOT
BRANCH   4   6
ATOM      6  C   UNL     1       4.083   5.881  17.777  0.00  0.00    +0.000 A 
ATOM      7  C   UNL     1       4.886   6.837  17.133  0.00  0.00    +0.000 A 
ATOM      8  C   UNL     1       5.641   6.533  15.992  0.00  0.00    +0.000 A 
ATOM      9  C   UNL     1       5.647   5.243  15.473  0.00  0.00    +0.000 A 
ATOM     10  C   UNL     1       4.905   4.254  16.103  0.00  0.00    +0.000 A 
ATOM     11  C   UNL     1       4.142   4.577  17.234  0.00  0.00    +0.000 A 
ATOM     12  F   UNL     1       3.442   3.576  17.795  0.00  0.00    +0.000 F 
BRANCH   9  13
ATOM     13  O   UNL     1       6.314   5.068  14.291  0.00  0.00    +0.000 OA
BRANCH  13  14
ATOM     14  C   UNL     1       6.232   3.756  13.704  0.00  0.00    +0.000 C 
ATOM     15  C   UNL     1       5.336   3.574  12.509  0.00  0.00    +0.000 C 
ATOM     16  C   UNL     1       6.816   3.701  12.313  0.00  0.00    +0.000 C 
ENDBRANCH  13  14
ENDBRANCH   9  13
ENDBRANCH   4   6
BRANCH   1  17
ATOM     17  O   UNL     1       1.846   8.083  21.121  0.00  0.00    +0.000 OA
BRANCH  17  21
ATOM     18  C   UNL     1      -0.834  11.046  22.422  0.00  0.00    +0.000 A 
ATOM     19  C   UNL     1      -0.531   9.919  23.199  0.00  0.00    +0.000 A 
ATOM     20  C   UNL     1       0.346   8.933  22.720  0.00  0.00    +0.000 A 
ATOM     21  C   UNL     1       0.922   9.044  21.453  0.00  0.00    +0.000 A 
ATOM     22  C   UNL     1       0.584  10.137  20.655  0.00  0.00    +0.000 A 
ATOM     23  C   UNL     1      -0.283  11.127  21.135  0.00  0.00    +0.000 A 
BRANCH  18  24
ATOM     24  C   UNL     1      -1.664  12.184  22.997  0.00  0.00    +0.000 C 
ATOM     25  C   UNL     1      -2.998  12.362  22.268  0.00  0.00    +0.000 C 
BRANCH  24  29
ATOM     26  C   UNL     1      -0.257  15.676  23.445  0.00  0.00    +0.000 C 
ATOM     27  C   UNL     1      -1.182  14.517  23.705  0.00  0.00    +0.000 C 
ATOM     28  O   UNL     1      -2.098  14.571  24.517  0.00  0.00    +0.000 OA
ATOM     29  N   UNL     1      -0.884  13.412  22.948  0.00  0.00    +0.000 N 
ATOM     30  H   UNL     1      -0.142  13.479  22.265  0.00  0.00    +0.000 HD
ENDBRANCH  24  29
ENDBRANCH  18  24
ENDBRANCH  17  21
ENDBRANCH   1  17
TORSDOF 7
ENDMDL
MODEL 7
REMARK VINA RESULT:      -7.4      1.396      1.973
REMARK  Name = 
REMARK  9 active torsions:
REMARK  status: ('A' for Active; 'I' for Inactive)
REMARK    1  A    between atoms: C_1  and  C_2
REMARK    2  A    between atoms: N_4  and  C_5
REMARK    3  A    between atoms: C_5  and  C_6
REMARK    4  A    between atoms: C_5  and  C_7
REMARK    5  A    between atoms: C_10  and  O_11
REMARK    6  A    between atoms: O_11  and  C_12
REMARK    7  A    between atoms: N_15  and  C_16
REMARK    8  A    between atoms: C_19  and  O_20
REMARK    9  A    between atoms: O_20  and  C_21
REMARK                            x       y       z     vdW  Elec       q    Type
REMARK                         _______ _______ _______ _____ _____    ______ ____
ROOT
ATOM      1  C   UNL     1       2.824   3.260  20.809  0.00  0.00    +0.000 C 
ATOM      2  C   UNL     1       1.298   3.231  20.893  0.00  0.00    +0.000 C 
ATOM      3  C   UNL     1       0.821   4.428  20.069  0.00  0.00    +0.000 C 
ATOM      4  N   UNL     1       1.908   5.395  20.165  0.00  0.00    +0.000 N 
ATOM      5  C   UNL     1       3.135   4.763  20.653  0.00  0.00    +0.000 C 
ENDROOT
BRANCH   4   6
ATOM      6  C   UNL     1       1.720   6.763  20.073  0.00  0.00    +0.000 A 
ATOM      7  C   UNL     1       1.152   7.491  21.133  0.00  0.00    +0.000 A 
ATOM      8  C   UNL     1       0.877   8.862  21.035  0.00  0.00    +0.000 A 
ATOM      9  C   UNL     1       1.197   9.565  19.880  0.00  0.00    +0.000 A 
ATOM     10  C   UNL     1       1.802   8.898  18.824  0.00  0.00    +0.000 A 
ATOM     11  C   UNL     1       2.055   7.524  18.930  0.00  0.00    +0.000 A 
ATOM     12  F   UNL     1       2.639   6.935  17.871  0.00  0.00    +0.000 F 
BRANCH   9  13
ATOM     13  O   UNL     1       0.783  10.869  19.829  0.00  0.00    +0.000 OA
BRANCH  13  14
ATOM     14  C   UNL     1       1.404  11.695  18.827  0.00  0.00    +0.000 C 
ATOM     15  C   UNL     1       0.767  13.020  18.513  0.00  0.00    +0.000 C 
ATOM     16  C   UNL     1       1.978  12.970  19.393  0.00  0.00    +0.000 C 
ENDBRANCH  13  14
ENDBRANCH   9  13
ENDBRANCH   4   6
BRANCH   1  17
ATOM     17  O   UNL     1       3.252   2.456  19.701  0.00  0.00    +0.000 OA
BRANCH  17  21
ATOM     18  C   UNL     1       5.507   4.491  16.798  0.00  0.00    +0.000 A 
ATOM     19  C   UNL     1       4.252   3.934  16.514  0.00  0.00    +0.000 A 
ATOM     20  C   UNL     1       3.539   3.234  17.501  0.00  0.00    +0.000 A 
ATOM     21  C   UNL     1       4.072   3.063  18.780  0.00  0.00    +0.000 A 
ATOM     22  C   UNL     1       5.341   3.570  19.052  0.00  0.00    +0.000 A 
ATOM     23  C   UNL     1       6.049   4.278  18.073  0.00  0.00    +0.000 A 
BRANCH  18  24
ATOM     24  C   UNL     1       6.211   5.374  15.778  0.00  0.00    +0.000 C 
ATOM     25  C   UNL     1       6.894   4.563  14.675  0.00  0.00    +0.000 C 
BRANCH  24  29
ATOM     26  C   UNL     1       7.995   8.053  17.781  0.00  0.00    +0.000 C 
ATOM     27  C   UNL     1       6.815   7.319  17.202  0.00  0.00    +0.000 C 
ATOM     28  O   UNL     1       5.657   7.679  17.384  0.00  0.00    +0.000 OA
ATOM     29  N   UNL     1       7.176   6.218  16.467  0.00  0.00    +0.000 N 
ATOM     30  H   UNL     1       8.159   6.030  16.329  0.00  0.00    +0.000 HD
ENDBRANCH  24  29
ENDBRANCH  18  24
ENDBRANCH  17  21
ENDBRANCH   1  17
TORSDOF 7
ENDMDL
MODEL 8
REMARK VINA RESULT:      -7.3      2.743      3.674
REMARK  Name = 
REMARK  9 active torsions:
REMARK  status: ('A' for Active; 'I' for Inactive)
REMARK    1  A    between atoms: C_1  and  C_2
REMARK    2  A    between atoms: N_4  and  C_5
REMARK    3  A    between atoms: C_5  and  C_6
REMARK    4  A    between atoms: C_5  and  C_7
REMARK    5  A    between atoms: C_10  and  O_11
REMARK    6  A    between atoms: O_11  and  C_12
REMARK    7  A    between atoms: N_15  and  C_16
REMARK    8  A    between atoms: C_19  and  O_20
REMARK    9  A    between atoms: O_20  and  C_21
REMARK                            x       y       z     vdW  Elec       q    Type
REMARK                         _______ _______ _______ _____ _____    ______ ____
ROOT
ATOM      1  C   UNL     1       2.542   6.218  18.874  0.00  0.00    +0.000 C 
ATOM      2  C   UNL     1       2.260   7.228  17.761  0.00  0.00    +0.000 C 
ATOM      3  C   UNL     1       2.106   8.578  18.464  0.00  0.00    +0.000 C 
ATOM      4  N   UNL     1       1.613   8.244  19.795  0.00  0.00    +0.000 N 
ATOM      5  C   UNL     1       1.803   6.821  20.086  0.00  0.00    +0.000 C 
ENDROOT
BRANCH   4   6
ATOM      6  C   UNL     1       0.829   9.096  20.552  0.00  0.00    +0.000 A 
ATOM      7  C   UNL     1      -0.195   9.857  19.962  0.00  0.00    +0.000 A 
ATOM      8  C   UNL     1      -0.950  10.787  20.691  0.00  0.00    +0.000 A 
ATOM      9  C   UNL     1      -0.731  10.961  22.052  0.00  0.00    +0.000 A 
ATOM     10  C   UNL     1       0.238  10.198  22.688  0.00  0.00    +0.000 A 
ATOM     11  C   UNL     1       0.997   9.286  21.943  0.00  0.00    +0.000 A 
ATOM     12  F   UNL     1       1.923   8.580  22.616  0.00  0.00    +0.000 F 
BRANCH   9  13
ATOM     13  O   UNL     1      -1.430  11.973  22.654  0.00  0.00    +0.000 OA
BRANCH  13  14
ATOM     14  C   UNL     1      -2.670  12.350  22.027  0.00  0.00    +0.000 C 
ATOM     15  C   UNL     1      -3.823  12.723  22.917  0.00  0.00    +0.000 C 
ATOM     16  C   UNL     1      -3.022  13.800  22.253  0.00  0.00    +0.000 C 
ENDBRANCH  13  14
ENDBRANCH   9  13
ENDBRANCH   4   6
BRANCH   1  17
ATOM     17  O   UNL     1       3.959   6.098  19.055  0.00  0.00    +0.000 OA
BRANCH  17  21
ATOM     18  C   UNL     1       5.879   4.573  15.643  0.00  0.00    +0.000 A 
ATOM     19  C   UNL     1       4.859   3.872  16.303  0.00  0.00    +0.000 A 
ATOM     20  C   UNL     1       4.261   4.398  17.459  0.00  0.00    +0.000 A 
ATOM     21  C   UNL     1       4.679   5.622  17.985  0.00  0.00    +0.000 A 
ATOM     22  C   UNL     1       5.727   6.298  17.362  0.00  0.00    +0.000 A 
ATOM     23  C   UNL     1       6.318   5.780  16.203  0.00  0.00    +0.000 A 
BRANCH  18  24
ATOM     24  C   UNL     1       6.424   4.077  14.311  0.00  0.00    +0.000 C 
ATOM     25  C   UNL     1       7.484   5.014  13.728  0.00  0.00    +0.000 C 
BRANCH  24  29
ATOM     26  C   UNL     1       4.175   3.247  11.375  0.00  0.00    +0.000 C 
ATOM     27  C   UNL     1       5.445   3.249  12.183  0.00  0.00    +0.000 C 
ATOM     28  O   UNL     1       6.475   2.708  11.798  0.00  0.00    +0.000 OA
ATOM     29  N   UNL     1       5.319   3.909  13.380  0.00  0.00    +0.000 N 
ATOM     30  H   UNL     1       4.444   4.370  13.588  0.00  0.00    +0.000 HD
ENDBRANCH  24  29
ENDBRANCH  18  24
ENDBRANCH  17  21
ENDBRANCH   1  17
TORSDOF 7
ENDMDL
MODEL 9
REMARK VINA RESULT:      -7.3      4.481      6.133
REMARK  Name = 
REMARK  9 active torsions:
REMARK  status: ('A' for Active; 'I' for Inactive)
REMARK    1  A    between atoms: C_1  and  C_2
REMARK    2  A    between atoms: N_4  and  C_5
REMARK    3  A    between atoms: C_5  and  C_6
REMARK    4  A    between atoms: C_5  and  C_7
REMARK    5  A    between atoms: C_10  and  O_11
REMARK    6  A    between atoms: O_11  and  C_12
REMARK    7  A    between atoms: N_15  and  C_16
REMARK    8  A    between atoms: C_19  and  O_20
REMARK    9  A    between atoms: O_20  and  C_21
REMARK                            x       y       z     vdW  Elec       q    Type
REMARK                         _______ _______ _______ _____ _____    ______ ____
ROOT
ATOM      1  C   UNL     1       0.770   9.478  19.431  0.00  0.00    +0.000 C 
ATOM      2  C   UNL     1       1.296  10.896  19.211  0.00  0.00    +0.000 C 
ATOM      3  C   UNL     1       0.838  11.695  20.432  0.00  0.00    +0.000 C 
ATOM      4  N   UNL     1      -0.385  11.033  20.866  0.00  0.00    +0.000 N 
ATOM      5  C   UNL     1      -0.512   9.706  20.258  0.00  0.00    +0.000 C 
ENDROOT
BRANCH   4   6
ATOM      6  C   UNL     1      -1.409  11.684  21.533  0.00  0.00    +0.000 A 
ATOM      7  C   UNL     1      -1.571  11.548  22.922  0.00  0.00    +0.000 A 
ATOM      8  C   UNL     1      -2.645  12.130  23.610  0.00  0.00    +0.000 A 
ATOM      9  C   UNL     1      -3.580  12.905  22.932  0.00  0.00    +0.000 A 
ATOM     10  C   UNL     1      -3.434  13.106  21.567  0.00  0.00    +0.000 A 
ATOM     11  C   UNL     1      -2.365  12.503  20.890  0.00  0.00    +0.000 A 
ATOM     12  F   UNL     1      -2.282  12.732  19.568  0.00  0.00    +0.000 F 
BRANCH   9  13
ATOM     13  O   UNL     1      -4.657  13.331  23.661  0.00  0.00    +0.000 OA
BRANCH  13  14
ATOM     14  C   UNL     1      -5.950  13.133  23.060  0.00  0.00    +0.000 C 
ATOM     15  C   UNL     1      -7.068  12.648  23.941  0.00  0.00    +0.000 C 
ATOM     16  C   UNL     1      -6.989  14.098  23.575  0.00  0.00    +0.000 C 
ENDBRANCH  13  14
ENDBRANCH   9  13
ENDBRANCH   4   6
BRANCH   1  17
ATOM     17  O   UNL     1       1.770   8.702  20.105  0.00  0.00    +0.000 OA
BRANCH  17  21
ATOM     18  C   UNL     1       3.278   5.316  18.126  0.00  0.00    +0.000 A 
ATOM     19  C   UNL     1       3.265   6.586  17.532  0.00  0.00    +0.000 A 
ATOM     20  C   UNL     1       2.726   7.691  18.210  0.00  0.00    +0.000 A 
ATOM     21  C   UNL     1       2.175   7.545  19.485  0.00  0.00    +0.000 A 
ATOM     22  C   UNL     1       2.138   6.275  20.060  0.00  0.00    +0.000 A 
ATOM     23  C   UNL     1       2.684   5.175  19.388  0.00  0.00    +0.000 A 
BRANCH  18  24
ATOM     24  C   UNL     1       3.993   4.153  17.456  0.00  0.00    +0.000 C 
ATOM     25  C   UNL     1       3.348   2.804  17.781  0.00  0.00    +0.000 C 
BRANCH  24  29
ATOM     26  C   UNL     1       7.753   4.570  17.697  0.00  0.00    +0.000 C 
ATOM     27  C   UNL     1       6.383   4.727  17.092  0.00  0.00    +0.000 C 
ATOM     28  O   UNL     1       6.191   5.306  16.030  0.00  0.00    +0.000 OA
ATOM     29  N   UNL     1       5.392   4.162  17.855  0.00  0.00    +0.000 N 
ATOM     30  H   UNL     1       5.653   3.659  18.692  0.00  0.00    +0.000 HD
ENDBRANCH  24  29
ENDBRANCH  18  24
ENDBRANCH  17  21
ENDBRANCH   1  17
TORSDOF 7
ENDMDL
