MODEL 1
REMARK VINA RESULT:      -5.1      0.000      0.000
REMARK  Name = 
REMARK  4 active torsions:
REMARK  status: ('A' for Active; 'I' for Inactive)
REMARK    1  A    between atoms: O_1  and  C_2
REMARK    2  A    between atoms: C_5  and  O_6
REMARK    3  A    between atoms: C_7  and  O_8
REMARK    4  A    between atoms: C_9  and  O_10
REMARK                            x       y       z     vdW  Elec       q    Type
REMARK                         _______ _______ _______ _____ _____    ______ ____
ROOT
ATOM      1  C   UNL     1       6.157   4.749  18.549  0.00  0.00    +0.000 C 
ATOM      2  O   UNL     1       5.006   5.534  18.259  0.00  0.00    +0.000 OA
ATOM      3  C   UNL     1       4.381   5.174  17.025  0.00  0.00    +0.000 C 
ATOM      4  C   UNL     1       5.345   5.415  15.868  0.00  0.00    +0.000 C 
ATOM      5  C   UNL     1       6.624   4.594  16.080  0.00  0.00    +0.000 C 
ATOM      6  C   UNL     1       7.243   4.889  17.458  0.00  0.00    +0.000 C 
ENDROOT
BRANCH   1   7
ATOM      7  O   UNL     1       6.669   5.211  19.790  0.00  0.00    +0.000 OA
ATOM      8  H   UNL     1       6.889   4.412  20.295  0.00  0.00    +0.000 HD
ENDBRANCH   1   7
BRANCH   4   9
ATOM      9  O   UNL     1       5.698   6.807  15.798  0.00  0.00    +0.000 OA
ATOM     10  H   UNL     1       4.984   7.312  16.235  0.00  0.00    +0.000 HD
ENDBRANCH   4   9
BRANCH   5  11
ATOM     11  O   UNL     1       7.556   4.875  15.034  0.00  0.00    +0.000 OA
ATOM     12  H   UNL     1       8.252   5.434  15.435  0.00  0.00    +0.000 HD
ENDBRANCH   5  11
BRANCH   6  13
ATOM     13  O   UNL     1       8.354   4.016  17.722  0.00  0.00    +0.000 OA
ATOM     14  H   UNL     1       8.819   3.835  16.889  0.00  0.00    +0.000 HD
ENDBRANCH   6  13
TORSDOF 4
ENDMDL
MODEL 2
REMARK VINA RESULT:      -5.0      1.203      2.885
REMARK  Name = 
REMARK  4 active torsions:
REMARK  status: ('A' for Active; 'I' for Inactive)
REMARK    1  A    between atoms: O_1  and  C_2
REMARK    2  A    between atoms: C_5  and  O_6
REMARK    3  A    between atoms: C_7  and  O_8
REMARK    4  A    between atoms: C_9  and  O_10
REMARK                            x       y       z     vdW  Elec       q    Type
REMARK                         _______ _______ _______ _____ _____    ______ ____
ROOT
ATOM      1  C   UNL     1       6.936   5.722  16.038  0.00  0.00    +0.000 C 
ATOM      2  O   UNL     1       5.643   6.173  15.649  0.00  0.00    +0.000 OA
ATOM      3  C   UNL     1       4.824   6.544  16.761  0.00  0.00    +0.000 C 
ATOM      4  C   UNL     1       4.585   5.331  17.655  0.00  0.00    +0.000 C 
ATOM      5  C   UNL     1       5.929   4.774  18.142  0.00  0.00    +0.000 C 
ATOM      6  C   UNL     1       6.864   4.479  16.955  0.00  0.00    +0.000 C 
ENDROOT
BRANCH   1   7
ATOM      7  O   UNL     1       7.632   5.392  14.845  0.00  0.00    +0.000 OA
ATOM      8  H   UNL     1       8.280   6.103  14.716  0.00  0.00    +0.000 HD
ENDBRANCH   1   7
BRANCH   4   9
ATOM      9  O   UNL     1       3.899   4.302  16.921  0.00  0.00    +0.000 OA
ATOM     10  H   UNL     1       3.679   3.589  17.552  0.00  0.00    +0.000 HD
ENDBRANCH   4   9
BRANCH   5  11
ATOM     11  O   UNL     1       5.709   3.595  18.919  0.00  0.00    +0.000 OA
ATOM     12  H   UNL     1       6.070   2.853  18.393  0.00  0.00    +0.000 HD
ENDBRANCH   5  11
BRANCH   6  13
ATOM     13  O   UNL     1       8.173   4.100  17.411  0.00  0.00    +0.000 OA
ATOM     14  H   UNL     1       8.323   4.479  18.292  0.00  0.00    +0.000 HD
ENDBRANCH   6  13
TORSDOF 4
ENDMDL
MODEL 3
REMARK VINA RESULT:      -4.9      3.959      5.458
REMARK  Name = 
REMARK  4 active torsions:
REMARK  status: ('A' for Active; 'I' for Inactive)
REMARK    1  A    between atoms: O_1  and  C_2
REMARK    2  A    between atoms: C_5  and  O_6
REMARK    3  A    between atoms: C_7  and  O_8
REMARK    4  A    between atoms: C_9  and  O_10
REMARK                            x       y       z     vdW  Elec       q    Type
REMARK                         _______ _______ _______ _____ _____    ______ ____
ROOT
ATOM      1  C   UNL     1       4.178   2.899  19.823  0.00  0.00    +0.000 C 
ATOM      2  O   UNL     1       4.096   3.142  18.423  0.00  0.00    +0.000 OA
ATOM      3  C   UNL     1       3.296   4.282  18.100  0.00  0.00    +0.000 C 
ATOM      4  C   UNL     1       1.861   4.054  18.562  0.00  0.00    +0.000 C 
ATOM      5  C   UNL     1       1.838   3.794  20.074  0.00  0.00    +0.000 C 
ATOM      6  C   UNL     1       2.787   2.641  20.447  0.00  0.00    +0.000 C 
ENDROOT
BRANCH   1   7
ATOM      7  O   UNL     1       4.995   1.750  19.994  0.00  0.00    +0.000 OA
ATOM      8  H   UNL     1       5.899   2.087  20.097  0.00  0.00    +0.000 HD
ENDBRANCH   1   7
BRANCH   4   9
ATOM      9  O   UNL     1       1.299   2.912  17.890  0.00  0.00    +0.000 OA
ATOM     10  H   UNL     1       1.560   2.969  16.949  0.00  0.00    +0.000 HD
ENDBRANCH   4   9
BRANCH   5  11
ATOM     11  O   UNL     1       0.502   3.508  20.494  0.00  0.00    +0.000 OA
ATOM     12  H   UNL     1       0.218   2.727  19.979  0.00  0.00    +0.000 HD
ENDBRANCH   5  11
BRANCH   6  13
ATOM     13  O   UNL     1       2.883   2.493  21.874  0.00  0.00    +0.000 OA
ATOM     14  H   UNL     1       2.138   1.955  22.187  0.00  0.00    +0.000 HD
ENDBRANCH   6  13
TORSDOF 4
ENDMDL
MODEL 4
REMARK VINA RESULT:      -4.9      1.557      2.703
REMARK  Name = 
REMARK  4 active torsions:
REMARK  status: ('A' for Active; 'I' for Inactive)
REMARK    1  A    between atoms: O_1  and  C_2
REMARK    2  A    between atoms: C_5  and  O_6
REMARK    3  A    between atoms: C_7  and  O_8
REMARK    4  A    between atoms: C_9  and  O_10
REMARK                            x       y       z     vdW  Elec       q    Type
REMARK                         _______ _______ _______ _____ _____    ______ ____
ROOT
ATOM      1  C   UNL     1       7.394   5.047  17.993  0.00  0.00    +0.000 C 
ATOM      2  O   UNL     1       7.718   6.133  17.132  0.00  0.00    +0.000 OA
ATOM      3  C   UNL     1       6.864   7.264  17.315  0.00  0.00    +0.000 C 
ATOM      4  C   UNL     1       5.426   6.886  16.975  0.00  0.00    +0.000 C 
ATOM      5  C   UNL     1       4.972   5.723  17.867  0.00  0.00    +0.000 C 
ATOM      6  C   UNL     1       5.951   4.539  17.766  0.00  0.00    +0.000 C 
ENDROOT
BRANCH   1   7
ATOM      7  O   UNL     1       8.314   4.004  17.705  0.00  0.00    +0.000 OA
ATOM      8  H   UNL     1       9.045   4.426  17.226  0.00  0.00    +0.000 HD
ENDBRANCH   1   7
BRANCH   4   9
ATOM      9  O   UNL     1       5.332   6.476  15.600  0.00  0.00    +0.000 OA
ATOM     10  H   UNL     1       4.477   6.802  15.255  0.00  0.00    +0.000 HD
ENDBRANCH   4   9
BRANCH   5  11
ATOM     11  O   UNL     1       3.651   5.321  17.500  0.00  0.00    +0.000 OA
ATOM     12  H   UNL     1       3.423   5.837  16.701  0.00  0.00    +0.000 HD
ENDBRANCH   5  11
BRANCH   6  13
ATOM     13  O   UNL     1       5.614   3.509  18.710  0.00  0.00    +0.000 OA
ATOM     14  H   UNL     1       5.744   3.849  19.610  0.00  0.00    +0.000 HD
ENDBRANCH   6  13
TORSDOF 4
ENDMDL
MODEL 5
REMARK VINA RESULT:      -4.9      1.233      2.115
REMARK  Name = 
REMARK  4 active torsions:
REMARK  status: ('A' for Active; 'I' for Inactive)
REMARK    1  A    between atoms: O_1  and  C_2
REMARK    2  A    between atoms: C_5  and  O_6
REMARK    3  A    between atoms: C_7  and  O_8
REMARK    4  A    between atoms: C_9  and  O_10
REMARK                            x       y       z     vdW  Elec       q    Type
REMARK                         _______ _______ _______ _____ _____    ______ ____
ROOT
ATOM      1  C   UNL     1       4.556   5.197  17.599  0.00  0.00    +0.000 C 
ATOM      2  O   UNL     1       4.677   6.219  16.617  0.00  0.00    +0.000 OA
ATOM      3  C   UNL     1       5.430   5.808  15.473  0.00  0.00    +0.000 C 
ATOM      4  C   UNL     1       6.857   5.467  15.889  0.00  0.00    +0.000 C 
ATOM      5  C   UNL     1       6.837   4.354  16.945  0.00  0.00    +0.000 C 
ATOM      6  C   UNL     1       5.934   4.739  18.131  0.00  0.00    +0.000 C 
ENDROOT
BRANCH   1   7
ATOM      7  O   UNL     1       3.792   5.739  18.666  0.00  0.00    +0.000 OA
ATOM      8  H   UNL     1       3.268   5.000  19.013  0.00  0.00    +0.000 HD
ENDBRANCH   1   7
BRANCH   4   9
ATOM      9  O   UNL     1       7.500   6.624  16.452  0.00  0.00    +0.000 OA
ATOM     10  H   UNL     1       8.325   6.774  15.950  0.00  0.00    +0.000 HD
ENDBRANCH   4   9
BRANCH   5  11
ATOM     11  O   UNL     1       8.169   4.085  17.388  0.00  0.00    +0.000 OA
ATOM     12  H   UNL     1       8.757   4.341  16.650  0.00  0.00    +0.000 HD
ENDBRANCH   5  11
BRANCH   6  13
ATOM     13  O   UNL     1       5.793   3.642  19.049  0.00  0.00    +0.000 OA
ATOM     14  H   UNL     1       6.069   2.823  18.608  0.00  0.00    +0.000 HD
ENDBRANCH   6  13
TORSDOF 4
ENDMDL
MODEL 6
REMARK VINA RESULT:      -4.8      3.097      4.223
REMARK  Name = 
REMARK  4 active torsions:
REMARK  status: ('A' for Active; 'I' for Inactive)
REMARK    1  A    between atoms: O_1  and  C_2
REMARK    2  A    between atoms: C_5  and  O_6
REMARK    3  A    between atoms: C_7  and  O_8
REMARK    4  A    between atoms: C_9  and  O_10
REMARK                            x       y       z     vdW  Elec       q    Type
REMARK                         _______ _______ _______ _____ _____    ______ ____
ROOT
ATOM      1  C   UNL     1       4.854   4.072  18.936  0.00  0.00    +0.000 C 
ATOM      2  O   UNL     1       4.197   4.934  18.013  0.00  0.00    +0.000 OA
ATOM      3  C   UNL     1       2.805   5.096  18.295  0.00  0.00    +0.000 C 
ATOM      4  C   UNL     1       2.094   3.752  18.177  0.00  0.00    +0.000 C 
ATOM      5  C   UNL     1       2.724   2.746  19.151  0.00  0.00    +0.000 C 
ATOM      6  C   UNL     1       4.245   2.650  18.933  0.00  0.00    +0.000 C 
ENDROOT
BRANCH   1   7
ATOM      7  O   UNL     1       6.216   4.005  18.539  0.00  0.00    +0.000 OA
ATOM      8  H   UNL     1       6.716   3.835  19.353  0.00  0.00    +0.000 HD
ENDBRANCH   1   7
BRANCH   4   9
ATOM      9  O   UNL     1       2.221   3.239  16.840  0.00  0.00    +0.000 OA
ATOM     10  H   UNL     1       2.252   4.006  16.234  0.00  0.00    +0.000 HD
ENDBRANCH   4   9
BRANCH   5  11
ATOM     11  O   UNL     1       2.107   1.467  18.989  0.00  0.00    +0.000 OA
ATOM     12  H   UNL     1       1.156   1.600  19.174  0.00  0.00    +0.000 HD
ENDBRANCH   5  11
BRANCH   6  13
ATOM     13  O   UNL     1       4.859   1.826  19.937  0.00  0.00    +0.000 OA
ATOM     14  H   UNL     1       5.534   1.267  19.519  0.00  0.00    +0.000 HD
ENDBRANCH   6  13
TORSDOF 4
ENDMDL
MODEL 7
REMARK VINA RESULT:      -4.8      3.055      4.124
REMARK  Name = 
REMARK  4 active torsions:
REMARK  status: ('A' for Active; 'I' for Inactive)
REMARK    1  A    between atoms: O_1  and  C_2
REMARK    2  A    between atoms: C_5  and  O_6
REMARK    3  A    between atoms: C_7  and  O_8
REMARK    4  A    between atoms: C_9  and  O_10
REMARK                            x       y       z     vdW  Elec       q    Type
REMARK                         _______ _______ _______ _____ _____    ______ ____
ROOT
ATOM      1  C   UNL     1       4.379   2.643  19.693  0.00  0.00    +0.000 C 
ATOM      2  O   UNL     1       5.287   3.704  19.416  0.00  0.00    +0.000 OA
ATOM      3  C   UNL     1       4.629   4.941  19.131  0.00  0.00    +0.000 C 
ATOM      4  C   UNL     1       3.773   4.795  17.877  0.00  0.00    +0.000 C 
ATOM      5  C   UNL     1       2.744   3.675  18.080  0.00  0.00    +0.000 C 
ATOM      6  C   UNL     1       3.433   2.365  18.501  0.00  0.00    +0.000 C 
ENDROOT
BRANCH   1   7
ATOM      7  O   UNL     1       5.163   1.489  19.955  0.00  0.00    +0.000 OA
ATOM      8  H   UNL     1       6.045   1.820  20.186  0.00  0.00    +0.000 HD
ENDBRANCH   1   7
BRANCH   4   9
ATOM      9  O   UNL     1       4.600   4.461  16.749  0.00  0.00    +0.000 OA
ATOM     10  H   UNL     1       4.863   3.524  16.846  0.00  0.00    +0.000 HD
ENDBRANCH   4   9
BRANCH   5  11
ATOM     11  O   UNL     1       1.990   3.489  16.880  0.00  0.00    +0.000 OA
ATOM     12  H   UNL     1       2.419   4.049  16.202  0.00  0.00    +0.000 HD
ENDBRANCH   5  11
BRANCH   6  13
ATOM     13  O   UNL     1       2.465   1.357  18.837  0.00  0.00    +0.000 OA
ATOM     14  H   UNL     1       2.926   0.518  19.000  0.00  0.00    +0.000 HD
ENDBRANCH   6  13
TORSDOF 4
ENDMDL
MODEL 8
REMARK VINA RESULT:      -4.8      4.037      5.270
REMARK  Name = 
REMARK  4 active torsions:
REMARK  status: ('A' for Active; 'I' for Inactive)
REMARK    1  A    between atoms: O_1  and  C_2
REMARK    2  A    between atoms: C_5  and  O_6
REMARK    3  A    between atoms: C_7  and  O_8
REMARK    4  A    between atoms: C_9  and  O_10
REMARK                            x       y       z     vdW  Elec       q    Type
REMARK                         _______ _______ _______ _____ _____    ______ ____
ROOT
ATOM      1  C   UNL     1       1.444   2.807  19.888  0.00  0.00    +0.000 C 
ATOM      2  O   UNL     1       1.430   3.160  18.510  0.00  0.00    +0.000 OA
ATOM      3  C   UNL     1       2.279   2.331  17.712  0.00  0.00    +0.000 C 
ATOM      4  C   UNL     1       3.728   2.491  18.162  0.00  0.00    +0.000 C 
ATOM      5  C   UNL     1       3.854   2.117  19.645  0.00  0.00    +0.000 C 
ATOM      6  C   UNL     1       2.860   2.923  20.501  0.00  0.00    +0.000 C 
ENDROOT
BRANCH   1   7
ATOM      7  O   UNL     1       0.566   3.703  20.552  0.00  0.00    +0.000 OA
ATOM      8  H   UNL     1       0.109   3.171  21.223  0.00  0.00    +0.000 HD
ENDBRANCH   1   7
BRANCH   4   9
ATOM      9  O   UNL     1       4.152   3.854  17.993  0.00  0.00    +0.000 OA
ATOM     10  H   UNL     1       4.883   4.014  18.623  0.00  0.00    +0.000 HD
ENDBRANCH   4   9
BRANCH   5  11
ATOM     11  O   UNL     1       5.196   2.336  20.086  0.00  0.00    +0.000 OA
ATOM     12  H   UNL     1       5.197   3.210  20.524  0.00  0.00    +0.000 HD
ENDBRANCH   5  11
BRANCH   6  13
ATOM     13  O   UNL     1       2.869   2.471  21.865  0.00  0.00    +0.000 OA
ATOM     14  H   UNL     1       2.629   1.531  21.888  0.00  0.00    +0.000 HD
ENDBRANCH   6  13
TORSDOF 4
ENDMDL
MODEL 9
REMARK VINA RESULT:      -4.8      4.693      6.016
REMARK  Name = 
REMARK  4 active torsions:
REMARK  status: ('A' for Active; 'I' for Inactive)
REMARK    1  A    between atoms: O_1  and  C_2
REMARK    2  A    between atoms: C_5  and  O_6
REMARK    3  A    between atoms: C_7  and  O_8
REMARK    4  A    between atoms: C_9  and  O_10
REMARK                            x       y       z     vdW  Elec       q    Type
REMARK                         _______ _______ _______ _____ _____    ______ ____
ROOT
ATOM      1  C   UNL     1       1.240   2.739  18.844  0.00  0.00    +0.000 C 
ATOM      2  O   UNL     1       0.766   3.282  20.071  0.00  0.00    +0.000 OA
ATOM      3  C   UNL     1       1.670   4.228  20.649  0.00  0.00    +0.000 C 
ATOM      4  C   UNL     1       2.990   3.542  20.986  0.00  0.00    +0.000 C 
ATOM      5  C   UNL     1       3.595   2.931  19.715  0.00  0.00    +0.000 C 
ATOM      6  C   UNL     1       2.586   1.998  19.020  0.00  0.00    +0.000 C 
ENDROOT
BRANCH   1   7
ATOM      7  O   UNL     1       0.253   1.827  18.388  0.00  0.00    +0.000 OA
ATOM      8  H   UNL     1       0.192   1.966  17.430  0.00  0.00    +0.000 HD
ENDBRANCH   1   7
BRANCH   4   9
ATOM      9  O   UNL     1       2.773   2.492  21.944  0.00  0.00    +0.000 OA
ATOM     10  H   UNL     1       3.457   2.580  22.636  0.00  0.00    +0.000 HD
ENDBRANCH   4   9
BRANCH   5  11
ATOM     11  O   UNL     1       4.794   2.226  20.043  0.00  0.00    +0.000 OA
ATOM     12  H   UNL     1       4.535   1.290  20.160  0.00  0.00    +0.000 HD
ENDBRANCH   5  11
BRANCH   6  13
ATOM     13  O   UNL     1       3.092   1.542  17.755  0.00  0.00    +0.000 OA
ATOM     14  H   UNL     1       3.620   0.739  17.896  0.00  0.00    +0.000 HD
ENDBRANCH   6  13
TORSDOF 4
ENDMDL
