MODEL 1
REMARK VINA RESULT:      -6.5      0.000      0.000
REMARK  Name = 
REMARK  3 active torsions:
REMARK  status: ('A' for Active; 'I' for Inactive)
REMARK    1  A    between atoms: C_2  and  C_3
REMARK    2  A    between atoms: C_4  and  N_5
REMARK    3  A    between atoms: N_6  and  C_7
REMARK                            x       y       z     vdW  Elec       q    Type
REMARK                         _______ _______ _______ _____ _____    ______ ____
ROOT
ATOM      1  C   UNL     1       2.859   6.052  18.892  0.00  0.00    +0.000 C 
ATOM      2  C   UNL     1       3.687   6.080  17.815  0.00  0.00    +0.000 C 
ATOM      3  N   UNL     1       4.291   4.865  17.400  0.00  0.00    +0.000 N 
ATOM      4  N   UNL     1       3.966   3.632  17.931  0.00  0.00    +0.000 NA
ATOM      5  C   UNL     1       3.193   3.596  18.978  0.00  0.00    +0.000 C 
ATOM      6  C   UNL     1       2.833   2.230  19.526  0.00  0.00    +0.000 C 
ATOM      7  S   UNL     1       2.803   2.229  21.331  0.00  0.00    +0.000 S 
ATOM      8  C   UNL     1       1.565   3.515  21.552  0.00  0.00    +0.000 C 
ATOM      9  C   UNL     1       1.856   4.731  20.730  0.00  0.00    +0.000 C 
ATOM     10  C   UNL     1       2.595   4.821  19.607  0.00  0.00    +0.000 C 
ENDROOT
BRANCH   3  11
ATOM     11  C   UNL     1       5.243   4.796  16.324  0.00  0.00    +0.000 A 
ATOM     12  C   UNL     1       6.568   5.261  16.465  0.00  0.00    +0.000 A 
ATOM     13  C   UNL     1       7.442   5.311  15.377  0.00  0.00    +0.000 A 
ATOM     14  C   UNL     1       7.018   4.850  14.141  0.00  0.00    +0.000 A 
ATOM     15  F   UNL     1       7.847   4.920  13.090  0.00  0.00    +0.000 F 
ATOM     16  C   UNL     1       5.746   4.319  13.979  0.00  0.00    +0.000 A 
ATOM     17  C   UNL     1       4.866   4.286  15.067  0.00  0.00    +0.000 A 
ENDBRANCH   3  11
BRANCH   2  18
ATOM     18  N   UNL     1       3.903   7.277  17.123  0.00  0.00    +0.000 N 
ATOM     19  H   UNL     1       3.723   8.141  17.626  0.00  0.00    +0.000 HD
ATOM     20  H   UNL     1       3.437   7.273  16.217  0.00  0.00    +0.000 HD
ENDBRANCH   2  18
BRANCH   1  22
ATOM     21  N   UNL     1       1.744   8.459  19.728  0.00  0.00    +0.000 NA
ATOM     22  C   UNL     1       2.250   7.367  19.349  0.00  0.00    +0.000 C 
ENDBRANCH   1  22
TORSDOF 3
ENDMDL
MODEL 2
REMARK VINA RESULT:      -6.2      0.260      1.108
REMARK  Name = 
REMARK  3 active torsions:
REMARK  status: ('A' for Active; 'I' for Inactive)
REMARK    1  A    between atoms: C_2  and  C_3
REMARK    2  A    between atoms: C_4  and  N_5
REMARK    3  A    between atoms: N_6  and  C_7
REMARK                            x       y       z     vdW  Elec       q    Type
REMARK                         _______ _______ _______ _____ _____    ______ ____
ROOT
ATOM      1  C   UNL     1       2.803   6.082  19.128  0.00  0.00    +0.000 C 
ATOM      2  C   UNL     1       3.599   6.198  18.033  0.00  0.00    +0.000 C 
ATOM      3  N   UNL     1       4.232   5.030  17.536  0.00  0.00    +0.000 N 
ATOM      4  N   UNL     1       3.963   3.759  18.006  0.00  0.00    +0.000 NA
ATOM      5  C   UNL     1       3.220   3.639  19.069  0.00  0.00    +0.000 C 
ATOM      6  C   UNL     1       2.922   2.234  19.549  0.00  0.00    +0.000 C 
ATOM      7  S   UNL     1       2.941   2.132  21.352  0.00  0.00    +0.000 S 
ATOM      8  C   UNL     1       1.668   3.361  21.675  0.00  0.00    +0.000 C 
ATOM      9  C   UNL     1       1.895   4.629  20.914  0.00  0.00    +0.000 C 
ATOM     10  C   UNL     1       2.600   4.806  19.780  0.00  0.00    +0.000 C 
ENDROOT
BRANCH   3  11
ATOM     11  C   UNL     1       5.156   5.053  16.434  0.00  0.00    +0.000 A 
ATOM     12  C   UNL     1       4.817   4.547  15.161  0.00  0.00    +0.000 A 
ATOM     13  C   UNL     1       5.764   4.453  14.138  0.00  0.00    +0.000 A 
ATOM     14  C   UNL     1       7.054   4.910  14.360  0.00  0.00    +0.000 A 
ATOM     15  F   UNL     1       7.970   4.797  13.389  0.00  0.00    +0.000 F 
ATOM     16  C   UNL     1       7.406   5.479  15.576  0.00  0.00    +0.000 A 
ATOM     17  C   UNL     1       6.460   5.557  16.604  0.00  0.00    +0.000 A 
ENDBRANCH   3  11
BRANCH   2  18
ATOM     18  N   UNL     1       3.757   7.438  17.403  0.00  0.00    +0.000 N 
ATOM     19  H   UNL     1       3.556   7.480  16.408  0.00  0.00    +0.000 HD
ATOM     20  H   UNL     1       4.665   7.850  17.614  0.00  0.00    +0.000 HD
ENDBRANCH   2  18
BRANCH   1  22
ATOM     21  N   UNL     1       1.632   8.400  20.124  0.00  0.00    +0.000 NA
ATOM     22  C   UNL     1       2.163   7.349  19.672  0.00  0.00    +0.000 C 
ENDBRANCH   1  22
TORSDOF 3
ENDMDL
MODEL 3
REMARK VINA RESULT:      -6.2      3.795      6.582
REMARK  Name = 
REMARK  3 active torsions:
REMARK  status: ('A' for Active; 'I' for Inactive)
REMARK    1  A    between atoms: C_2  and  C_3
REMARK    2  A    between atoms: C_4  and  N_5
REMARK    3  A    between atoms: N_6  and  C_7
REMARK                            x       y       z     vdW  Elec       q    Type
REMARK                         _______ _______ _______ _____ _____    ______ ____
ROOT
ATOM      1  C   UNL     1       2.977   4.312  18.379  0.00  0.00    +0.000 C 
ATOM      2  C   UNL     1       2.281   5.291  19.015  0.00  0.00    +0.000 C 
ATOM      3  N   UNL     1       2.631   6.641  18.754  0.00  0.00    +0.000 N 
ATOM      4  N   UNL     1       3.531   7.020  17.777  0.00  0.00    +0.000 NA
ATOM      5  C   UNL     1       4.220   6.090  17.180  0.00  0.00    +0.000 C 
ATOM      6  C   UNL     1       5.182   6.532  16.096  0.00  0.00    +0.000 C 
ATOM      7  S   UNL     1       6.714   5.577  16.144  0.00  0.00    +0.000 S 
ATOM      8  C   UNL     1       5.987   3.945  15.933  0.00  0.00    +0.000 C 
ATOM      9  C   UNL     1       4.836   3.711  16.860  0.00  0.00    +0.000 C 
ATOM     10  C   UNL     1       4.050   4.626  17.460  0.00  0.00    +0.000 C 
ENDROOT
BRANCH   3  11
ATOM     11  C   UNL     1       2.015   7.751  19.432  0.00  0.00    +0.000 A 
ATOM     12  C   UNL     1       1.756   7.731  20.818  0.00  0.00    +0.000 A 
ATOM     13  C   UNL     1       1.039   8.757  21.440  0.00  0.00    +0.000 A 
ATOM     14  C   UNL     1       0.613   9.841  20.690  0.00  0.00    +0.000 A 
ATOM     15  F   UNL     1      -0.097  10.814  21.279  0.00  0.00    +0.000 F 
ATOM     16  C   UNL     1       0.910   9.930  19.337  0.00  0.00    +0.000 A 
ATOM     17  C   UNL     1       1.614   8.893  18.714  0.00  0.00    +0.000 A 
ENDBRANCH   3  11
BRANCH   2  18
ATOM     18  N   UNL     1       1.229   4.963  19.877  0.00  0.00    +0.000 N 
ATOM     19  H   UNL     1       1.468   4.471  20.734  0.00  0.00    +0.000 HD
ATOM     20  H   UNL     1       0.473   4.493  19.381  0.00  0.00    +0.000 HD
ENDBRANCH   2  18
BRANCH   1  22
ATOM     21  N   UNL     1       2.318   1.673  18.962  0.00  0.00    +0.000 NA
ATOM     22  C   UNL     1       2.617   2.870  18.698  0.00  0.00    +0.000 C 
ENDBRANCH   1  22
TORSDOF 3
ENDMDL
MODEL 4
REMARK VINA RESULT:      -6.2      3.871      6.569
REMARK  Name = 
REMARK  3 active torsions:
REMARK  status: ('A' for Active; 'I' for Inactive)
REMARK    1  A    between atoms: C_2  and  C_3
REMARK    2  A    between atoms: C_4  and  N_5
REMARK    3  A    between atoms: N_6  and  C_7
REMARK                            x       y       z     vdW  Elec       q    Type
REMARK                         _______ _______ _______ _____ _____    ______ ____
ROOT
ATOM      1  C   UNL     1       3.487   4.922  19.315  0.00  0.00    +0.000 C 
ATOM      2  C   UNL     1       2.559   5.877  19.587  0.00  0.00    +0.000 C 
ATOM      3  N   UNL     1       2.661   7.124  18.918  0.00  0.00    +0.000 N 
ATOM      4  N   UNL     1       3.556   7.368  17.894  0.00  0.00    +0.000 NA
ATOM      5  C   UNL     1       4.465   6.470  17.642  0.00  0.00    +0.000 C 
ATOM      6  C   UNL     1       5.418   6.753  16.499  0.00  0.00    +0.000 C 
ATOM      7  S   UNL     1       7.095   6.209  16.888  0.00  0.00    +0.000 S 
ATOM      8  C   UNL     1       6.722   4.476  17.190  0.00  0.00    +0.000 C 
ATOM      9  C   UNL     1       5.559   4.297  18.114  0.00  0.00    +0.000 C 
ATOM     10  C   UNL     1       4.558   5.161  18.370  0.00  0.00    +0.000 C 
ENDROOT
BRANCH   3  11
ATOM     11  C   UNL     1       1.782   8.229  19.190  0.00  0.00    +0.000 A 
ATOM     12  C   UNL     1       1.345   8.535  20.497  0.00  0.00    +0.000 A 
ATOM     13  C   UNL     1       0.389   9.525  20.732  0.00  0.00    +0.000 A 
ATOM     14  C   UNL     1      -0.109  10.258  19.666  0.00  0.00    +0.000 A 
ATOM     15  F   UNL     1      -1.046  11.192  19.886  0.00  0.00    +0.000 F 
ATOM     16  C   UNL     1       0.349  10.035  18.375  0.00  0.00    +0.000 A 
ATOM     17  C   UNL     1       1.294   9.030  18.141  0.00  0.00    +0.000 A 
ENDBRANCH   3  11
BRANCH   2  18
ATOM     18  N   UNL     1       1.516   5.612  20.482  0.00  0.00    +0.000 N 
ATOM     19  H   UNL     1       1.058   4.708  20.405  0.00  0.00    +0.000 HD
ATOM     20  H   UNL     1       0.836   6.371  20.496  0.00  0.00    +0.000 HD
ENDBRANCH   2  18
BRANCH   1  22
ATOM     21  N   UNL     1       3.304   2.513  20.692  0.00  0.00    +0.000 NA
ATOM     22  C   UNL     1       3.387   3.606  20.068  0.00  0.00    +0.000 C 
ENDBRANCH   1  22
TORSDOF 3
ENDMDL
MODEL 5
REMARK VINA RESULT:      -6.1      3.791      6.622
REMARK  Name = 
REMARK  3 active torsions:
REMARK  status: ('A' for Active; 'I' for Inactive)
REMARK    1  A    between atoms: C_2  and  C_3
REMARK    2  A    between atoms: C_4  and  N_5
REMARK    3  A    between atoms: N_6  and  C_7
REMARK                            x       y       z     vdW  Elec       q    Type
REMARK                         _______ _______ _______ _____ _____    ______ ____
ROOT
ATOM      1  C   UNL     1       3.014   4.336  18.425  0.00  0.00    +0.000 C 
ATOM      2  C   UNL     1       2.277   5.293  19.046  0.00  0.00    +0.000 C 
ATOM      3  N   UNL     1       2.593   6.653  18.796  0.00  0.00    +0.000 N 
ATOM      4  N   UNL     1       3.505   7.061  17.841  0.00  0.00    +0.000 NA
ATOM      5  C   UNL     1       4.233   6.152  17.257  0.00  0.00    +0.000 C 
ATOM      6  C   UNL     1       5.207   6.623  16.197  0.00  0.00    +0.000 C 
ATOM      7  S   UNL     1       6.764   5.712  16.278  0.00  0.00    +0.000 S 
ATOM      8  C   UNL     1       6.088   4.061  16.048  0.00  0.00    +0.000 C 
ATOM      9  C   UNL     1       4.924   3.792  16.948  0.00  0.00    +0.000 C 
ATOM     10  C   UNL     1       4.099   4.683  17.531  0.00  0.00    +0.000 C 
ENDROOT
BRANCH   3  11
ATOM     11  C   UNL     1       1.930   7.743  19.461  0.00  0.00    +0.000 A 
ATOM     12  C   UNL     1       1.514   8.900  18.769  0.00  0.00    +0.000 A 
ATOM     13  C   UNL     1       0.993  10.006  19.446  0.00  0.00    +0.000 A 
ATOM     14  C   UNL     1       0.835   9.950  20.822  0.00  0.00    +0.000 A 
ATOM     15  F   UNL     1       0.359  11.019  21.476  0.00  0.00    +0.000 F 
ATOM     16  C   UNL     1       1.167   8.802  21.528  0.00  0.00    +0.000 A 
ATOM     17  C   UNL     1       1.705   7.703  20.850  0.00  0.00    +0.000 A 
ENDBRANCH   3  11
BRANCH   2  18
ATOM     18  N   UNL     1       1.215   4.934  19.883  0.00  0.00    +0.000 N 
ATOM     19  H   UNL     1       0.277   5.164  19.566  0.00  0.00    +0.000 HD
ATOM     20  H   UNL     1       1.369   5.252  20.840  0.00  0.00    +0.000 HD
ENDBRANCH   2  18
BRANCH   1  22
ATOM     21  N   UNL     1       2.418   1.679  18.988  0.00  0.00    +0.000 NA
ATOM     22  C   UNL     1       2.688   2.884  18.733  0.00  0.00    +0.000 C 
ENDBRANCH   1  22
TORSDOF 3
ENDMDL
MODEL 6
REMARK VINA RESULT:      -6.1      2.430      3.203
REMARK  Name = 
REMARK  3 active torsions:
REMARK  status: ('A' for Active; 'I' for Inactive)
REMARK    1  A    between atoms: C_2  and  C_3
REMARK    2  A    between atoms: C_4  and  N_5
REMARK    3  A    between atoms: N_6  and  C_7
REMARK                            x       y       z     vdW  Elec       q    Type
REMARK                         _______ _______ _______ _____ _____    ______ ____
ROOT
ATOM      1  C   UNL     1       5.968   4.660  18.304  0.00  0.00    +0.000 C 
ATOM      2  C   UNL     1       6.447   4.774  17.038  0.00  0.00    +0.000 C 
ATOM      3  N   UNL     1       5.624   4.343  15.966  0.00  0.00    +0.000 N 
ATOM      4  N   UNL     1       4.306   3.959  16.124  0.00  0.00    +0.000 NA
ATOM      5  C   UNL     1       3.845   3.824  17.334  0.00  0.00    +0.000 C 
ATOM      6  C   UNL     1       2.390   3.424  17.479  0.00  0.00    +0.000 C 
ATOM      7  S   UNL     1       2.156   2.262  18.841  0.00  0.00    +0.000 S 
ATOM      8  C   UNL     1       2.823   3.295  20.155  0.00  0.00    +0.000 C 
ATOM      9  C   UNL     1       4.147   3.891  19.793  0.00  0.00    +0.000 C 
ATOM     10  C   UNL     1       4.653   4.112  18.565  0.00  0.00    +0.000 C 
ENDROOT
BRANCH   3  11
ATOM     11  C   UNL     1       6.062   4.345  14.596  0.00  0.00    +0.000 A 
ATOM     12  C   UNL     1       5.437   3.555  13.608  0.00  0.00    +0.000 A 
ATOM     13  C   UNL     1       5.954   3.463  12.314  0.00  0.00    +0.000 A 
ATOM     14  C   UNL     1       7.077   4.200  11.975  0.00  0.00    +0.000 A 
ATOM     15  F   UNL     1       7.589   4.095  10.741  0.00  0.00    +0.000 F 
ATOM     16  C   UNL     1       7.678   5.044  12.899  0.00  0.00    +0.000 A 
ATOM     17  C   UNL     1       7.168   5.121  14.200  0.00  0.00    +0.000 A 
ENDBRANCH   3  11
BRANCH   2  18
ATOM     18  N   UNL     1       7.709   5.334  16.809  0.00  0.00    +0.000 N 
ATOM     19  H   UNL     1       7.751   6.340  16.668  0.00  0.00    +0.000 HD
ATOM     20  H   UNL     1       8.209   4.838  16.072  0.00  0.00    +0.000 HD
ENDBRANCH   2  18
BRANCH   1  22
ATOM     21  N   UNL     1       7.630   5.447  20.390  0.00  0.00    +0.000 NA
ATOM     22  C   UNL     1       6.876   5.090  19.444  0.00  0.00    +0.000 C 
ENDBRANCH   1  22
TORSDOF 3
ENDMDL
MODEL 7
REMARK VINA RESULT:      -6.1      2.497      3.081
REMARK  Name = 
REMARK  3 active torsions:
REMARK  status: ('A' for Active; 'I' for Inactive)
REMARK    1  A    between atoms: C_2  and  C_3
REMARK    2  A    between atoms: C_4  and  N_5
REMARK    3  A    between atoms: N_6  and  C_7
REMARK                            x       y       z     vdW  Elec       q    Type
REMARK                         _______ _______ _______ _____ _____    ______ ____
ROOT
ATOM      1  C   UNL     1       6.023   4.647  18.289  0.00  0.00    +0.000 C 
ATOM      2  C   UNL     1       6.549   4.763  17.042  0.00  0.00    +0.000 C 
ATOM      3  N   UNL     1       5.780   4.304  15.942  0.00  0.00    +0.000 N 
ATOM      4  N   UNL     1       4.466   3.889  16.051  0.00  0.00    +0.000 NA
ATOM      5  C   UNL     1       3.961   3.751  17.243  0.00  0.00    +0.000 C 
ATOM      6  C   UNL     1       2.512   3.317  17.332  0.00  0.00    +0.000 C 
ATOM      7  S   UNL     1       2.252   2.159  18.694  0.00  0.00    +0.000 S 
ATOM      8  C   UNL     1       2.840   3.217  20.024  0.00  0.00    +0.000 C 
ATOM      9  C   UNL     1       4.163   3.843  19.711  0.00  0.00    +0.000 C 
ATOM     10  C   UNL     1       4.712   4.068  18.502  0.00  0.00    +0.000 C 
ENDROOT
BRANCH   3  11
ATOM     11  C   UNL     1       6.273   4.307  14.590  0.00  0.00    +0.000 A 
ATOM     12  C   UNL     1       7.362   5.110  14.192  0.00  0.00    +0.000 A 
ATOM     13  C   UNL     1       7.747   5.204  12.852  0.00  0.00    +0.000 A 
ATOM     14  C   UNL     1       7.075   4.458  11.897  0.00  0.00    +0.000 A 
ATOM     15  F   UNL     1       7.425   4.566  10.608  0.00  0.00    +0.000 F 
ATOM     16  C   UNL     1       6.044   3.602  12.260  0.00  0.00    +0.000 A 
ATOM     17  C   UNL     1       5.651   3.523  13.601  0.00  0.00    +0.000 A 
ENDBRANCH   3  11
BRANCH   2  18
ATOM     18  N   UNL     1       7.805   5.352  16.859  0.00  0.00    +0.000 N 
ATOM     19  H   UNL     1       8.043   5.652  15.917  0.00  0.00    +0.000 HD
ATOM     20  H   UNL     1       8.547   4.782  17.262  0.00  0.00    +0.000 HD
ENDBRANCH   2  18
BRANCH   1  22
ATOM     21  N   UNL     1       7.581   5.489  20.433  0.00  0.00    +0.000 NA
ATOM     22  C   UNL     1       6.874   5.107  19.461  0.00  0.00    +0.000 C 
ENDBRANCH   1  22
TORSDOF 3
ENDMDL
MODEL 8
REMARK VINA RESULT:      -6.0      3.851      6.594
REMARK  Name = 
REMARK  3 active torsions:
REMARK  status: ('A' for Active; 'I' for Inactive)
REMARK    1  A    between atoms: C_2  and  C_3
REMARK    2  A    between atoms: C_4  and  N_5
REMARK    3  A    between atoms: N_6  and  C_7
REMARK                            x       y       z     vdW  Elec       q    Type
REMARK                         _______ _______ _______ _____ _____    ______ ____
ROOT
ATOM      1  C   UNL     1       3.511   4.889  19.305  0.00  0.00    +0.000 C 
ATOM      2  C   UNL     1       2.585   5.842  19.588  0.00  0.00    +0.000 C 
ATOM      3  N   UNL     1       2.675   7.088  18.917  0.00  0.00    +0.000 N 
ATOM      4  N   UNL     1       3.556   7.334  17.881  0.00  0.00    +0.000 NA
ATOM      5  C   UNL     1       4.463   6.437  17.618  0.00  0.00    +0.000 C 
ATOM      6  C   UNL     1       5.401   6.721  16.462  0.00  0.00    +0.000 C 
ATOM      7  S   UNL     1       7.084   6.182  16.829  0.00  0.00    +0.000 S 
ATOM      8  C   UNL     1       6.719   4.448  17.138  0.00  0.00    +0.000 C 
ATOM      9  C   UNL     1       5.569   4.268  18.077  0.00  0.00    +0.000 C 
ATOM     10  C   UNL     1       4.570   5.130  18.346  0.00  0.00    +0.000 C 
ENDROOT
BRANCH   3  11
ATOM     11  C   UNL     1       1.796   8.192  19.199  0.00  0.00    +0.000 A 
ATOM     12  C   UNL     1       1.312   9.042  18.183  0.00  0.00    +0.000 A 
ATOM     13  C   UNL     1       0.568  10.186  18.483  0.00  0.00    +0.000 A 
ATOM     14  C   UNL     1       0.258  10.469  19.803  0.00  0.00    +0.000 A 
ATOM     15  F   UNL     1      -0.434  11.580  20.096  0.00  0.00    +0.000 F 
ATOM     16  C   UNL     1       0.656   9.618  20.825  0.00  0.00    +0.000 A 
ATOM     17  C   UNL     1       1.415   8.482  20.522  0.00  0.00    +0.000 A 
ENDBRANCH   3  11
BRANCH   2  18
ATOM     18  N   UNL     1       1.554   5.575  20.496  0.00  0.00    +0.000 N 
ATOM     19  H   UNL     1       0.792   6.246  20.542  0.00  0.00    +0.000 HD
ATOM     20  H   UNL     1       1.920   5.369  21.425  0.00  0.00    +0.000 HD
ENDBRANCH   2  18
BRANCH   1  22
ATOM     21  N   UNL     1       3.353   2.481  20.687  0.00  0.00    +0.000 NA
ATOM     22  C   UNL     1       3.425   3.573  20.060  0.00  0.00    +0.000 C 
ENDBRANCH   1  22
TORSDOF 3
ENDMDL
MODEL 9
REMARK VINA RESULT:      -6.0      2.262      3.440
REMARK  Name = 
REMARK  3 active torsions:
REMARK  status: ('A' for Active; 'I' for Inactive)
REMARK    1  A    between atoms: C_2  and  C_3
REMARK    2  A    between atoms: C_4  and  N_5
REMARK    3  A    between atoms: N_6  and  C_7
REMARK                            x       y       z     vdW  Elec       q    Type
REMARK                         _______ _______ _______ _____ _____    ______ ____
ROOT
ATOM      1  C   UNL     1       3.636   4.687  18.639  0.00  0.00    +0.000 C 
ATOM      2  C   UNL     1       4.395   4.241  17.604  0.00  0.00    +0.000 C 
ATOM      3  N   UNL     1       4.736   5.158  16.577  0.00  0.00    +0.000 N 
ATOM      4  N   UNL     1       4.473   6.513  16.646  0.00  0.00    +0.000 NA
ATOM      5  C   UNL     1       3.726   6.946  17.622  0.00  0.00    +0.000 C 
ATOM      6  C   UNL     1       3.473   8.439  17.687  0.00  0.00    +0.000 C 
ATOM      7  S   UNL     1       1.777   8.800  18.191  0.00  0.00    +0.000 S 
ATOM      8  C   UNL     1       1.807   7.936  19.769  0.00  0.00    +0.000 C 
ATOM      9  C   UNL     1       2.357   6.551  19.649  0.00  0.00    +0.000 C 
ATOM     10  C   UNL     1       3.180   6.060  18.702  0.00  0.00    +0.000 C 
ENDROOT
BRANCH   3  11
ATOM     11  C   UNL     1       5.466   4.774  15.399  0.00  0.00    +0.000 A 
ATOM     12  C   UNL     1       6.817   5.131  15.205  0.00  0.00    +0.000 A 
ATOM     13  C   UNL     1       7.476   4.867  14.002  0.00  0.00    +0.000 A 
ATOM     14  C   UNL     1       6.804   4.197  12.991  0.00  0.00    +0.000 A 
ATOM     15  F   UNL     1       7.425   3.964  11.826  0.00  0.00    +0.000 F 
ATOM     16  C   UNL     1       5.497   3.766  13.171  0.00  0.00    +0.000 A 
ATOM     17  C   UNL     1       4.835   4.047  14.372  0.00  0.00    +0.000 A 
ENDBRANCH   3  11
BRANCH   2  18
ATOM     18  N   UNL     1       4.848   2.917  17.580  0.00  0.00    +0.000 N 
ATOM     19  H   UNL     1       4.157   2.195  17.397  0.00  0.00    +0.000 HD
ATOM     20  H   UNL     1       5.401   2.698  18.408  0.00  0.00    +0.000 HD
ENDBRANCH   2  18
BRANCH   1  22
ATOM     21  N   UNL     1       2.921   2.851  20.602  0.00  0.00    +0.000 NA
ATOM     22  C   UNL     1       3.245   3.683  19.712  0.00  0.00    +0.000 C 
ENDBRANCH   1  22
TORSDOF 3
ENDMDL
