MODEL 1
REMARK VINA RESULT:      -6.6      0.000      0.000
REMARK  Name = 
REMARK  3 active torsions:
REMARK  status: ('A' for Active; 'I' for Inactive)
REMARK    1  A    between atoms: C_6  and  C_7
REMARK    2  A    between atoms: C_7  and  S_8
REMARK    3  A    between atoms: S_8  and  C_9
REMARK                            x       y       z     vdW  Elec       q    Type
REMARK                         _______ _______ _______ _____ _____    ______ ____
ROOT
ATOM      1  C   UNL     1       6.991   4.653  15.337  0.00  0.00    +0.000 C 
ENDROOT
BRANCH   1   7
ATOM      2 CL   UNL     1       7.849   9.049  17.618  0.00  0.00    +0.000 Cl
ATOM      3  C   UNL     1       7.760   7.341  17.741  0.00  0.00    +0.000 A 
ATOM      4  C   UNL     1       8.013   6.705  18.943  0.00  0.00    +0.000 A 
ATOM      5  C   UNL     1       7.932   5.318  18.967  0.00  0.00    +0.000 A 
ATOM      6  C   UNL     1       7.604   4.633  17.798  0.00  0.00    +0.000 A 
ATOM      7  C   UNL     1       7.354   5.355  16.630  0.00  0.00    +0.000 A 
ATOM      8  N   UNL     1       7.439   6.709  16.593  0.00  0.00    +0.000 NA
ENDBRANCH   1   7
BRANCH   1   9
ATOM      9  S   UNL     1       5.196   4.737  14.990  0.00  0.00    +0.000 S 
BRANCH   9  10
ATOM     10  C   UNL     1       4.459   4.623  16.614  0.00  0.00    +0.000 A 
ATOM     11  C   UNL     1       4.095   5.827  17.237  0.00  0.00    +0.000 A 
ATOM     12  C   UNL     1       3.446   5.829  18.476  0.00  0.00    +0.000 A 
ATOM     13  C   UNL     1       3.149   4.622  19.098  0.00  0.00    +0.000 A 
ATOM     14 BR   UNL     1       2.245   4.618  20.759  0.00  0.00    +0.000 Br
ATOM     15  C   UNL     1       3.499   3.416  18.495  0.00  0.00    +0.000 A 
ATOM     16  C   UNL     1       4.150   3.417  17.254  0.00  0.00    +0.000 A 
ENDBRANCH   9  10
ENDBRANCH   1   9
TORSDOF 3
ENDMDL
MODEL 2
REMARK VINA RESULT:      -6.5      1.159      1.710
REMARK  Name = 
REMARK  3 active torsions:
REMARK  status: ('A' for Active; 'I' for Inactive)
REMARK    1  A    between atoms: C_6  and  C_7
REMARK    2  A    between atoms: C_7  and  S_8
REMARK    3  A    between atoms: S_8  and  C_9
REMARK                            x       y       z     vdW  Elec       q    Type
REMARK                         _______ _______ _______ _____ _____    ______ ____
ROOT
ATOM      1  C   UNL     1       5.405   5.888  15.875  0.00  0.00    +0.000 C 
ENDROOT
BRANCH   1   7
ATOM      2 CL   UNL     1       8.305   9.462  17.897  0.00  0.00    +0.000 Cl
ATOM      3  C   UNL     1       7.783   7.828  17.919  0.00  0.00    +0.000 A 
ATOM      4  C   UNL     1       8.288   6.938  18.850  0.00  0.00    +0.000 A 
ATOM      5  C   UNL     1       7.827   5.628  18.802  0.00  0.00    +0.000 A 
ATOM      6  C   UNL     1       6.890   5.267  17.836  0.00  0.00    +0.000 A 
ATOM      7  C   UNL     1       6.426   6.234  16.940  0.00  0.00    +0.000 A 
ATOM      8  N   UNL     1       6.875   7.514  16.971  0.00  0.00    +0.000 NA
ENDBRANCH   1   7
BRANCH   1   9
ATOM      9  S   UNL     1       5.055   4.093  15.816  0.00  0.00    +0.000 S 
BRANCH   9  10
ATOM     10  C   UNL     1       3.908   3.855  17.165  0.00  0.00    +0.000 A 
ATOM     11  C   UNL     1       3.953   2.621  17.832  0.00  0.00    +0.000 A 
ATOM     12  C   UNL     1       3.144   2.374  18.946  0.00  0.00    +0.000 A 
ATOM     13  C   UNL     1       2.285   3.366  19.405  0.00  0.00    +0.000 A 
ATOM     14 BR   UNL     1       1.210   3.048  20.927  0.00  0.00    +0.000 Br
ATOM     15  C   UNL     1       2.227   4.599  18.758  0.00  0.00    +0.000 A 
ATOM     16  C   UNL     1       3.039   4.843  17.642  0.00  0.00    +0.000 A 
ENDBRANCH   9  10
ENDBRANCH   1   9
TORSDOF 3
ENDMDL
MODEL 3
REMARK VINA RESULT:      -6.4      2.404      3.449
REMARK  Name = 
REMARK  3 active torsions:
REMARK  status: ('A' for Active; 'I' for Inactive)
REMARK    1  A    between atoms: C_6  and  C_7
REMARK    2  A    between atoms: C_7  and  S_8
REMARK    3  A    between atoms: S_8  and  C_9
REMARK                            x       y       z     vdW  Elec       q    Type
REMARK                         _______ _______ _______ _____ _____    ______ ____
ROOT
ATOM      1  C   UNL     1       7.201   4.814  17.382  0.00  0.00    +0.000 C 
ENDROOT
BRANCH   1   7
ATOM      2 CL   UNL     1       8.438   5.846  12.621  0.00  0.00    +0.000 Cl
ATOM      3  C   UNL     1       7.407   5.007  13.706  0.00  0.00    +0.000 A 
ATOM      4  C   UNL     1       6.390   4.199  13.232  0.00  0.00    +0.000 A 
ATOM      5  C   UNL     1       5.588   3.559  14.169  0.00  0.00    +0.000 A 
ATOM      6  C   UNL     1       5.836   3.751  15.527  0.00  0.00    +0.000 A 
ATOM      7  C   UNL     1       6.892   4.577  15.918  0.00  0.00    +0.000 A 
ATOM      8  N   UNL     1       7.676   5.215  15.012  0.00  0.00    +0.000 NA
ENDBRANCH   1   7
BRANCH   1   9
ATOM      9  S   UNL     1       6.108   6.084  18.118  0.00  0.00    +0.000 S 
BRANCH   9  10
ATOM     10  C   UNL     1       4.891   5.116  19.000  0.00  0.00    +0.000 A 
ATOM     11  C   UNL     1       3.762   5.796  19.482  0.00  0.00    +0.000 A 
ATOM     12  C   UNL     1       2.724   5.106  20.118  0.00  0.00    +0.000 A 
ATOM     13  C   UNL     1       2.807   3.727  20.271  0.00  0.00    +0.000 A 
ATOM     14 BR   UNL     1       1.395   2.787  21.104  0.00  0.00    +0.000 Br
ATOM     15  C   UNL     1       3.919   3.034  19.796  0.00  0.00    +0.000 A 
ATOM     16  C   UNL     1       4.957   3.728  19.160  0.00  0.00    +0.000 A 
ENDBRANCH   9  10
ENDBRANCH   1   9
TORSDOF 3
ENDMDL
MODEL 4
REMARK VINA RESULT:      -6.4      2.361      3.559
REMARK  Name = 
REMARK  3 active torsions:
REMARK  status: ('A' for Active; 'I' for Inactive)
REMARK    1  A    between atoms: C_6  and  C_7
REMARK    2  A    between atoms: C_7  and  S_8
REMARK    3  A    between atoms: S_8  and  C_9
REMARK                            x       y       z     vdW  Elec       q    Type
REMARK                         _______ _______ _______ _____ _____    ______ ____
ROOT
ATOM      1  C   UNL     1       7.308   5.060  17.095  0.00  0.00    +0.000 C 
ENDROOT
BRANCH   1   7
ATOM      2 CL   UNL     1       8.374   5.932  12.260  0.00  0.00    +0.000 Cl
ATOM      3  C   UNL     1       7.425   5.083  13.409  0.00  0.00    +0.000 A 
ATOM      4  C   UNL     1       6.454   4.187  12.999  0.00  0.00    +0.000 A 
ATOM      5  C   UNL     1       5.717   3.542  13.985  0.00  0.00    +0.000 A 
ATOM      6  C   UNL     1       5.979   3.818  15.326  0.00  0.00    +0.000 A 
ATOM      7  C   UNL     1       6.985   4.731  15.651  0.00  0.00    +0.000 A 
ATOM      8  N   UNL     1       7.706   5.373  14.697  0.00  0.00    +0.000 NA
ENDBRANCH   1   7
BRANCH   1   9
ATOM      9  S   UNL     1       6.250   6.404  17.745  0.00  0.00    +0.000 S 
BRANCH   9  10
ATOM     10  C   UNL     1       4.757   5.552  18.234  0.00  0.00    +0.000 A 
ATOM     11  C   UNL     1       4.899   4.465  19.110  0.00  0.00    +0.000 A 
ATOM     12  C   UNL     1       3.780   3.787  19.603  0.00  0.00    +0.000 A 
ATOM     13  C   UNL     1       2.506   4.197  19.226  0.00  0.00    +0.000 A 
ATOM     14 BR   UNL     1       0.989   3.302  19.911  0.00  0.00    +0.000 Br
ATOM     15  C   UNL     1       2.344   5.276  18.359  0.00  0.00    +0.000 A 
ATOM     16  C   UNL     1       3.468   5.953  17.866  0.00  0.00    +0.000 A 
ENDBRANCH   9  10
ENDBRANCH   1   9
TORSDOF 3
ENDMDL
MODEL 5
REMARK VINA RESULT:      -6.2      2.358      3.666
REMARK  Name = 
REMARK  3 active torsions:
REMARK  status: ('A' for Active; 'I' for Inactive)
REMARK    1  A    between atoms: C_6  and  C_7
REMARK    2  A    between atoms: C_7  and  S_8
REMARK    3  A    between atoms: S_8  and  C_9
REMARK                            x       y       z     vdW  Elec       q    Type
REMARK                         _______ _______ _______ _____ _____    ______ ____
ROOT
ATOM      1  C   UNL     1       6.299   5.335  16.826  0.00  0.00    +0.000 C 
ENDROOT
BRANCH   1   7
ATOM      2 CL   UNL     1       8.947   5.971  12.601  0.00  0.00    +0.000 Cl
ATOM      3  C   UNL     1       7.648   5.184  13.397  0.00  0.00    +0.000 A 
ATOM      4  C   UNL     1       6.850   4.278  12.722  0.00  0.00    +0.000 A 
ATOM      5  C   UNL     1       5.810   3.686  13.429  0.00  0.00    +0.000 A 
ATOM      6  C   UNL     1       5.613   4.023  14.767  0.00  0.00    +0.000 A 
ATOM      7  C   UNL     1       6.473   4.941  15.373  0.00  0.00    +0.000 A 
ATOM      8  N   UNL     1       7.487   5.532  14.691  0.00  0.00    +0.000 NA
ENDBRANCH   1   7
BRANCH   1   9
ATOM      9  S   UNL     1       4.835   6.403  17.078  0.00  0.00    +0.000 S 
BRANCH   9  10
ATOM     10  C   UNL     1       3.843   5.472  18.238  0.00  0.00    +0.000 A 
ATOM     11  C   UNL     1       4.036   4.083  18.272  0.00  0.00    +0.000 A 
ATOM     12  C   UNL     1       3.357   3.285  19.199  0.00  0.00    +0.000 A 
ATOM     13  C   UNL     1       2.483   3.875  20.104  0.00  0.00    +0.000 A 
ATOM     14 BR   UNL     1       1.585   2.805  21.378  0.00  0.00    +0.000 Br
ATOM     15  C   UNL     1       2.280   5.254  20.088  0.00  0.00    +0.000 A 
ATOM     16  C   UNL     1       2.961   6.050  19.157  0.00  0.00    +0.000 A 
ENDBRANCH   9  10
ENDBRANCH   1   9
TORSDOF 3
ENDMDL
MODEL 6
REMARK VINA RESULT:      -6.1      4.235      6.135
REMARK  Name = 
REMARK  3 active torsions:
REMARK  status: ('A' for Active; 'I' for Inactive)
REMARK    1  A    between atoms: C_6  and  C_7
REMARK    2  A    between atoms: C_7  and  S_8
REMARK    3  A    between atoms: S_8  and  C_9
REMARK                            x       y       z     vdW  Elec       q    Type
REMARK                         _______ _______ _______ _____ _____    ______ ____
ROOT
ATOM      1  C   UNL     1       3.623   6.083  19.159  0.00  0.00    +0.000 C 
ENDROOT
BRANCH   1   7
ATOM      2 CL   UNL     1       1.459   2.480  21.917  0.00  0.00    +0.000 Cl
ATOM      3  C   UNL     1       1.648   3.219  20.380  0.00  0.00    +0.000 A 
ATOM      4  C   UNL     1       0.975   2.731  19.275  0.00  0.00    +0.000 A 
ATOM      5  C   UNL     1       1.183   3.373  18.060  0.00  0.00    +0.000 A 
ATOM      6  C   UNL     1       2.047   4.465  18.004  0.00  0.00    +0.000 A 
ATOM      7  C   UNL     1       2.678   4.898  19.172  0.00  0.00    +0.000 A 
ATOM      8  N   UNL     1       2.489   4.274  20.362  0.00  0.00    +0.000 NA
ENDBRANCH   1   7
BRANCH   1   9
ATOM      9  S   UNL     1       5.377   5.563  19.162  0.00  0.00    +0.000 S 
BRANCH   9  10
ATOM     10  C   UNL     1       5.735   5.316  17.429  0.00  0.00    +0.000 A 
ATOM     11  C   UNL     1       6.725   4.374  17.108  0.00  0.00    +0.000 A 
ATOM     12  C   UNL     1       7.018   4.063  15.777  0.00  0.00    +0.000 A 
ATOM     13  C   UNL     1       6.315   4.689  14.753  0.00  0.00    +0.000 A 
ATOM     14 BR   UNL     1       6.688   4.250  12.953  0.00  0.00    +0.000 Br
ATOM     15  C   UNL     1       5.327   5.624  15.051  0.00  0.00    +0.000 A 
ATOM     16  C   UNL     1       5.036   5.935  16.387  0.00  0.00    +0.000 A 
ENDBRANCH   9  10
ENDBRANCH   1   9
TORSDOF 3
ENDMDL
MODEL 7
REMARK VINA RESULT:      -6.1      3.118      4.928
REMARK  Name = 
REMARK  3 active torsions:
REMARK  status: ('A' for Active; 'I' for Inactive)
REMARK    1  A    between atoms: C_6  and  C_7
REMARK    2  A    between atoms: C_7  and  S_8
REMARK    3  A    between atoms: S_8  and  C_9
REMARK                            x       y       z     vdW  Elec       q    Type
REMARK                         _______ _______ _______ _____ _____    ______ ____
ROOT
ATOM      1  C   UNL     1       1.733   3.089  18.116  0.00  0.00    +0.000 C 
ENDROOT
BRANCH   1   7
ATOM      2 CL   UNL     1       2.818   7.972  17.622  0.00  0.00    +0.000 Cl
ATOM      3  C   UNL     1       2.342   6.686  18.652  0.00  0.00    +0.000 A 
ATOM      4  C   UNL     1       2.109   6.908  19.998  0.00  0.00    +0.000 A 
ATOM      5  C   UNL     1       1.736   5.817  20.774  0.00  0.00    +0.000 A 
ATOM      6  C   UNL     1       1.613   4.564  20.177  0.00  0.00    +0.000 A 
ATOM      7  C   UNL     1       1.857   4.431  18.808  0.00  0.00    +0.000 A 
ATOM      8  N   UNL     1       2.231   5.488  18.042  0.00  0.00    +0.000 NA
ENDBRANCH   1   7
BRANCH   1   9
ATOM      9  S   UNL     1       3.323   2.184  18.082  0.00  0.00    +0.000 S 
BRANCH   9  10
ATOM     10  C   UNL     1       4.537   3.492  17.993  0.00  0.00    +0.000 A 
ATOM     11  C   UNL     1       4.797   4.039  16.727  0.00  0.00    +0.000 A 
ATOM     12  C   UNL     1       5.677   5.115  16.575  0.00  0.00    +0.000 A 
ATOM     13  C   UNL     1       6.301   5.657  17.693  0.00  0.00    +0.000 A 
ATOM     14 BR   UNL     1       7.469   7.130  17.495  0.00  0.00    +0.000 Br
ATOM     15  C   UNL     1       6.054   5.130  18.958  0.00  0.00    +0.000 A 
ATOM     16  C   UNL     1       5.172   4.051  19.108  0.00  0.00    +0.000 A 
ENDBRANCH   9  10
ENDBRANCH   1   9
TORSDOF 3
ENDMDL
MODEL 8
REMARK VINA RESULT:      -6.1      3.354      4.376
REMARK  Name = 
REMARK  3 active torsions:
REMARK  status: ('A' for Active; 'I' for Inactive)
REMARK    1  A    between atoms: C_6  and  C_7
REMARK    2  A    between atoms: C_7  and  S_8
REMARK    3  A    between atoms: S_8  and  C_9
REMARK                            x       y       z     vdW  Elec       q    Type
REMARK                         _______ _______ _______ _____ _____    ______ ____
ROOT
ATOM      1  C   UNL     1       6.129   4.245  16.084  0.00  0.00    +0.000 C 
ENDROOT
BRANCH   1   7
ATOM      2 CL   UNL     1       5.375   2.325  11.500  0.00  0.00    +0.000 Cl
ATOM      3  C   UNL     1       6.217   3.449  12.484  0.00  0.00    +0.000 A 
ATOM      4  C   UNL     1       7.163   4.297  11.937  0.00  0.00    +0.000 A 
ATOM      5  C   UNL     1       7.813   5.175  12.796  0.00  0.00    +0.000 A 
ATOM      6  C   UNL     1       7.490   5.169  14.152  0.00  0.00    +0.000 A 
ATOM      7  C   UNL     1       6.514   4.286  14.618  0.00  0.00    +0.000 A 
ATOM      8  N   UNL     1       5.880   3.417  13.790  0.00  0.00    +0.000 NA
ENDBRANCH   1   7
BRANCH   1   9
ATOM      9  S   UNL     1       4.914   5.546  16.510  0.00  0.00    +0.000 S 
BRANCH   9  10
ATOM     10  C   UNL     1       3.936   4.786  17.799  0.00  0.00    +0.000 A 
ATOM     11  C   UNL     1       4.516   3.713  18.493  0.00  0.00    +0.000 A 
ATOM     12  C   UNL     1       3.854   3.108  19.566  0.00  0.00    +0.000 A 
ATOM     13  C   UNL     1       2.605   3.577  19.956  0.00  0.00    +0.000 A 
ATOM     14 BR   UNL     1       1.718   2.780  21.423  0.00  0.00    +0.000 Br
ATOM     15  C   UNL     1       2.014   4.643  19.282  0.00  0.00    +0.000 A 
ATOM     16  C   UNL     1       2.680   5.248  18.207  0.00  0.00    +0.000 A 
ENDBRANCH   9  10
ENDBRANCH   1   9
TORSDOF 3
ENDMDL
MODEL 9
REMARK VINA RESULT:      -6.1      3.196      4.220
REMARK  Name = 
REMARK  3 active torsions:
REMARK  status: ('A' for Active; 'I' for Inactive)
REMARK    1  A    between atoms: C_6  and  C_7
REMARK    2  A    between atoms: C_7  and  S_8
REMARK    3  A    between atoms: S_8  and  C_9
REMARK                            x       y       z     vdW  Elec       q    Type
REMARK                         _______ _______ _______ _____ _____    ______ ____
ROOT
ATOM      1  C   UNL     1       6.409   4.617  16.009  0.00  0.00    +0.000 C 
ENDROOT
BRANCH   1   7
ATOM      2 CL   UNL     1       5.430   2.325  11.643  0.00  0.00    +0.000 Cl
ATOM      3  C   UNL     1       6.306   3.537  12.485  0.00  0.00    +0.000 A 
ATOM      4  C   UNL     1       7.203   4.351  11.818  0.00  0.00    +0.000 A 
ATOM      5  C   UNL     1       7.884   5.304  12.566  0.00  0.00    +0.000 A 
ATOM      6  C   UNL     1       7.640   5.402  13.935  0.00  0.00    +0.000 A 
ATOM      7  C   UNL     1       6.709   4.545  14.526  0.00  0.00    +0.000 A 
ATOM      8  N   UNL     1       6.044   3.604  13.807  0.00  0.00    +0.000 NA
ENDBRANCH   1   7
BRANCH   1   9
ATOM      9  S   UNL     1       5.121   5.860  16.390  0.00  0.00    +0.000 S 
BRANCH   9  10
ATOM     10  C   UNL     1       4.114   5.044  17.620  0.00  0.00    +0.000 A 
ATOM     11  C   UNL     1       3.913   5.720  18.833  0.00  0.00    +0.000 A 
ATOM     12  C   UNL     1       3.079   5.190  19.823  0.00  0.00    +0.000 A 
ATOM     13  C   UNL     1       2.434   3.979  19.603  0.00  0.00    +0.000 A 
ATOM     14 BR   UNL     1       1.283   3.273  20.926  0.00  0.00    +0.000 Br
ATOM     15  C   UNL     1       2.618   3.294  18.403  0.00  0.00    +0.000 A 
ATOM     16  C   UNL     1       3.454   3.828  17.414  0.00  0.00    +0.000 A 
ENDBRANCH   9  10
ENDBRANCH   1   9
TORSDOF 3
ENDMDL
