MODEL 1
REMARK VINA RESULT:      -8.4      0.000      0.000
REMARK  Name = 
REMARK  3 active torsions:
REMARK  status: ('A' for Active; 'I' for Inactive)
REMARK    1  A    between atoms: C_5  and  C_6
REMARK    2  A    between atoms: C_15  and  C_16
REMARK    3  A    between atoms: C_16  and  N_17
REMARK                            x       y       z     vdW  Elec       q    Type
REMARK                         _______ _______ _______ _____ _____    ______ ____
ROOT
ATOM      1  C   UNL     1       3.447   6.984  18.063  0.00  0.00    +0.000 A 
ATOM      2  N   UNL     1       4.297   7.339  17.029  0.00  0.00    +0.000 N 
ATOM      3  C   UNL     1       4.851   6.203  16.495  0.00  0.00    +0.000 A 
ATOM      4  C   UNL     1       5.280   5.860  15.212  0.00  0.00    +0.000 A 
ATOM      5  C   UNL     1       5.926   4.626  15.095  0.00  0.00    +0.000 A 
ATOM      6 CL   UNL     1       6.260   3.998  13.527  0.00  0.00    +0.000 Cl
ATOM      7  C   UNL     1       6.258   3.867  16.218  0.00  0.00    +0.000 A 
ATOM      8  C   UNL     1       5.711   4.183  17.467  0.00  0.00    +0.000 A 
ATOM      9  C   UNL     1       4.872   5.307  17.555  0.00  0.00    +0.000 A 
ATOM     10  C   UNL     1       3.608   5.596  18.166  0.00  0.00    +0.000 A 
ATOM     11  H   UNL     1       4.347   8.255  16.606  0.00  0.00    +0.000 HD
ENDROOT
BRANCH   1  16
ATOM     12 CL   UNL     1      -0.639  10.743  20.318  0.00  0.00    +0.000 Cl
ATOM     13  C   UNL     1       0.524   9.654  19.664  0.00  0.00    +0.000 A 
ATOM     14  C   UNL     1       0.914   9.788  18.343  0.00  0.00    +0.000 A 
ATOM     15  C   UNL     1       1.862   8.898  17.812  0.00  0.00    +0.000 A 
ATOM     16  C   UNL     1       2.429   7.896  18.603  0.00  0.00    +0.000 A 
ATOM     17  C   UNL     1       2.025   7.783  19.939  0.00  0.00    +0.000 A 
ATOM     18  C   UNL     1       1.069   8.659  20.473  0.00  0.00    +0.000 A 
ENDBRANCH   1  16
BRANCH  10  19
ATOM     19  C   UNL     1       2.463   4.617  18.203  0.00  0.00    +0.000 C 
BRANCH  19  20
ATOM     20  N   UNL     1       2.167   3.886  19.404  0.00  0.00    +0.000 N 
ATOM     21  C   UNL     1       3.121   3.194  20.114  0.00  0.00    +0.000 A 
ATOM     22  C   UNL     1       2.484   2.721  21.223  0.00  0.00    +0.000 A 
ATOM     23  N   UNL     1       1.160   3.085  21.214  0.00  0.00    +0.000 NA
ATOM     24  C   UNL     1       1.000   3.797  20.108  0.00  0.00    +0.000 A 
ENDBRANCH  19  20
ENDBRANCH  10  19
TORSDOF 3
ENDMDL
MODEL 2
REMARK VINA RESULT:      -8.3      0.423      1.090
REMARK  Name = 
REMARK  3 active torsions:
REMARK  status: ('A' for Active; 'I' for Inactive)
REMARK    1  A    between atoms: C_5  and  C_6
REMARK    2  A    between atoms: C_15  and  C_16
REMARK    3  A    between atoms: C_16  and  N_17
REMARK                            x       y       z     vdW  Elec       q    Type
REMARK                         _______ _______ _______ _____ _____    ______ ____
ROOT
ATOM      1  C   UNL     1       3.306   7.052  18.110  0.00  0.00    +0.000 A 
ATOM      2  N   UNL     1       4.238   7.397  17.145  0.00  0.00    +0.000 N 
ATOM      3  C   UNL     1       4.747   6.252  16.586  0.00  0.00    +0.000 A 
ATOM      4  C   UNL     1       5.230   5.943  15.314  0.00  0.00    +0.000 A 
ATOM      5  C   UNL     1       5.800   4.675  15.170  0.00  0.00    +0.000 A 
ATOM      6 CL   UNL     1       6.187   4.101  13.593  0.00  0.00    +0.000 Cl
ATOM      7  C   UNL     1       6.013   3.842  16.269  0.00  0.00    +0.000 A 
ATOM      8  C   UNL     1       5.413   4.134  17.500  0.00  0.00    +0.000 A 
ATOM      9  C   UNL     1       4.646   5.307  17.597  0.00  0.00    +0.000 A 
ATOM     10  C   UNL     1       3.368   5.653  18.149  0.00  0.00    +0.000 A 
ATOM     11  H   UNL     1       4.374   8.326  16.774  0.00  0.00    +0.000 HD
ENDROOT
BRANCH   1  16
ATOM     12 CL   UNL     1      -0.785  10.895  20.208  0.00  0.00    +0.000 Cl
ATOM     13  C   UNL     1       0.403   9.800  19.611  0.00  0.00    +0.000 A 
ATOM     14  C   UNL     1       0.952   8.860  20.465  0.00  0.00    +0.000 A 
ATOM     15  C   UNL     1       1.920   7.969  19.975  0.00  0.00    +0.000 A 
ATOM     16  C   UNL     1       2.319   8.004  18.637  0.00  0.00    +0.000 A 
ATOM     17  C   UNL     1       1.744   8.959  17.788  0.00  0.00    +0.000 A 
ATOM     18  C   UNL     1       0.787   9.862  18.273  0.00  0.00    +0.000 A 
ENDBRANCH   1  16
BRANCH  10  19
ATOM     19  C   UNL     1       2.162   4.754  18.069  0.00  0.00    +0.000 C 
BRANCH  19  20
ATOM     20  N   UNL     1       1.816   3.897  19.170  0.00  0.00    +0.000 N 
ATOM     21  C   UNL     1       2.295   2.613  19.299  0.00  0.00    +0.000 A 
ATOM     22  C   UNL     1       1.829   2.165  20.499  0.00  0.00    +0.000 A 
ATOM     23  N   UNL     1       1.061   3.126  21.111  0.00  0.00    +0.000 NA
ATOM     24  C   UNL     1       1.081   4.165  20.289  0.00  0.00    +0.000 A 
ENDBRANCH  19  20
ENDBRANCH  10  19
TORSDOF 3
ENDMDL
MODEL 3
REMARK VINA RESULT:      -7.7      1.200      1.571
REMARK  Name = 
REMARK  3 active torsions:
REMARK  status: ('A' for Active; 'I' for Inactive)
REMARK    1  A    between atoms: C_5  and  C_6
REMARK    2  A    between atoms: C_15  and  C_16
REMARK    3  A    between atoms: C_16  and  N_17
REMARK                            x       y       z     vdW  Elec       q    Type
REMARK                         _______ _______ _______ _____ _____    ______ ____
ROOT
ATOM      1  C   UNL     1       2.932   7.569  18.607  0.00  0.00    +0.000 A 
ATOM      2  N   UNL     1       3.748   7.700  17.496  0.00  0.00    +0.000 N 
ATOM      3  C   UNL     1       4.442   6.530  17.311  0.00  0.00    +0.000 A 
ATOM      4  C   UNL     1       4.928   5.876  16.178  0.00  0.00    +0.000 A 
ATOM      5  C   UNL     1       5.719   4.749  16.418  0.00  0.00    +0.000 A 
ATOM      6 CL   UNL     1       6.149   3.728  15.099  0.00  0.00    +0.000 Cl
ATOM      7  C   UNL     1       6.122   4.402  17.707  0.00  0.00    +0.000 A 
ATOM      8  C   UNL     1       5.523   5.006  18.819  0.00  0.00    +0.000 A 
ATOM      9  C   UNL     1       4.555   5.998  18.587  0.00  0.00    +0.000 A 
ATOM     10  C   UNL     1       3.256   6.303  19.112  0.00  0.00    +0.000 A 
ATOM     11  H   UNL     1       3.695   8.448  16.820  0.00  0.00    +0.000 HD
ENDROOT
BRANCH   1  16
ATOM     12 CL   UNL     1      -1.608  11.313  19.740  0.00  0.00    +0.000 Cl
ATOM     13  C   UNL     1      -0.313  10.225  19.410  0.00  0.00    +0.000 A 
ATOM     14  C   UNL     1       0.124  10.062  18.107  0.00  0.00    +0.000 A 
ATOM     15  C   UNL     1       1.179   9.175  17.841  0.00  0.00    +0.000 A 
ATOM     16  C   UNL     1       1.805   8.473  18.874  0.00  0.00    +0.000 A 
ATOM     17  C   UNL     1       1.351   8.659  20.186  0.00  0.00    +0.000 A 
ATOM     18  C   UNL     1       0.289   9.533  20.458  0.00  0.00    +0.000 A 
ENDBRANCH   1  16
BRANCH  10  19
ATOM     19  C   UNL     1       2.236   5.251  19.461  0.00  0.00    +0.000 C 
BRANCH  19  20
ATOM     20  N   UNL     1       2.319   3.935  18.889  0.00  0.00    +0.000 N 
ATOM     21  C   UNL     1       2.563   2.807  19.638  0.00  0.00    +0.000 A 
ATOM     22  C   UNL     1       2.473   1.760  18.768  0.00  0.00    +0.000 A 
ATOM     23  N   UNL     1       2.195   2.208  17.499  0.00  0.00    +0.000 NA
ATOM     24  C   UNL     1       2.097   3.525  17.605  0.00  0.00    +0.000 A 
ENDBRANCH  19  20
ENDBRANCH  10  19
TORSDOF 3
ENDMDL
MODEL 4
REMARK VINA RESULT:      -7.7      1.203      1.869
REMARK  Name = 
REMARK  3 active torsions:
REMARK  status: ('A' for Active; 'I' for Inactive)
REMARK    1  A    between atoms: C_5  and  C_6
REMARK    2  A    between atoms: C_15  and  C_16
REMARK    3  A    between atoms: C_16  and  N_17
REMARK                            x       y       z     vdW  Elec       q    Type
REMARK                         _______ _______ _______ _____ _____    ______ ____
ROOT
ATOM      1  C   UNL     1       2.923   7.590  18.631  0.00  0.00    +0.000 A 
ATOM      2  N   UNL     1       3.747   7.707  17.524  0.00  0.00    +0.000 N 
ATOM      3  C   UNL     1       4.429   6.529  17.349  0.00  0.00    +0.000 A 
ATOM      4  C   UNL     1       4.915   5.864  16.222  0.00  0.00    +0.000 A 
ATOM      5  C   UNL     1       5.691   4.729  16.472  0.00  0.00    +0.000 A 
ATOM      6 CL   UNL     1       6.118   3.698  15.160  0.00  0.00    +0.000 Cl
ATOM      7  C   UNL     1       6.082   4.383  17.765  0.00  0.00    +0.000 A 
ATOM      8  C   UNL     1       5.483   5.000  18.870  0.00  0.00    +0.000 A 
ATOM      9  C   UNL     1       4.528   6.000  18.628  0.00  0.00    +0.000 A 
ATOM     10  C   UNL     1       3.228   6.323  19.143  0.00  0.00    +0.000 A 
ATOM     11  H   UNL     1       3.707   8.453  16.845  0.00  0.00    +0.000 HD
ENDROOT
BRANCH   1  16
ATOM     12 CL   UNL     1      -1.698  11.272  19.631  0.00  0.00    +0.000 Cl
ATOM     13  C   UNL     1      -0.360  10.226  19.347  0.00  0.00    +0.000 A 
ATOM     14  C   UNL     1       0.223   9.563  20.413  0.00  0.00    +0.000 A 
ATOM     15  C   UNL     1       1.314   8.710  20.179  0.00  0.00    +0.000 A 
ATOM     16  C   UNL     1       1.803   8.508  18.887  0.00  0.00    +0.000 A 
ATOM     17  C   UNL     1       1.194   9.183  17.822  0.00  0.00    +0.000 A 
ATOM     18  C   UNL     1       0.112  10.047  18.049  0.00  0.00    +0.000 A 
ENDBRANCH   1  16
BRANCH  10  19
ATOM     19  C   UNL     1       2.195   5.283  19.491  0.00  0.00    +0.000 C 
BRANCH  19  20
ATOM     20  N   UNL     1       2.264   3.966  18.920  0.00  0.00    +0.000 N 
ATOM     21  C   UNL     1       2.460   2.833  19.676  0.00  0.00    +0.000 A 
ATOM     22  C   UNL     1       2.370   1.788  18.803  0.00  0.00    +0.000 A 
ATOM     23  N   UNL     1       2.139   2.242  17.526  0.00  0.00    +0.000 NA
ATOM     24  C   UNL     1       2.069   3.561  17.630  0.00  0.00    +0.000 A 
ENDBRANCH  19  20
ENDBRANCH  10  19
TORSDOF 3
ENDMDL
MODEL 5
REMARK VINA RESULT:      -7.6      1.101      1.338
REMARK  Name = 
REMARK  3 active torsions:
REMARK  status: ('A' for Active; 'I' for Inactive)
REMARK    1  A    between atoms: C_5  and  C_6
REMARK    2  A    between atoms: C_15  and  C_16
REMARK    3  A    between atoms: C_16  and  N_17
REMARK                            x       y       z     vdW  Elec       q    Type
REMARK                         _______ _______ _______ _____ _____    ______ ____
ROOT
ATOM      1  C   UNL     1       3.630   7.093  17.930  0.00  0.00    +0.000 A 
ATOM      2  N   UNL     1       4.330   7.423  16.782  0.00  0.00    +0.000 N 
ATOM      3  C   UNL     1       4.971   6.304  16.312  0.00  0.00    +0.000 A 
ATOM      4  C   UNL     1       5.321   5.869  15.033  0.00  0.00    +0.000 A 
ATOM      5  C   UNL     1       6.102   4.712  14.976  0.00  0.00    +0.000 A 
ATOM      6 CL   UNL     1       6.368   3.952  13.453  0.00  0.00    +0.000 Cl
ATOM      7  C   UNL     1       6.628   4.129  16.129  0.00  0.00    +0.000 A 
ATOM      8  C   UNL     1       6.163   4.520  17.390  0.00  0.00    +0.000 A 
ATOM      9  C   UNL     1       5.201   5.543  17.449  0.00  0.00    +0.000 A 
ATOM     10  C   UNL     1       3.971   5.753  18.156  0.00  0.00    +0.000 A 
ATOM     11  H   UNL     1       4.227   8.285  16.265  0.00  0.00    +0.000 HD
ENDROOT
BRANCH   1  16
ATOM     12 CL   UNL     1      -0.674  10.578  20.219  0.00  0.00    +0.000 Cl
ATOM     13  C   UNL     1       0.552   9.568  19.554  0.00  0.00    +0.000 A 
ATOM     14  C   UNL     1       0.978   9.779  18.255  0.00  0.00    +0.000 A 
ATOM     15  C   UNL     1       1.977   8.954  17.715  0.00  0.00    +0.000 A 
ATOM     16  C   UNL     1       2.559   7.938  18.477  0.00  0.00    +0.000 A 
ATOM     17  C   UNL     1       2.118   7.746  19.793  0.00  0.00    +0.000 A 
ATOM     18  C   UNL     1       1.111   8.558  20.334  0.00  0.00    +0.000 A 
ENDBRANCH   1  16
BRANCH  10  19
ATOM     19  C   UNL     1       2.966   4.661  18.412  0.00  0.00    +0.000 C 
BRANCH  19  20
ATOM     20  N   UNL     1       3.401   3.317  18.679  0.00  0.00    +0.000 N 
ATOM     21  C   UNL     1       3.958   2.934  19.877  0.00  0.00    +0.000 A 
ATOM     22  C   UNL     1       4.147   1.587  19.782  0.00  0.00    +0.000 A 
ATOM     23  N   UNL     1       3.739   1.125  18.554  0.00  0.00    +0.000 NA
ATOM     24  C   UNL     1       3.283   2.192  17.913  0.00  0.00    +0.000 A 
ENDBRANCH  19  20
ENDBRANCH  10  19
TORSDOF 3
ENDMDL
MODEL 6
REMARK VINA RESULT:      -7.5      2.294      4.175
REMARK  Name = 
REMARK  3 active torsions:
REMARK  status: ('A' for Active; 'I' for Inactive)
REMARK    1  A    between atoms: C_5  and  C_6
REMARK    2  A    between atoms: C_15  and  C_16
REMARK    3  A    between atoms: C_16  and  N_17
REMARK                            x       y       z     vdW  Elec       q    Type
REMARK                         _______ _______ _______ _____ _____    ______ ____
ROOT
ATOM      1  C   UNL     1       2.299   6.394  18.784  0.00  0.00    +0.000 A 
ATOM      2  N   UNL     1       2.047   5.458  19.773  0.00  0.00    +0.000 N 
ATOM      3  C   UNL     1       2.810   4.342  19.537  0.00  0.00    +0.000 A 
ATOM      4  C   UNL     1       3.396   3.390  20.372  0.00  0.00    +0.000 A 
ATOM      5  C   UNL     1       3.997   2.304  19.731  0.00  0.00    +0.000 A 
ATOM      6 CL   UNL     1       4.965   1.216  20.651  0.00  0.00    +0.000 Cl
ATOM      7  C   UNL     1       3.875   2.110  18.355  0.00  0.00    +0.000 A 
ATOM      8  C   UNL     1       3.386   3.138  17.541  0.00  0.00    +0.000 A 
ATOM      9  C   UNL     1       2.980   4.333  18.160  0.00  0.00    +0.000 A 
ATOM     10  C   UNL     1       3.174   5.732  17.912  0.00  0.00    +0.000 A 
ATOM     11  H   UNL     1       1.544   5.638  20.629  0.00  0.00    +0.000 HD
ENDROOT
BRANCH   1  16
ATOM     12 CL   UNL     1       0.769  12.165  19.301  0.00  0.00    +0.000 Cl
ATOM     13  C   UNL     1       1.223  10.510  19.159  0.00  0.00    +0.000 A 
ATOM     14  C   UNL     1       1.097   9.673  20.253  0.00  0.00    +0.000 A 
ATOM     15  C   UNL     1       1.468   8.324  20.135  0.00  0.00    +0.000 A 
ATOM     16  C   UNL     1       1.942   7.813  18.924  0.00  0.00    +0.000 A 
ATOM     17  C   UNL     1       2.055   8.676  17.827  0.00  0.00    +0.000 A 
ATOM     18  C   UNL     1       1.699  10.027  17.941  0.00  0.00    +0.000 A 
ENDBRANCH   1  16
BRANCH  10  19
ATOM     19  C   UNL     1       4.473   6.314  17.421  0.00  0.00    +0.000 C 
BRANCH  19  20
ATOM     20  N   UNL     1       5.716   5.633  17.664  0.00  0.00    +0.000 N 
ATOM     21  C   UNL     1       6.461   5.056  16.662  0.00  0.00    +0.000 A 
ATOM     22  C   UNL     1       7.598   4.602  17.263  0.00  0.00    +0.000 A 
ATOM     23  N   UNL     1       7.572   4.866  18.611  0.00  0.00    +0.000 NA
ATOM     24  C   UNL     1       6.428   5.500  18.822  0.00  0.00    +0.000 A 
ENDBRANCH  19  20
ENDBRANCH  10  19
TORSDOF 3
ENDMDL
MODEL 7
REMARK VINA RESULT:      -7.5      2.233      4.032
REMARK  Name = 
REMARK  3 active torsions:
REMARK  status: ('A' for Active; 'I' for Inactive)
REMARK    1  A    between atoms: C_5  and  C_6
REMARK    2  A    between atoms: C_15  and  C_16
REMARK    3  A    between atoms: C_16  and  N_17
REMARK                            x       y       z     vdW  Elec       q    Type
REMARK                         _______ _______ _______ _____ _____    ______ ____
ROOT
ATOM      1  C   UNL     1       2.340   6.731  18.605  0.00  0.00    +0.000 A 
ATOM      2  N   UNL     1       2.034   5.725  19.506  0.00  0.00    +0.000 N 
ATOM      3  C   UNL     1       2.835   4.640  19.253  0.00  0.00    +0.000 A 
ATOM      4  C   UNL     1       3.376   3.641  20.064  0.00  0.00    +0.000 A 
ATOM      5  C   UNL     1       4.045   2.611  19.397  0.00  0.00    +0.000 A 
ATOM      6 CL   UNL     1       4.963   1.476  20.311  0.00  0.00    +0.000 Cl
ATOM      7  C   UNL     1       4.029   2.511  18.006  0.00  0.00    +0.000 A 
ATOM      8  C   UNL     1       3.581   3.586  17.229  0.00  0.00    +0.000 A 
ATOM      9  C   UNL     1       3.107   4.728  17.895  0.00  0.00    +0.000 A 
ATOM     10  C   UNL     1       3.290   6.144  17.758  0.00  0.00    +0.000 A 
ATOM     11  H   UNL     1       1.465   5.838  20.332  0.00  0.00    +0.000 HD
ENDROOT
BRANCH   1  16
ATOM     12 CL   UNL     1       0.799  12.449  19.519  0.00  0.00    +0.000 Cl
ATOM     13  C   UNL     1       1.228  10.803  19.249  0.00  0.00    +0.000 A 
ATOM     14  C   UNL     1       1.769  10.432  18.031  0.00  0.00    +0.000 A 
ATOM     15  C   UNL     1       2.118   9.090  17.813  0.00  0.00    +0.000 A 
ATOM     16  C   UNL     1       1.945   8.131  18.814  0.00  0.00    +0.000 A 
ATOM     17  C   UNL     1       1.402   8.530  20.042  0.00  0.00    +0.000 A 
ATOM     18  C   UNL     1       1.039   9.866  20.262  0.00  0.00    +0.000 A 
ENDBRANCH   1  16
BRANCH  10  19
ATOM     19  C   UNL     1       4.611   6.778  17.408  0.00  0.00    +0.000 C 
BRANCH  19  20
ATOM     20  N   UNL     1       5.808   5.985  17.350  0.00  0.00    +0.000 N 
ATOM     21  C   UNL     1       6.476   5.555  18.474  0.00  0.00    +0.000 A 
ATOM     22  C   UNL     1       7.489   4.764  18.020  0.00  0.00    +0.000 A 
ATOM     23  N   UNL     1       7.480   4.703  16.647  0.00  0.00    +0.000 NA
ATOM     24  C   UNL     1       6.446   5.442  16.271  0.00  0.00    +0.000 A 
ENDBRANCH  19  20
ENDBRANCH  10  19
TORSDOF 3
ENDMDL
MODEL 8
REMARK VINA RESULT:      -7.4      1.297      1.708
REMARK  Name = 
REMARK  3 active torsions:
REMARK  status: ('A' for Active; 'I' for Inactive)
REMARK    1  A    between atoms: C_5  and  C_6
REMARK    2  A    between atoms: C_15  and  C_16
REMARK    3  A    between atoms: C_16  and  N_17
REMARK                            x       y       z     vdW  Elec       q    Type
REMARK                         _______ _______ _______ _____ _____    ______ ____
ROOT
ATOM      1  C   UNL     1       3.855   7.239  17.944  0.00  0.00    +0.000 A 
ATOM      2  N   UNL     1       4.187   7.312  16.601  0.00  0.00    +0.000 N 
ATOM      3  C   UNL     1       4.997   6.252  16.283  0.00  0.00    +0.000 A 
ATOM      4  C   UNL     1       5.181   5.504  15.119  0.00  0.00    +0.000 A 
ATOM      5  C   UNL     1       6.220   4.570  15.152  0.00  0.00    +0.000 A 
ATOM      6 CL   UNL     1       6.363   3.427  13.871  0.00  0.00    +0.000 Cl
ATOM      7  C   UNL     1       7.110   4.507  16.225  0.00  0.00    +0.000 A 
ATOM      8  C   UNL     1       6.825   5.184  17.416  0.00  0.00    +0.000 A 
ATOM      9  C   UNL     1       5.655   5.960  17.470  0.00  0.00    +0.000 A 
ATOM     10  C   UNL     1       4.587   6.140  18.410  0.00  0.00    +0.000 A 
ATOM     11  H   UNL     1       3.748   7.922  15.926  0.00  0.00    +0.000 HD
ENDROOT
BRANCH   1  16
ATOM     12 CL   UNL     1      -0.786  10.246  20.253  0.00  0.00    +0.000 Cl
ATOM     13  C   UNL     1       0.558   9.392  19.597  0.00  0.00    +0.000 A 
ATOM     14  C   UNL     1       1.159   8.393  20.343  0.00  0.00    +0.000 A 
ATOM     15  C   UNL     1       2.255   7.698  19.807  0.00  0.00    +0.000 A 
ATOM     16  C   UNL     1       2.731   7.986  18.525  0.00  0.00    +0.000 A 
ATOM     17  C   UNL     1       2.103   8.996  17.785  0.00  0.00    +0.000 A 
ATOM     18  C   UNL     1       1.017   9.704  18.319  0.00  0.00    +0.000 A 
ENDBRANCH   1  16
BRANCH  10  19
ATOM     19  C   UNL     1       3.993   5.012  19.213  0.00  0.00    +0.000 C 
BRANCH  19  20
ATOM     20  N   UNL     1       3.094   4.073  18.600  0.00  0.00    +0.000 N 
ATOM     21  C   UNL     1       3.506   2.857  18.105  0.00  0.00    +0.000 A 
ATOM     22  C   UNL     1       2.369   2.222  17.698  0.00  0.00    +0.000 A 
ATOM     23  N   UNL     1       1.268   3.014  17.913  0.00  0.00    +0.000 NA
ATOM     24  C   UNL     1       1.736   4.122  18.468  0.00  0.00    +0.000 A 
ENDBRANCH  19  20
ENDBRANCH  10  19
TORSDOF 3
ENDMDL
MODEL 9
REMARK VINA RESULT:      -7.4      1.256      1.583
REMARK  Name = 
REMARK  3 active torsions:
REMARK  status: ('A' for Active; 'I' for Inactive)
REMARK    1  A    between atoms: C_5  and  C_6
REMARK    2  A    between atoms: C_15  and  C_16
REMARK    3  A    between atoms: C_16  and  N_17
REMARK                            x       y       z     vdW  Elec       q    Type
REMARK                         _______ _______ _______ _____ _____    ______ ____
ROOT
ATOM      1  C   UNL     1       3.980   7.107  17.832  0.00  0.00    +0.000 A 
ATOM      2  N   UNL     1       4.235   7.193  16.474  0.00  0.00    +0.000 N 
ATOM      3  C   UNL     1       5.069   6.166  16.110  0.00  0.00    +0.000 A 
ATOM      4  C   UNL     1       5.219   5.427  14.935  0.00  0.00    +0.000 A 
ATOM      5  C   UNL     1       6.294   4.535  14.910  0.00  0.00    +0.000 A 
ATOM      6 CL   UNL     1       6.413   3.399  13.620  0.00  0.00    +0.000 Cl
ATOM      7  C   UNL     1       7.244   4.508  15.932  0.00  0.00    +0.000 A 
ATOM      8  C   UNL     1       6.998   5.173  17.138  0.00  0.00    +0.000 A 
ATOM      9  C   UNL     1       5.802   5.901  17.257  0.00  0.00    +0.000 A 
ATOM     10  C   UNL     1       4.781   6.038  18.255  0.00  0.00    +0.000 A 
ATOM     11  H   UNL     1       3.736   7.785  15.825  0.00  0.00    +0.000 HD
ENDROOT
BRANCH   1  16
ATOM     12 CL   UNL     1      -0.526  10.003  20.519  0.00  0.00    +0.000 Cl
ATOM     13  C   UNL     1       0.759   9.162  19.739  0.00  0.00    +0.000 A 
ATOM     14  C   UNL     1       1.159   9.553  18.474  0.00  0.00    +0.000 A 
ATOM     15  C   UNL     1       2.206   8.865  17.839  0.00  0.00    +0.000 A 
ATOM     16  C   UNL     1       2.861   7.808  18.476  0.00  0.00    +0.000 A 
ATOM     17  C   UNL     1       2.444   7.434  19.760  0.00  0.00    +0.000 A 
ATOM     18  C   UNL     1       1.390   8.107  20.394  0.00  0.00    +0.000 A 
ENDBRANCH   1  16
BRANCH  10  19
ATOM     19  C   UNL     1       4.278   4.887  19.088  0.00  0.00    +0.000 C 
BRANCH  19  20
ATOM     20  N   UNL     1       3.254   4.014  18.582  0.00  0.00    +0.000 N 
ATOM     21  C   UNL     1       2.043   3.838  19.211  0.00  0.00    +0.000 A 
ATOM     22  C   UNL     1       1.318   3.024  18.392  0.00  0.00    +0.000 A 
ATOM     23  N   UNL     1       2.049   2.678  17.281  0.00  0.00    +0.000 NA
ATOM     24  C   UNL     1       3.211   3.299  17.419  0.00  0.00    +0.000 A 
ENDBRANCH  19  20
ENDBRANCH  10  19
TORSDOF 3
ENDMDL
