MODEL 1
REMARK VINA RESULT:      -7.7      0.000      0.000
REMARK  Name = 
REMARK  8 active torsions:
REMARK  status: ('A' for Active; 'I' for Inactive)
REMARK    1  A    between atoms: C_1  and  O_2
REMARK    2  A    between atoms: O_2  and  C_3
REMARK    3  A    between atoms: C_7  and  O_8
REMARK    4  A    between atoms: O_8  and  C_9
REMARK    5  A    between atoms: C_9  and  C_11
REMARK    6  A    between atoms: C_11  and  S_12
REMARK    7  A    between atoms: S_12  and  C_13
REMARK    8  A    between atoms: C_16  and  C_17
REMARK                            x       y       z     vdW  Elec       q    Type
REMARK                         _______ _______ _______ _____ _____    ______ ____
ROOT
ATOM      1  C   UNL     1       2.805   3.650  20.402  0.00  0.00    +0.000 A 
ATOM      2  N   UNL     1       1.519   3.533  20.665  0.00  0.00    +0.000 NA
ATOM      3  N   UNL     1       0.995   4.811  20.640  0.00  0.00    +0.000 NA
ATOM      4  C   UNL     1       2.000   5.617  20.365  0.00  0.00    +0.000 A 
ATOM      5  O   UNL     1       3.187   4.949  20.236  0.00  0.00    +0.000 OA
ENDROOT
BRANCH   4   6
ATOM      6  C   UNL     1       2.004   7.010  19.935  0.00  0.00    +0.000 A 
ATOM      7  C   UNL     1       2.355   7.369  18.609  0.00  0.00    +0.000 A 
ATOM      8  C   UNL     1       2.084   8.644  18.109  0.00  0.00    +0.000 A 
ATOM      9  C   UNL     1       1.423   9.517  18.945  0.00  0.00    +0.000 A 
ATOM     10  C   UNL     1       1.147   9.201  20.257  0.00  0.00    +0.000 A 
ATOM     11  C   UNL     1       1.465   7.977  20.797  0.00  0.00    +0.000 A 
ATOM     12  O   UNL     1       0.426  10.175  20.878  0.00  0.00    +0.000 OA
ATOM     13  C   UNL     1       0.026  10.943  19.726  0.00  0.00    +0.000 C 
ATOM     14  O   UNL     1       0.889  10.718  18.590  0.00  0.00    +0.000 OA
ENDBRANCH   4   6
BRANCH   1  15
ATOM     15  S   UNL     1       3.914   2.333  20.194  0.00  0.00    +0.000 S 
BRANCH  15  16
ATOM     16  C   UNL     1       4.418   2.637  18.492  0.00  0.00    +0.000 C 
BRANCH  16  17
ATOM     17  C   UNL     1       3.226   2.995  17.647  0.00  0.00    +0.000 C 
ATOM     18  O   UNL     1       2.290   2.249  17.397  0.00  0.00    +0.000 OA
BRANCH  17  19
ATOM     19  O   UNL     1       3.351   4.323  17.235  0.00  0.00    +0.000 OA
BRANCH  19  24
ATOM     20  C   UNL     1       6.703   5.922  17.186  0.00  0.00    +0.000 A 
ATOM     21  C   UNL     1       7.208   5.344  16.019  0.00  0.00    +0.000 A 
ATOM     22  C   UNL     1       6.400   4.529  15.223  0.00  0.00    +0.000 A 
ATOM     23  C   UNL     1       5.087   4.263  15.608  0.00  0.00    +0.000 A 
ATOM     24  C   UNL     1       4.599   4.811  16.793  0.00  0.00    +0.000 A 
ATOM     25  C   UNL     1       5.398   5.639  17.583  0.00  0.00    +0.000 A 
BRANCH  20  27
ATOM     26  C   UNL     1       7.661   8.060  17.486  0.00  0.00    +0.000 C 
ATOM     27  O   UNL     1       7.581   6.697  17.896  0.00  0.00    +0.000 OA
ENDBRANCH  20  27
ENDBRANCH  19  24
ENDBRANCH  17  19
ENDBRANCH  16  17
ENDBRANCH  15  16
ENDBRANCH   1  15
TORSDOF 7
ENDMDL
MODEL 2
REMARK VINA RESULT:      -7.6      1.530      5.701
REMARK  Name = 
REMARK  8 active torsions:
REMARK  status: ('A' for Active; 'I' for Inactive)
REMARK    1  A    between atoms: C_1  and  O_2
REMARK    2  A    between atoms: O_2  and  C_3
REMARK    3  A    between atoms: C_7  and  O_8
REMARK    4  A    between atoms: O_8  and  C_9
REMARK    5  A    between atoms: C_9  and  C_11
REMARK    6  A    between atoms: C_11  and  S_12
REMARK    7  A    between atoms: S_12  and  C_13
REMARK    8  A    between atoms: C_16  and  C_17
REMARK                            x       y       z     vdW  Elec       q    Type
REMARK                         _______ _______ _______ _____ _____    ______ ____
ROOT
ATOM      1  C   UNL     1       2.745   2.490  19.418  0.00  0.00    +0.000 A 
ATOM      2  N   UNL     1       2.600   1.709  18.367  0.00  0.00    +0.000 NA
ATOM      3  N   UNL     1       3.401   2.236  17.372  0.00  0.00    +0.000 NA
ATOM      4  C   UNL     1       3.977   3.303  17.888  0.00  0.00    +0.000 A 
ATOM      5  O   UNL     1       3.578   3.543  19.175  0.00  0.00    +0.000 OA
ENDROOT
BRANCH   4   6
ATOM      6  C   UNL     1       5.118   4.080  17.420  0.00  0.00    +0.000 A 
ATOM      7  C   UNL     1       5.202   4.528  16.078  0.00  0.00    +0.000 A 
ATOM      8  C   UNL     1       6.125   5.504  15.698  0.00  0.00    +0.000 A 
ATOM      9  C   UNL     1       6.914   6.041  16.691  0.00  0.00    +0.000 A 
ATOM     10  C   UNL     1       6.889   5.559  17.981  0.00  0.00    +0.000 A 
ATOM     11  C   UNL     1       6.040   4.550  18.369  0.00  0.00    +0.000 A 
ATOM     12  O   UNL     1       7.692   6.280  18.813  0.00  0.00    +0.000 OA
ATOM     13  C   UNL     1       7.938   7.423  17.970  0.00  0.00    +0.000 C 
ATOM     14  O   UNL     1       7.720   7.132  16.572  0.00  0.00    +0.000 OA
ENDBRANCH   4   6
BRANCH   1  15
ATOM     15  S   UNL     1       2.052   2.212  20.983  0.00  0.00    +0.000 S 
BRANCH  15  16
ATOM     16  C   UNL     1       2.281   3.847  21.703  0.00  0.00    +0.000 C 
BRANCH  16  17
ATOM     17  C   UNL     1       1.619   4.895  20.849  0.00  0.00    +0.000 C 
ATOM     18  O   UNL     1       0.476   4.834  20.418  0.00  0.00    +0.000 OA
BRANCH  17  19
ATOM     19  O   UNL     1       2.510   5.955  20.670  0.00  0.00    +0.000 OA
BRANCH  19  24
ATOM     20  C   UNL     1       1.386   9.194  19.243  0.00  0.00    +0.000 A 
ATOM     21  C   UNL     1       2.053   9.141  18.017  0.00  0.00    +0.000 A 
ATOM     22  C   UNL     1       2.767   7.998  17.646  0.00  0.00    +0.000 A 
ATOM     23  C   UNL     1       2.842   6.912  18.517  0.00  0.00    +0.000 A 
ATOM     24  C   UNL     1       2.207   6.985  19.755  0.00  0.00    +0.000 A 
ATOM     25  C   UNL     1       1.479   8.118  20.123  0.00  0.00    +0.000 A 
BRANCH  20  27
ATOM     26  C   UNL     1      -0.332  10.686  18.607  0.00  0.00    +0.000 C 
ATOM     27  O   UNL     1       0.723  10.362  19.510  0.00  0.00    +0.000 OA
ENDBRANCH  20  27
ENDBRANCH  19  24
ENDBRANCH  17  19
ENDBRANCH  16  17
ENDBRANCH  15  16
ENDBRANCH   1  15
TORSDOF 7
ENDMDL
MODEL 3
REMARK VINA RESULT:      -7.6      4.571      7.139
REMARK  Name = 
REMARK  8 active torsions:
REMARK  status: ('A' for Active; 'I' for Inactive)
REMARK    1  A    between atoms: C_1  and  O_2
REMARK    2  A    between atoms: O_2  and  C_3
REMARK    3  A    between atoms: C_7  and  O_8
REMARK    4  A    between atoms: O_8  and  C_9
REMARK    5  A    between atoms: C_9  and  C_11
REMARK    6  A    between atoms: C_11  and  S_12
REMARK    7  A    between atoms: S_12  and  C_13
REMARK    8  A    between atoms: C_16  and  C_17
REMARK                            x       y       z     vdW  Elec       q    Type
REMARK                         _______ _______ _______ _____ _____    ______ ____
ROOT
ATOM      1  C   UNL     1       7.761   7.056  18.097  0.00  0.00    +0.000 A 
ATOM      2  N   UNL     1       7.217   7.719  17.097  0.00  0.00    +0.000 NA
ATOM      3  N   UNL     1       7.629   9.031  17.225  0.00  0.00    +0.000 NA
ATOM      4  C   UNL     1       8.395   9.075  18.296  0.00  0.00    +0.000 A 
ATOM      5  O   UNL     1       8.494   7.861  18.919  0.00  0.00    +0.000 OA
ENDROOT
BRANCH   4   6
ATOM      6  C   UNL     1       9.325  10.101  18.752  0.00  0.00    +0.000 A 
ATOM      7  C   UNL     1      10.097  10.856  17.834  0.00  0.00    +0.000 A 
ATOM      8  C   UNL     1      10.758  12.020  18.229  0.00  0.00    +0.000 A 
ATOM      9  C   UNL     1      10.588  12.423  19.535  0.00  0.00    +0.000 A 
ATOM     10  C   UNL     1       9.902  11.657  20.451  0.00  0.00    +0.000 A 
ATOM     11  C   UNL     1       9.300  10.470  20.107  0.00  0.00    +0.000 A 
ATOM     12  O   UNL     1       9.794  12.276  21.659  0.00  0.00    +0.000 OA
ATOM     13  C   UNL     1      10.194  13.607  21.278  0.00  0.00    +0.000 C 
ATOM     14  O   UNL     1      10.972  13.620  20.061  0.00  0.00    +0.000 OA
ENDBRANCH   4   6
BRANCH   1  15
ATOM     15  S   UNL     1       7.663   5.342  18.341  0.00  0.00    +0.000 S 
BRANCH  15  16
ATOM     16  C   UNL     1       7.446   4.811  16.634  0.00  0.00    +0.000 C 
BRANCH  16  17
ATOM     17  C   UNL     1       5.995   4.531  16.350  0.00  0.00    +0.000 C 
ATOM     18  O   UNL     1       5.553   4.101  15.294  0.00  0.00    +0.000 OA
BRANCH  17  19
ATOM     19  O   UNL     1       5.253   4.804  17.501  0.00  0.00    +0.000 OA
BRANCH  19  24
ATOM     20  C   UNL     1       3.317   2.742  19.907  0.00  0.00    +0.000 A 
ATOM     21  C   UNL     1       2.381   2.193  19.028  0.00  0.00    +0.000 A 
ATOM     22  C   UNL     1       2.474   2.429  17.654  0.00  0.00    +0.000 A 
ATOM     23  C   UNL     1       3.490   3.243  17.155  0.00  0.00    +0.000 A 
ATOM     24  C   UNL     1       4.399   3.820  18.041  0.00  0.00    +0.000 A 
ATOM     25  C   UNL     1       4.319   3.574  19.412  0.00  0.00    +0.000 A 
BRANCH  20  27
ATOM     26  C   UNL     1       1.987   3.059  21.834  0.00  0.00    +0.000 C 
ATOM     27  O   UNL     1       3.129   2.454  21.233  0.00  0.00    +0.000 OA
ENDBRANCH  20  27
ENDBRANCH  19  24
ENDBRANCH  17  19
ENDBRANCH  16  17
ENDBRANCH  15  16
ENDBRANCH   1  15
TORSDOF 7
ENDMDL
MODEL 4
REMARK VINA RESULT:      -7.4      3.999      9.752
REMARK  Name = 
REMARK  8 active torsions:
REMARK  status: ('A' for Active; 'I' for Inactive)
REMARK    1  A    between atoms: C_1  and  O_2
REMARK    2  A    between atoms: O_2  and  C_3
REMARK    3  A    between atoms: C_7  and  O_8
REMARK    4  A    between atoms: O_8  and  C_9
REMARK    5  A    between atoms: C_9  and  C_11
REMARK    6  A    between atoms: C_11  and  S_12
REMARK    7  A    between atoms: S_12  and  C_13
REMARK    8  A    between atoms: C_16  and  C_17
REMARK                            x       y       z     vdW  Elec       q    Type
REMARK                         _______ _______ _______ _____ _____    ______ ____
ROOT
ATOM      1  C   UNL     1       1.436   8.782  19.934  0.00  0.00    +0.000 A 
ATOM      2  N   UNL     1       1.371   7.865  20.879  0.00  0.00    +0.000 NA
ATOM      3  N   UNL     1       2.068   6.768  20.411  0.00  0.00    +0.000 NA
ATOM      4  C   UNL     1       2.509   7.094  19.213  0.00  0.00    +0.000 A 
ATOM      5  O   UNL     1       2.114   8.348  18.832  0.00  0.00    +0.000 OA
ENDROOT
BRANCH   4   6
ATOM      6  C   UNL     1       3.523   6.466  18.375  0.00  0.00    +0.000 A 
ATOM      7  C   UNL     1       3.849   6.988  17.098  0.00  0.00    +0.000 A 
ATOM      8  C   UNL     1       5.002   6.581  16.424  0.00  0.00    +0.000 A 
ATOM      9  C   UNL     1       5.825   5.687  17.072  0.00  0.00    +0.000 A 
ATOM     10  C   UNL     1       5.476   5.119  18.278  0.00  0.00    +0.000 A 
ATOM     11  C   UNL     1       4.313   5.449  18.933  0.00  0.00    +0.000 A 
ATOM     12  O   UNL     1       6.464   4.323  18.773  0.00  0.00    +0.000 OA
ATOM     13  C   UNL     1       7.547   4.729  17.914  0.00  0.00    +0.000 C 
ATOM     14  O   UNL     1       7.079   5.326  16.685  0.00  0.00    +0.000 OA
ENDBRANCH   4   6
BRANCH   1  15
ATOM     15  S   UNL     1       0.826  10.400  20.057  0.00  0.00    +0.000 S 
BRANCH  15  16
ATOM     16  C   UNL     1      -0.542  10.115  21.194  0.00  0.00    +0.000 C 
BRANCH  16  17
ATOM     17  C   UNL     1      -0.227  10.691  22.549  0.00  0.00    +0.000 C 
ATOM     18  O   UNL     1       0.106  10.042  23.530  0.00  0.00    +0.000 OA
BRANCH  17  19
ATOM     19  O   UNL     1      -0.341  12.081  22.482  0.00  0.00    +0.000 OA
BRANCH  19  24
ATOM     20  C   UNL     1      -3.688  12.684  23.973  0.00  0.00    +0.000 A 
ATOM     21  C   UNL     1      -3.456  13.938  24.542  0.00  0.00    +0.000 A 
ATOM     22  C   UNL     1      -2.243  14.600  24.331  0.00  0.00    +0.000 A 
ATOM     23  C   UNL     1      -1.243  13.994  23.573  0.00  0.00    +0.000 A 
ATOM     24  C   UNL     1      -1.464  12.725  23.040  0.00  0.00    +0.000 A 
ATOM     25  C   UNL     1      -2.680  12.068  23.234  0.00  0.00    +0.000 A 
BRANCH  20  27
ATOM     26  C   UNL     1      -6.036  12.846  23.770  0.00  0.00    +0.000 C 
ATOM     27  O   UNL     1      -4.906  12.121  24.248  0.00  0.00    +0.000 OA
ENDBRANCH  20  27
ENDBRANCH  19  24
ENDBRANCH  17  19
ENDBRANCH  16  17
ENDBRANCH  15  16
ENDBRANCH   1  15
TORSDOF 7
ENDMDL
MODEL 5
REMARK VINA RESULT:      -7.4      4.246      7.179
REMARK  Name = 
REMARK  8 active torsions:
REMARK  status: ('A' for Active; 'I' for Inactive)
REMARK    1  A    between atoms: C_1  and  O_2
REMARK    2  A    between atoms: O_2  and  C_3
REMARK    3  A    between atoms: C_7  and  O_8
REMARK    4  A    between atoms: O_8  and  C_9
REMARK    5  A    between atoms: C_9  and  C_11
REMARK    6  A    between atoms: C_11  and  S_12
REMARK    7  A    between atoms: S_12  and  C_13
REMARK    8  A    between atoms: C_16  and  C_17
REMARK                            x       y       z     vdW  Elec       q    Type
REMARK                         _______ _______ _______ _____ _____    ______ ____
ROOT
ATOM      1  C   UNL     1       7.880   7.093  18.343  0.00  0.00    +0.000 A 
ATOM      2  N   UNL     1       7.253   7.438  17.237  0.00  0.00    +0.000 NA
ATOM      3  N   UNL     1       7.436   8.799  17.089  0.00  0.00    +0.000 NA
ATOM      4  C   UNL     1       8.163   9.188  18.117  0.00  0.00    +0.000 A 
ATOM      5  O   UNL     1       8.452   8.160  18.973  0.00  0.00    +0.000 OA
ENDROOT
BRANCH   4   6
ATOM      6  C   UNL     1       8.897  10.427  18.341  0.00  0.00    +0.000 A 
ATOM      7  C   UNL     1       8.676  11.570  17.532  0.00  0.00    +0.000 A 
ATOM      8  C   UNL     1       9.146  12.828  17.914  0.00  0.00    +0.000 A 
ATOM      9  C   UNL     1       9.793  12.913  19.127  0.00  0.00    +0.000 A 
ATOM     10  C   UNL     1      10.077  11.797  19.881  0.00  0.00    +0.000 A 
ATOM     11  C   UNL     1       9.687  10.535  19.496  0.00  0.00    +0.000 A 
ATOM     12  O   UNL     1      10.655  12.116  21.073  0.00  0.00    +0.000 OA
ATOM     13  C   UNL     1      10.388  13.533  21.090  0.00  0.00    +0.000 C 
ATOM     14  O   UNL     1      10.142  14.062  19.769  0.00  0.00    +0.000 OA
ENDBRANCH   4   6
BRANCH   1  15
ATOM     15  S   UNL     1       8.066   5.473  18.932  0.00  0.00    +0.000 S 
BRANCH  15  16
ATOM     16  C   UNL     1       7.657   4.563  17.432  0.00  0.00    +0.000 C 
BRANCH  16  17
ATOM     17  C   UNL     1       6.177   4.302  17.363  0.00  0.00    +0.000 C 
ATOM     18  O   UNL     1       5.509   4.295  16.339  0.00  0.00    +0.000 OA
BRANCH  17  19
ATOM     19  O   UNL     1       5.709   4.032  18.651  0.00  0.00    +0.000 OA
BRANCH  19  24
ATOM     20  C   UNL     1       2.242   3.774  19.956  0.00  0.00    +0.000 A 
ATOM     21  C   UNL     1       1.951   5.135  20.085  0.00  0.00    +0.000 A 
ATOM     22  C   UNL     1       2.859   6.100  19.642  0.00  0.00    +0.000 A 
ATOM     23  C   UNL     1       4.078   5.708  19.093  0.00  0.00    +0.000 A 
ATOM     24  C   UNL     1       4.380   4.350  19.001  0.00  0.00    +0.000 A 
ATOM     25  C   UNL     1       3.470   3.382  19.428  0.00  0.00    +0.000 A 
BRANCH  20  27
ATOM     26  C   UNL     1       1.392   2.585  21.812  0.00  0.00    +0.000 C 
ATOM     27  O   UNL     1       1.287   2.914  20.428  0.00  0.00    +0.000 OA
ENDBRANCH  20  27
ENDBRANCH  19  24
ENDBRANCH  17  19
ENDBRANCH  16  17
ENDBRANCH  15  16
ENDBRANCH   1  15
TORSDOF 7
ENDMDL
MODEL 6
REMARK VINA RESULT:      -7.4      1.913      6.320
REMARK  Name = 
REMARK  8 active torsions:
REMARK  status: ('A' for Active; 'I' for Inactive)
REMARK    1  A    between atoms: C_1  and  O_2
REMARK    2  A    between atoms: O_2  and  C_3
REMARK    3  A    between atoms: C_7  and  O_8
REMARK    4  A    between atoms: O_8  and  C_9
REMARK    5  A    between atoms: C_9  and  C_11
REMARK    6  A    between atoms: C_11  and  S_12
REMARK    7  A    between atoms: S_12  and  C_13
REMARK    8  A    between atoms: C_16  and  C_17
REMARK                            x       y       z     vdW  Elec       q    Type
REMARK                         _______ _______ _______ _____ _____    ______ ____
ROOT
ATOM      1  C   UNL     1       2.214   2.492  18.786  0.00  0.00    +0.000 A 
ATOM      2  N   UNL     1       3.126   1.604  19.124  0.00  0.00    +0.000 NA
ATOM      3  N   UNL     1       4.261   1.911  18.399  0.00  0.00    +0.000 NA
ATOM      4  C   UNL     1       3.960   2.965  17.669  0.00  0.00    +0.000 A 
ATOM      5  O   UNL     1       2.663   3.367  17.839  0.00  0.00    +0.000 OA
ENDROOT
BRANCH   4   6
ATOM      6  C   UNL     1       4.821   3.890  16.943  0.00  0.00    +0.000 A 
ATOM      7  C   UNL     1       5.807   4.658  17.613  0.00  0.00    +0.000 A 
ATOM      8  C   UNL     1       6.816   5.313  16.906  0.00  0.00    +0.000 A 
ATOM      9  C   UNL     1       6.837   5.143  15.540  0.00  0.00    +0.000 A 
ATOM     10  C   UNL     1       5.841   4.461  14.876  0.00  0.00    +0.000 A 
ATOM     11  C   UNL     1       4.795   3.864  15.539  0.00  0.00    +0.000 A 
ATOM     12  O   UNL     1       6.097   4.351  13.542  0.00  0.00    +0.000 OA
ATOM     13  C   UNL     1       7.483   4.745  13.535  0.00  0.00    +0.000 C 
ATOM     14  O   UNL     1       7.840   5.521  14.700  0.00  0.00    +0.000 OA
ENDBRANCH   4   6
BRANCH   1  15
ATOM     15  S   UNL     1       0.637   2.636  19.492  0.00  0.00    +0.000 S 
BRANCH  15  16
ATOM     16  C   UNL     1       0.806   4.253  20.269  0.00  0.00    +0.000 C 
BRANCH  16  17
ATOM     17  C   UNL     1       2.028   4.289  21.146  0.00  0.00    +0.000 C 
ATOM     18  O   UNL     1       2.233   3.550  22.099  0.00  0.00    +0.000 OA
BRANCH  17  19
ATOM     19  O   UNL     1       2.895   5.272  20.666  0.00  0.00    +0.000 OA
BRANCH  19  24
ATOM     20  C   UNL     1       1.210   8.494  19.912  0.00  0.00    +0.000 A 
ATOM     21  C   UNL     1       1.797   8.767  18.673  0.00  0.00    +0.000 A 
ATOM     22  C   UNL     1       2.648   7.838  18.070  0.00  0.00    +0.000 A 
ATOM     23  C   UNL     1       2.940   6.639  18.719  0.00  0.00    +0.000 A 
ATOM     24  C   UNL     1       2.384   6.387  19.972  0.00  0.00    +0.000 A 
ATOM     25  C   UNL     1       1.520   7.306  20.570  0.00  0.00    +0.000 A 
BRANCH  20  27
ATOM     26  C   UNL     1       1.048  10.439  21.243  0.00  0.00    +0.000 C 
ATOM     27  O   UNL     1       0.399   9.475  20.416  0.00  0.00    +0.000 OA
ENDBRANCH  20  27
ENDBRANCH  19  24
ENDBRANCH  17  19
ENDBRANCH  16  17
ENDBRANCH  15  16
ENDBRANCH   1  15
TORSDOF 7
ENDMDL
MODEL 7
REMARK VINA RESULT:      -7.4      3.515      8.572
REMARK  Name = 
REMARK  8 active torsions:
REMARK  status: ('A' for Active; 'I' for Inactive)
REMARK    1  A    between atoms: C_1  and  O_2
REMARK    2  A    between atoms: O_2  and  C_3
REMARK    3  A    between atoms: C_7  and  O_8
REMARK    4  A    between atoms: O_8  and  C_9
REMARK    5  A    between atoms: C_9  and  C_11
REMARK    6  A    between atoms: C_11  and  S_12
REMARK    7  A    between atoms: S_12  and  C_13
REMARK    8  A    between atoms: C_16  and  C_17
REMARK                            x       y       z     vdW  Elec       q    Type
REMARK                         _______ _______ _______ _____ _____    ______ ____
ROOT
ATOM      1  C   UNL     1       1.447   9.125  19.302  0.00  0.00    +0.000 A 
ATOM      2  N   UNL     1       1.771   9.751  18.188  0.00  0.00    +0.000 NA
ATOM      3  N   UNL     1       2.471   8.844  17.417  0.00  0.00    +0.000 NA
ATOM      4  C   UNL     1       2.526   7.729  18.116  0.00  0.00    +0.000 A 
ATOM      5  O   UNL     1       1.925   7.848  19.340  0.00  0.00    +0.000 OA
ENDROOT
BRANCH   4   6
ATOM      6  C   UNL     1       2.875   6.373  17.709  0.00  0.00    +0.000 A 
ATOM      7  C   UNL     1       4.188   6.047  17.288  0.00  0.00    +0.000 A 
ATOM      8  C   UNL     1       4.604   4.719  17.179  0.00  0.00    +0.000 A 
ATOM      9  C   UNL     1       3.697   3.747  17.541  0.00  0.00    +0.000 A 
ATOM     10  C   UNL     1       2.398   4.054  17.879  0.00  0.00    +0.000 A 
ATOM     11  C   UNL     1       1.940   5.349  17.926  0.00  0.00    +0.000 A 
ATOM     12  O   UNL     1       1.697   2.953  18.271  0.00  0.00    +0.000 OA
ATOM     13  C   UNL     1       2.790   2.028  18.444  0.00  0.00    +0.000 C 
ATOM     14  O   UNL     1       3.965   2.422  17.703  0.00  0.00    +0.000 OA
ENDBRANCH   4   6
BRANCH   1  15
ATOM     15  S   UNL     1       0.456   9.772  20.570  0.00  0.00    +0.000 S 
BRANCH  15  16
ATOM     16  C   UNL     1       0.913  11.510  20.446  0.00  0.00    +0.000 C 
BRANCH  16  17
ATOM     17  C   UNL     1      -0.123  12.272  19.665  0.00  0.00    +0.000 C 
ATOM     18  O   UNL     1       0.100  13.248  18.964  0.00  0.00    +0.000 OA
BRANCH  17  19
ATOM     19  O   UNL     1      -1.362  11.654  19.844  0.00  0.00    +0.000 OA
BRANCH  19  24
ATOM     20  C   UNL     1      -2.884  10.462  16.673  0.00  0.00    +0.000 A 
ATOM     21  C   UNL     1      -4.192  10.908  16.873  0.00  0.00    +0.000 A 
ATOM     22  C   UNL     1      -4.517  11.680  17.991  0.00  0.00    +0.000 A 
ATOM     23  C   UNL     1      -3.536  11.984  18.934  0.00  0.00    +0.000 A 
ATOM     24  C   UNL     1      -2.241  11.504  18.751  0.00  0.00    +0.000 A 
ATOM     25  C   UNL     1      -1.909  10.747  17.626  0.00  0.00    +0.000 A 
BRANCH  20  27
ATOM     26  C   UNL     1      -3.408  10.114  14.396  0.00  0.00    +0.000 C 
ATOM     27  O   UNL     1      -2.676   9.707  15.550  0.00  0.00    +0.000 OA
ENDBRANCH  20  27
ENDBRANCH  19  24
ENDBRANCH  17  19
ENDBRANCH  16  17
ENDBRANCH  15  16
ENDBRANCH   1  15
TORSDOF 7
ENDMDL
MODEL 8
REMARK VINA RESULT:      -7.4      3.975      8.968
REMARK  Name = 
REMARK  8 active torsions:
REMARK  status: ('A' for Active; 'I' for Inactive)
REMARK    1  A    between atoms: C_1  and  O_2
REMARK    2  A    between atoms: O_2  and  C_3
REMARK    3  A    between atoms: C_7  and  O_8
REMARK    4  A    between atoms: O_8  and  C_9
REMARK    5  A    between atoms: C_9  and  C_11
REMARK    6  A    between atoms: C_11  and  S_12
REMARK    7  A    between atoms: S_12  and  C_13
REMARK    8  A    between atoms: C_16  and  C_17
REMARK                            x       y       z     vdW  Elec       q    Type
REMARK                         _______ _______ _______ _____ _____    ______ ____
ROOT
ATOM      1  C   UNL     1       1.703   9.850  18.683  0.00  0.00    +0.000 A 
ATOM      2  N   UNL     1       2.065   9.622  17.436  0.00  0.00    +0.000 NA
ATOM      3  N   UNL     1       2.450   8.297  17.375  0.00  0.00    +0.000 NA
ATOM      4  C   UNL     1       2.296   7.811  18.590  0.00  0.00    +0.000 A 
ATOM      5  O   UNL     1       1.857   8.753  19.480  0.00  0.00    +0.000 OA
ENDROOT
BRANCH   4   6
ATOM      6  C   UNL     1       2.266   6.431  19.059  0.00  0.00    +0.000 A 
ATOM      7  C   UNL     1       2.071   6.124  20.429  0.00  0.00    +0.000 A 
ATOM      8  C   UNL     1       1.751   4.829  20.842  0.00  0.00    +0.000 A 
ATOM      9  C   UNL     1       1.591   3.880  19.857  0.00  0.00    +0.000 A 
ATOM     10  C   UNL     1       1.852   4.153  18.533  0.00  0.00    +0.000 A 
ATOM     11  C   UNL     1       2.237   5.402  18.105  0.00  0.00    +0.000 A 
ATOM     12  O   UNL     1       1.559   3.096  17.725  0.00  0.00    +0.000 OA
ATOM     13  C   UNL     1       0.800   2.294  18.651  0.00  0.00    +0.000 C 
ATOM     14  O   UNL     1       1.086   2.626  20.027  0.00  0.00    +0.000 OA
ENDBRANCH   4   6
BRANCH   1  15
ATOM     15  S   UNL     1       1.019  11.328  19.279  0.00  0.00    +0.000 S 
BRANCH  15  16
ATOM     16  C   UNL     1      -0.318  10.653  20.279  0.00  0.00    +0.000 C 
BRANCH  16  17
ATOM     17  C   UNL     1      -1.415  11.669  20.444  0.00  0.00    +0.000 C 
ATOM     18  O   UNL     1      -1.973  11.939  21.499  0.00  0.00    +0.000 OA
BRANCH  17  19
ATOM     19  O   UNL     1      -1.656  12.273  19.209  0.00  0.00    +0.000 OA
BRANCH  19  24
ATOM     20  C   UNL     1      -4.846  11.354  17.545  0.00  0.00    +0.000 A 
ATOM     21  C   UNL     1      -4.345  10.969  16.300  0.00  0.00    +0.000 A 
ATOM     22  C   UNL     1      -2.967  10.919  16.073  0.00  0.00    +0.000 A 
ATOM     23  C   UNL     1      -2.082  11.285  17.087  0.00  0.00    +0.000 A 
ATOM     24  C   UNL     1      -2.588  11.706  18.315  0.00  0.00    +0.000 A 
ATOM     25  C   UNL     1      -3.963  11.742  18.550  0.00  0.00    +0.000 A 
BRANCH  20  27
ATOM     26  C   UNL     1      -6.746  10.621  18.742  0.00  0.00    +0.000 C 
ATOM     27  O   UNL     1      -6.211  11.375  17.658  0.00  0.00    +0.000 OA
ENDBRANCH  20  27
ENDBRANCH  19  24
ENDBRANCH  17  19
ENDBRANCH  16  17
ENDBRANCH  15  16
ENDBRANCH   1  15
TORSDOF 7
ENDMDL
MODEL 9
REMARK VINA RESULT:      -7.3      3.949      9.615
REMARK  Name = 
REMARK  8 active torsions:
REMARK  status: ('A' for Active; 'I' for Inactive)
REMARK    1  A    between atoms: C_1  and  O_2
REMARK    2  A    between atoms: O_2  and  C_3
REMARK    3  A    between atoms: C_7  and  O_8
REMARK    4  A    between atoms: O_8  and  C_9
REMARK    5  A    between atoms: C_9  and  C_11
REMARK    6  A    between atoms: C_11  and  S_12
REMARK    7  A    between atoms: S_12  and  C_13
REMARK    8  A    between atoms: C_16  and  C_17
REMARK                            x       y       z     vdW  Elec       q    Type
REMARK                         _______ _______ _______ _____ _____    ______ ____
ROOT
ATOM      1  C   UNL     1       1.191   9.574  18.785  0.00  0.00    +0.000 A 
ATOM      2  N   UNL     1       1.774   9.594  17.604  0.00  0.00    +0.000 NA
ATOM      3  N   UNL     1       2.531   8.441  17.520  0.00  0.00    +0.000 NA
ATOM      4  C   UNL     1       2.355   7.800  18.658  0.00  0.00    +0.000 A 
ATOM      5  O   UNL     1       1.542   8.481  19.523  0.00  0.00    +0.000 OA
ENDROOT
BRANCH   4   6
ATOM      6  C   UNL     1       2.660   6.423  19.024  0.00  0.00    +0.000 A 
ATOM      7  C   UNL     1       2.115   5.834  20.193  0.00  0.00    +0.000 A 
ATOM      8  C   UNL     1       2.160   4.454  20.396  0.00  0.00    +0.000 A 
ATOM      9  C   UNL     1       2.714   3.691  19.392  0.00  0.00    +0.000 A 
ATOM     10  C   UNL     1       3.312   4.260  18.290  0.00  0.00    +0.000 A 
ATOM     11  C   UNL     1       3.345   5.622  18.097  0.00  0.00    +0.000 A 
ATOM     12  O   UNL     1       3.728   3.325  17.392  0.00  0.00    +0.000 OA
ATOM     13  C   UNL     1       3.033   2.174  17.912  0.00  0.00    +0.000 C 
ATOM     14  O   UNL     1       2.670   2.333  19.301  0.00  0.00    +0.000 OA
ENDBRANCH   4   6
BRANCH   1  15
ATOM     15  S   UNL     1       0.033  10.732  19.356  0.00  0.00    +0.000 S 
BRANCH  15  16
ATOM     16  C   UNL     1       0.732  11.073  20.981  0.00  0.00    +0.000 C 
BRANCH  16  17
ATOM     17  C   UNL     1      -0.099  10.428  22.057  0.00  0.00    +0.000 C 
ATOM     18  O   UNL     1      -0.514   9.278  22.032  0.00  0.00    +0.000 OA
BRANCH  17  19
ATOM     19  O   UNL     1      -0.276  11.344  23.095  0.00  0.00    +0.000 OA
BRANCH  19  24
ATOM     20  C   UNL     1      -3.686  12.796  23.332  0.00  0.00    +0.000 A 
ATOM     21  C   UNL     1      -3.347  14.148  23.418  0.00  0.00    +0.000 A 
ATOM     22  C   UNL     1      -2.017  14.556  23.290  0.00  0.00    +0.000 A 
ATOM     23  C   UNL     1      -1.013  13.607  23.104  0.00  0.00    +0.000 A 
ATOM     24  C   UNL     1      -1.351  12.256  23.057  0.00  0.00    +0.000 A 
ATOM     25  C   UNL     1      -2.681  11.845  23.168  0.00  0.00    +0.000 A 
BRANCH  20  27
ATOM     26  C   UNL     1      -5.867  13.000  22.447  0.00  0.00    +0.000 C 
ATOM     27  O   UNL     1      -5.016  12.504  23.478  0.00  0.00    +0.000 OA
ENDBRANCH  20  27
ENDBRANCH  19  24
ENDBRANCH  17  19
ENDBRANCH  16  17
ENDBRANCH  15  16
ENDBRANCH   1  15
TORSDOF 7
ENDMDL
