MODEL 1
REMARK VINA RESULT:      -8.8      0.000      0.000
REMARK  Name = 
REMARK  5 active torsions:
REMARK  status: ('A' for Active; 'I' for Inactive)
REMARK    1  A    between atoms: C_2  and  C_4
REMARK    2  A    between atoms: C_9  and  O_10
REMARK    3  A    between atoms: O_10  and  C_11
REMARK    4  A    between atoms: C_11  and  C_12
REMARK    5  A    between atoms: C_14  and  C_15
REMARK                            x       y       z     vdW  Elec       q    Type
REMARK                         _______ _______ _______ _____ _____    ______ ____
ROOT
ATOM      1  O   UNL     1       6.192   5.421  19.210  0.00  0.00    +0.000 OA
ENDROOT
BRANCH   1   7
ATOM      2  C   UNL     1       2.959   3.762  18.722  0.00  0.00    +0.000 A 
ATOM      3  C   UNL     1       2.243   4.758  18.057  0.00  0.00    +0.000 A 
ATOM      4  F   UNL     1       0.972   4.579  17.672  0.00  0.00    +0.000 F 
ATOM      5  C   UNL     1       2.825   5.991  17.764  0.00  0.00    +0.000 A 
ATOM      6  C   UNL     1       4.146   6.251  18.131  0.00  0.00    +0.000 A 
ATOM      7  C   UNL     1       4.889   5.273  18.795  0.00  0.00    +0.000 A 
ATOM      8  C   UNL     1       4.285   4.035  19.082  0.00  0.00    +0.000 A 
ATOM      9  F   UNL     1       5.018   3.106  19.721  0.00  0.00    +0.000 F 
BRANCH   2  11
ATOM     10  N   UNL     1       2.526   1.411  18.196  0.00  0.00    +0.000 N 
ATOM     11  C   UNL     1       2.292   2.470  19.026  0.00  0.00    +0.000 C 
ATOM     12  O   UNL     1       1.546   2.323  19.988  0.00  0.00    +0.000 OA
ATOM     13  H   UNL     1       2.070   0.535  18.413  0.00  0.00    +0.000 HD
ATOM     14  H   UNL     1       3.127   1.458  17.383  0.00  0.00    +0.000 HD
ENDBRANCH   2  11
ENDBRANCH   1   7
BRANCH   1  15
ATOM     15  C   UNL     1       7.181   5.488  18.181  0.00  0.00    +0.000 C 
BRANCH  15  16
ATOM     16  C   UNL     1       7.673   6.880  18.104  0.00  0.00    +0.000 A 
ATOM     17  C   UNL     1       8.480   7.655  18.900  0.00  0.00    +0.000 A 
ATOM     18  C   UNL     1       8.449   8.946  18.310  0.00  0.00    +0.000 A 
ATOM     19  N   UNL     1       7.667   8.937  17.219  0.00  0.00    +0.000 NA
ATOM     20  O   UNL     1       7.197   7.644  17.086  0.00  0.00    +0.000 OA
BRANCH  18  21
ATOM     21  C   UNL     1       9.123  10.159  18.771  0.00  0.00    +0.000 A 
ATOM     22  C   UNL     1       9.299  10.407  20.140  0.00  0.00    +0.000 A 
ATOM     23  C   UNL     1       9.952  11.565  20.575  0.00  0.00    +0.000 A 
ATOM     24  C   UNL     1      10.431  12.493  19.646  0.00  0.00    +0.000 A 
ATOM     25 CL   UNL     1      11.223  13.904  20.249  0.00  0.00    +0.000 Cl
ATOM     26  C   UNL     1      10.256  12.256  18.279  0.00  0.00    +0.000 A 
ATOM     27 CL   UNL     1      10.810  13.359  17.069  0.00  0.00    +0.000 Cl
ATOM     28  C   UNL     1       9.609  11.093  17.846  0.00  0.00    +0.000 A 
ENDBRANCH  18  21
ENDBRANCH  15  16
ENDBRANCH   1  15
TORSDOF 5
ENDMDL
MODEL 2
REMARK VINA RESULT:      -8.5      0.633      1.409
REMARK  Name = 
REMARK  5 active torsions:
REMARK  status: ('A' for Active; 'I' for Inactive)
REMARK    1  A    between atoms: C_2  and  C_4
REMARK    2  A    between atoms: C_9  and  O_10
REMARK    3  A    between atoms: O_10  and  C_11
REMARK    4  A    between atoms: C_11  and  C_12
REMARK    5  A    between atoms: C_14  and  C_15
REMARK                            x       y       z     vdW  Elec       q    Type
REMARK                         _______ _______ _______ _____ _____    ______ ____
ROOT
ATOM      1  O   UNL     1       6.229   5.518  19.286  0.00  0.00    +0.000 OA
ENDROOT
BRANCH   1   7
ATOM      2  C   UNL     1       3.049   3.780  18.731  0.00  0.00    +0.000 A 
ATOM      3  C   UNL     1       2.321   4.761  18.054  0.00  0.00    +0.000 A 
ATOM      4  F   UNL     1       1.063   4.550  17.644  0.00  0.00    +0.000 F 
ATOM      5  C   UNL     1       2.878   6.008  17.775  0.00  0.00    +0.000 A 
ATOM      6  C   UNL     1       4.184   6.300  18.169  0.00  0.00    +0.000 A 
ATOM      7  C   UNL     1       4.938   5.339  18.845  0.00  0.00    +0.000 A 
ATOM      8  C   UNL     1       4.360   4.085  19.118  0.00  0.00    +0.000 A 
ATOM      9  F   UNL     1       5.103   3.174  19.769  0.00  0.00    +0.000 F 
BRANCH   2  11
ATOM     10  N   UNL     1       2.643   1.434  18.161  0.00  0.00    +0.000 N 
ATOM     11  C   UNL     1       2.408   2.471  19.019  0.00  0.00    +0.000 C 
ATOM     12  O   UNL     1       1.684   2.292  19.992  0.00  0.00    +0.000 OA
ATOM     13  H   UNL     1       2.205   0.547  18.367  0.00  0.00    +0.000 HD
ATOM     14  H   UNL     1       3.227   1.509  17.338  0.00  0.00    +0.000 HD
ENDBRANCH   2  11
ENDBRANCH   1   7
BRANCH   1  15
ATOM     15  C   UNL     1       7.243   5.558  18.281  0.00  0.00    +0.000 C 
BRANCH  15  16
ATOM     16  C   UNL     1       7.729   6.950  18.171  0.00  0.00    +0.000 A 
ATOM     17  C   UNL     1       8.553   7.739  18.937  0.00  0.00    +0.000 A 
ATOM     18  C   UNL     1       8.504   9.021  18.328  0.00  0.00    +0.000 A 
ATOM     19  N   UNL     1       7.698   8.993  17.256  0.00  0.00    +0.000 NA
ATOM     20  O   UNL     1       7.228   7.698  17.153  0.00  0.00    +0.000 OA
BRANCH  18  21
ATOM     21  C   UNL     1       9.186  10.242  18.755  0.00  0.00    +0.000 A 
ATOM     22  C   UNL     1       9.973  10.978  17.857  0.00  0.00    +0.000 A 
ATOM     23  C   UNL     1      10.616  12.150  18.270  0.00  0.00    +0.000 A 
ATOM     24  C   UNL     1      10.487  12.596  19.587  0.00  0.00    +0.000 A 
ATOM     25 CL   UNL     1      11.310  14.047  20.033  0.00  0.00    +0.000 Cl
ATOM     26  C   UNL     1       9.707  11.867  20.491  0.00  0.00    +0.000 A 
ATOM     27 CL   UNL     1       9.505  12.348  22.139  0.00  0.00    +0.000 Cl
ATOM     28  C   UNL     1       9.059  10.699  20.074  0.00  0.00    +0.000 A 
ENDBRANCH  18  21
ENDBRANCH  15  16
ENDBRANCH   1  15
TORSDOF 5
ENDMDL
MODEL 3
REMARK VINA RESULT:      -8.2      1.040      1.040
REMARK  Name = 
REMARK  5 active torsions:
REMARK  status: ('A' for Active; 'I' for Inactive)
REMARK    1  A    between atoms: C_2  and  C_4
REMARK    2  A    between atoms: C_9  and  O_10
REMARK    3  A    between atoms: O_10  and  C_11
REMARK    4  A    between atoms: C_11  and  C_12
REMARK    5  A    between atoms: C_14  and  C_15
REMARK                            x       y       z     vdW  Elec       q    Type
REMARK                         _______ _______ _______ _____ _____    ______ ____
ROOT
ATOM      1  O   UNL     1       5.638   5.263  17.229  0.00  0.00    +0.000 OA
ENDROOT
BRANCH   1   7
ATOM      2  C   UNL     1       2.931   3.990  19.348  0.00  0.00    +0.000 A 
ATOM      3  C   UNL     1       2.281   5.176  19.695  0.00  0.00    +0.000 A 
ATOM      4  F   UNL     1       1.199   5.184  20.486  0.00  0.00    +0.000 F 
ATOM      5  C   UNL     1       2.734   6.409  19.229  0.00  0.00    +0.000 A 
ATOM      6  C   UNL     1       3.854   6.481  18.400  0.00  0.00    +0.000 A 
ATOM      7  C   UNL     1       4.524   5.312  18.033  0.00  0.00    +0.000 A 
ATOM      8  C   UNL     1       4.052   4.076  18.512  0.00  0.00    +0.000 A 
ATOM      9  F   UNL     1       4.711   2.962  18.146  0.00  0.00    +0.000 F 
BRANCH   2  11
ATOM     10  N   UNL     1       1.870   1.812  19.001  0.00  0.00    +0.000 N 
ATOM     11  C   UNL     1       2.421   2.700  19.880  0.00  0.00    +0.000 C 
ATOM     12  O   UNL     1       2.478   2.409  21.070  0.00  0.00    +0.000 OA
ATOM     13  H   UNL     1       1.528   0.936  19.373  0.00  0.00    +0.000 HD
ATOM     14  H   UNL     1       1.787   1.984  18.007  0.00  0.00    +0.000 HD
ENDBRANCH   2  11
ENDBRANCH   1   7
BRANCH   1  15
ATOM     15  C   UNL     1       6.902   5.286  17.894  0.00  0.00    +0.000 C 
BRANCH  15  16
ATOM     16  C   UNL     1       7.410   6.674  17.874  0.00  0.00    +0.000 A 
ATOM     17  C   UNL     1       8.277   7.387  18.667  0.00  0.00    +0.000 A 
ATOM     18  C   UNL     1       8.230   8.714  18.162  0.00  0.00    +0.000 A 
ATOM     19  N   UNL     1       7.383   8.783  17.123  0.00  0.00    +0.000 NA
ATOM     20  O   UNL     1       6.886   7.507  16.938  0.00  0.00    +0.000 OA
BRANCH  18  21
ATOM     21  C   UNL     1       8.949   9.886  18.656  0.00  0.00    +0.000 A 
ATOM     22  C   UNL     1       9.126  10.095  20.031  0.00  0.00    +0.000 A 
ATOM     23  C   UNL     1       9.822  11.215  20.498  0.00  0.00    +0.000 A 
ATOM     24  C   UNL     1      10.345  12.144  19.595  0.00  0.00    +0.000 A 
ATOM     25 CL   UNL     1      11.190  13.506  20.236  0.00  0.00    +0.000 Cl
ATOM     26  C   UNL     1      10.171  11.946  18.222  0.00  0.00    +0.000 A 
ATOM     27 CL   UNL     1      10.779  13.054  17.041  0.00  0.00    +0.000 Cl
ATOM     28  C   UNL     1       9.480  10.822  17.757  0.00  0.00    +0.000 A 
ENDBRANCH  18  21
ENDBRANCH  15  16
ENDBRANCH   1  15
TORSDOF 5
ENDMDL
MODEL 4
REMARK VINA RESULT:      -8.0      5.511      9.969
REMARK  Name = 
REMARK  5 active torsions:
REMARK  status: ('A' for Active; 'I' for Inactive)
REMARK    1  A    between atoms: C_2  and  C_4
REMARK    2  A    between atoms: C_9  and  O_10
REMARK    3  A    between atoms: O_10  and  C_11
REMARK    4  A    between atoms: C_11  and  C_12
REMARK    5  A    between atoms: C_14  and  C_15
REMARK                            x       y       z     vdW  Elec       q    Type
REMARK                         _______ _______ _______ _____ _____    ______ ____
ROOT
ATOM      1  O   UNL     1       8.052   9.983  18.334  0.00  0.00    +0.000 OA
ENDROOT
BRANCH   1   7
ATOM      2  C   UNL     1      10.135  12.999  18.348  0.00  0.00    +0.000 A 
ATOM      3  C   UNL     1      10.995  12.728  19.414  0.00  0.00    +0.000 A 
ATOM      4  F   UNL     1      11.951  13.589  19.788  0.00  0.00    +0.000 F 
ATOM      5  C   UNL     1      10.891  11.542  20.139  0.00  0.00    +0.000 A 
ATOM      6  C   UNL     1       9.920  10.596  19.808  0.00  0.00    +0.000 A 
ATOM      7  C   UNL     1       9.048  10.837  18.744  0.00  0.00    +0.000 A 
ATOM      8  C   UNL     1       9.168  12.040  18.023  0.00  0.00    +0.000 A 
ATOM      9  F   UNL     1       8.319  12.252  17.002  0.00  0.00    +0.000 F 
BRANCH   2  11
ATOM     10  N   UNL     1      10.983  14.287  16.446  0.00  0.00    +0.000 N 
ATOM     11  C   UNL     1      10.273  14.284  17.614  0.00  0.00    +0.000 C 
ATOM     12  O   UNL     1       9.776  15.329  18.016  0.00  0.00    +0.000 OA
ATOM     13  H   UNL     1      11.069  15.166  15.953  0.00  0.00    +0.000 HD
ATOM     14  H   UNL     1      11.423  13.464  16.055  0.00  0.00    +0.000 HD
ENDBRANCH   2  11
ENDBRANCH   1   7
BRANCH   1  15
ATOM     15  C   UNL     1       8.446   8.922  17.461  0.00  0.00    +0.000 C 
BRANCH  15  16
ATOM     16  C   UNL     1       7.658   7.720  17.809  0.00  0.00    +0.000 A 
ATOM     17  C   UNL     1       6.405   7.268  17.473  0.00  0.00    +0.000 A 
ATOM     18  C   UNL     1       6.215   6.098  18.256  0.00  0.00    +0.000 A 
ATOM     19  N   UNL     1       7.299   5.867  19.013  0.00  0.00    +0.000 NA
ATOM     20  O   UNL     1       8.201   6.872  18.721  0.00  0.00    +0.000 OA
BRANCH  18  21
ATOM     21  C   UNL     1       5.038   5.232  18.302  0.00  0.00    +0.000 A 
ATOM     22  C   UNL     1       4.767   4.333  17.260  0.00  0.00    +0.000 A 
ATOM     23  C   UNL     1       3.643   3.501  17.313  0.00  0.00    +0.000 A 
ATOM     24  C   UNL     1       2.773   3.563  18.404  0.00  0.00    +0.000 A 
ATOM     25 CL   UNL     1       1.402   2.513  18.406  0.00  0.00    +0.000 Cl
ATOM     26  C   UNL     1       3.034   4.459  19.446  0.00  0.00    +0.000 A 
ATOM     27 CL   UNL     1       2.001   4.603  20.825  0.00  0.00    +0.000 Cl
ATOM     28  C   UNL     1       4.162   5.285  19.394  0.00  0.00    +0.000 A 
ENDBRANCH  18  21
ENDBRANCH  15  16
ENDBRANCH   1  15
TORSDOF 5
ENDMDL
MODEL 5
REMARK VINA RESULT:      -7.9      7.487      9.495
REMARK  Name = 
REMARK  5 active torsions:
REMARK  status: ('A' for Active; 'I' for Inactive)
REMARK    1  A    between atoms: C_2  and  C_4
REMARK    2  A    between atoms: C_9  and  O_10
REMARK    3  A    between atoms: O_10  and  C_11
REMARK    4  A    between atoms: C_11  and  C_12
REMARK    5  A    between atoms: C_14  and  C_15
REMARK                            x       y       z     vdW  Elec       q    Type
REMARK                         _______ _______ _______ _____ _____    ______ ____
ROOT
ATOM      1  O   UNL     1      -1.219  10.353  19.162  0.00  0.00    +0.000 OA
ENDROOT
BRANCH   1   7
ATOM      2  C   UNL     1      -4.188  11.081  17.138  0.00  0.00    +0.000 A 
ATOM      3  C   UNL     1      -3.821  10.525  15.912  0.00  0.00    +0.000 A 
ATOM      4  F   UNL     1      -4.633  10.563  14.847  0.00  0.00    +0.000 F 
ATOM      5  C   UNL     1      -2.585   9.902  15.744  0.00  0.00    +0.000 A 
ATOM      6  C   UNL     1      -1.686   9.822  16.808  0.00  0.00    +0.000 A 
ATOM      7  C   UNL     1      -2.025  10.367  18.048  0.00  0.00    +0.000 A 
ATOM      8  C   UNL     1      -3.278  10.990  18.199  0.00  0.00    +0.000 A 
ATOM      9  F   UNL     1      -3.586  11.508  19.402  0.00  0.00    +0.000 F 
BRANCH   2  11
ATOM     10  N   UNL     1      -6.523  11.061  17.873  0.00  0.00    +0.000 N 
ATOM     11  C   UNL     1      -5.510  11.747  17.266  0.00  0.00    +0.000 C 
ATOM     12  O   UNL     1      -5.719  12.881  16.850  0.00  0.00    +0.000 OA
ATOM     13  H   UNL     1      -7.418  11.524  17.957  0.00  0.00    +0.000 HD
ATOM     14  H   UNL     1      -6.425  10.122  18.238  0.00  0.00    +0.000 HD
ENDBRANCH   2  11
ENDBRANCH   1   7
BRANCH   1  15
ATOM     15  C   UNL     1       0.121  10.812  18.980  0.00  0.00    +0.000 C 
BRANCH  15  16
ATOM     16  C   UNL     1       1.012   9.633  18.937  0.00  0.00    +0.000 A 
ATOM     17  C   UNL     1       1.702   8.992  17.936  0.00  0.00    +0.000 A 
ATOM     18  C   UNL     1       2.268   7.846  18.556  0.00  0.00    +0.000 A 
ATOM     19  N   UNL     1       1.934   7.812  19.855  0.00  0.00    +0.000 NA
ATOM     20  O   UNL     1       1.164   8.934  20.092  0.00  0.00    +0.000 OA
BRANCH  18  21
ATOM     21  C   UNL     1       3.085   6.804  17.936  0.00  0.00    +0.000 A 
ATOM     22  C   UNL     1       4.258   7.130  17.241  0.00  0.00    +0.000 A 
ATOM     23  C   UNL     1       5.041   6.128  16.657  0.00  0.00    +0.000 A 
ATOM     24  C   UNL     1       4.656   4.789  16.755  0.00  0.00    +0.000 A 
ATOM     25 CL   UNL     1       5.663   3.602  16.008  0.00  0.00    +0.000 Cl
ATOM     26  C   UNL     1       3.485   4.455  17.443  0.00  0.00    +0.000 A 
ATOM     27 CL   UNL     1       2.936   2.823  17.601  0.00  0.00    +0.000 Cl
ATOM     28  C   UNL     1       2.708   5.458  18.032  0.00  0.00    +0.000 A 
ENDBRANCH  18  21
ENDBRANCH  15  16
ENDBRANCH   1  15
TORSDOF 5
ENDMDL
MODEL 6
REMARK VINA RESULT:      -7.8      5.991      7.042
REMARK  Name = 
REMARK  5 active torsions:
REMARK  status: ('A' for Active; 'I' for Inactive)
REMARK    1  A    between atoms: C_2  and  C_4
REMARK    2  A    between atoms: C_9  and  O_10
REMARK    3  A    between atoms: O_10  and  C_11
REMARK    4  A    between atoms: C_11  and  C_12
REMARK    5  A    between atoms: C_14  and  C_15
REMARK                            x       y       z     vdW  Elec       q    Type
REMARK                         _______ _______ _______ _____ _____    ______ ____
ROOT
ATOM      1  O   UNL     1       2.071   5.579  17.905  0.00  0.00    +0.000 OA
ENDROOT
BRANCH   1   7
ATOM      2  C   UNL     1       3.339   2.758  19.871  0.00  0.00    +0.000 A 
ATOM      3  C   UNL     1       2.506   2.813  20.991  0.00  0.00    +0.000 A 
ATOM      4  F   UNL     1       2.620   1.940  22.000  0.00  0.00    +0.000 F 
ATOM      5  C   UNL     1       1.516   3.788  21.103  0.00  0.00    +0.000 A 
ATOM      6  C   UNL     1       1.336   4.731  20.091  0.00  0.00    +0.000 A 
ATOM      7  C   UNL     1       2.152   4.699  18.958  0.00  0.00    +0.000 A 
ATOM      8  C   UNL     1       3.146   3.708  18.861  0.00  0.00    +0.000 A 
ATOM      9  F   UNL     1       3.920   3.694  17.762  0.00  0.00    +0.000 F 
BRANCH   2  11
ATOM     10  N   UNL     1       4.329   0.799  18.786  0.00  0.00    +0.000 N 
ATOM     11  C   UNL     1       4.391   1.711  19.802  0.00  0.00    +0.000 C 
ATOM     12  O   UNL     1       5.304   1.638  20.616  0.00  0.00    +0.000 OA
ATOM     13  H   UNL     1       5.051   0.093  18.746  0.00  0.00    +0.000 HD
ATOM     14  H   UNL     1       3.604   0.796  18.079  0.00  0.00    +0.000 HD
ENDBRANCH   2  11
ENDBRANCH   1   7
BRANCH   1  15
ATOM     15  C   UNL     1       3.022   6.645  17.894  0.00  0.00    +0.000 C 
BRANCH  15  16
ATOM     16  C   UNL     1       2.352   7.867  18.390  0.00  0.00    +0.000 A 
ATOM     17  C   UNL     1       1.868   8.262  19.613  0.00  0.00    +0.000 A 
ATOM     18  C   UNL     1       1.231   9.508  19.371  0.00  0.00    +0.000 A 
ATOM     19  N   UNL     1       1.335   9.836  18.074  0.00  0.00    +0.000 NA
ATOM     20  O   UNL     1       2.046   8.817  17.469  0.00  0.00    +0.000 OA
BRANCH  18  21
ATOM     21  C   UNL     1       0.529  10.357  20.332  0.00  0.00    +0.000 A 
ATOM     22  C   UNL     1      -0.002   9.819  21.513  0.00  0.00    +0.000 A 
ATOM     23  C   UNL     1      -0.666  10.639  22.433  0.00  0.00    +0.000 A 
ATOM     24  C   UNL     1      -0.813  12.004  22.180  0.00  0.00    +0.000 A 
ATOM     25 CL   UNL     1      -1.647  12.959  23.353  0.00  0.00    +0.000 Cl
ATOM     26  C   UNL     1      -0.290  12.549  21.002  0.00  0.00    +0.000 A 
ATOM     27 CL   UNL     1      -0.439  14.227  20.611  0.00  0.00    +0.000 Cl
ATOM     28  C   UNL     1       0.379  11.729  20.087  0.00  0.00    +0.000 A 
ENDBRANCH  18  21
ENDBRANCH  15  16
ENDBRANCH   1  15
TORSDOF 5
ENDMDL
MODEL 7
REMARK VINA RESULT:      -7.8      5.719      7.646
REMARK  Name = 
REMARK  5 active torsions:
REMARK  status: ('A' for Active; 'I' for Inactive)
REMARK    1  A    between atoms: C_2  and  C_4
REMARK    2  A    between atoms: C_9  and  O_10
REMARK    3  A    between atoms: O_10  and  C_11
REMARK    4  A    between atoms: C_11  and  C_12
REMARK    5  A    between atoms: C_14  and  C_15
REMARK                            x       y       z     vdW  Elec       q    Type
REMARK                         _______ _______ _______ _____ _____    ______ ____
ROOT
ATOM      1  O   UNL     1       3.445   4.972  20.288  0.00  0.00    +0.000 OA
ENDROOT
BRANCH   1   7
ATOM      2  C   UNL     1       5.770   4.687  17.468  0.00  0.00    +0.000 A 
ATOM      3  C   UNL     1       4.964   4.059  16.517  0.00  0.00    +0.000 A 
ATOM      4  F   UNL     1       5.420   3.751  15.295  0.00  0.00    +0.000 F 
ATOM      5  C   UNL     1       3.641   3.725  16.802  0.00  0.00    +0.000 A 
ATOM      6  C   UNL     1       3.094   4.015  18.052  0.00  0.00    +0.000 A 
ATOM      7  C   UNL     1       3.875   4.645  19.024  0.00  0.00    +0.000 A 
ATOM      8  C   UNL     1       5.208   4.976  18.718  0.00  0.00    +0.000 A 
ATOM      9  F   UNL     1       5.943   5.582  19.667  0.00  0.00    +0.000 F 
BRANCH   2  11
ATOM     10  N   UNL     1       8.169   4.241  17.669  0.00  0.00    +0.000 N 
ATOM     11  C   UNL     1       7.179   5.010  17.125  0.00  0.00    +0.000 C 
ATOM     12  O   UNL     1       7.480   5.933  16.376  0.00  0.00    +0.000 OA
ATOM     13  H   UNL     1       9.124   4.468  17.426  0.00  0.00    +0.000 HD
ATOM     14  H   UNL     1       7.997   3.466  18.295  0.00  0.00    +0.000 HD
ENDBRANCH   2  11
ENDBRANCH   1   7
BRANCH   1  15
ATOM     15  C   UNL     1       2.032   5.062  20.475  0.00  0.00    +0.000 C 
BRANCH  15  16
ATOM     16  C   UNL     1       1.669   6.492  20.575  0.00  0.00    +0.000 A 
ATOM     17  C   UNL     1       0.833   7.211  21.395  0.00  0.00    +0.000 A 
ATOM     18  C   UNL     1       0.852   8.531  20.871  0.00  0.00    +0.000 A 
ATOM     19  N   UNL     1       1.659   8.592  19.801  0.00  0.00    +0.000 NA
ATOM     20  O   UNL     1       2.177   7.323  19.628  0.00  0.00    +0.000 OA
BRANCH  18  21
ATOM     21  C   UNL     1       0.117   9.698  21.356  0.00  0.00    +0.000 A 
ATOM     22  C   UNL     1      -0.383   9.739  22.666  0.00  0.00    +0.000 A 
ATOM     23  C   UNL     1      -1.079  10.862  23.127  0.00  0.00    +0.000 A 
ATOM     24  C   UNL     1      -1.290  11.954  22.282  0.00  0.00    +0.000 A 
ATOM     25 CL   UNL     1      -2.161  13.306  22.911  0.00  0.00    +0.000 Cl
ATOM     26  C   UNL     1      -0.799  11.920  20.973  0.00  0.00    +0.000 A 
ATOM     27 CL   UNL     1      -1.027  13.227  19.864  0.00  0.00    +0.000 Cl
ATOM     28  C   UNL     1      -0.097  10.799  20.516  0.00  0.00    +0.000 A 
ENDBRANCH  18  21
ENDBRANCH  15  16
ENDBRANCH   1  15
TORSDOF 5
ENDMDL
MODEL 8
REMARK VINA RESULT:      -7.8      6.106      7.500
REMARK  Name = 
REMARK  5 active torsions:
REMARK  status: ('A' for Active; 'I' for Inactive)
REMARK    1  A    between atoms: C_2  and  C_4
REMARK    2  A    between atoms: C_9  and  O_10
REMARK    3  A    between atoms: O_10  and  C_11
REMARK    4  A    between atoms: C_11  and  C_12
REMARK    5  A    between atoms: C_14  and  C_15
REMARK                            x       y       z     vdW  Elec       q    Type
REMARK                         _______ _______ _______ _____ _____    ______ ____
ROOT
ATOM      1  O   UNL     1       3.690   6.734  18.141  0.00  0.00    +0.000 OA
ENDROOT
BRANCH   1   7
ATOM      2  C   UNL     1       3.271   3.356  19.502  0.00  0.00    +0.000 A 
ATOM      3  C   UNL     1       2.125   2.934  18.827  0.00  0.00    +0.000 A 
ATOM      4  F   UNL     1       1.595   1.719  19.024  0.00  0.00    +0.000 F 
ATOM      5  C   UNL     1       1.479   3.766  17.913  0.00  0.00    +0.000 A 
ATOM      6  C   UNL     1       1.973   5.045  17.654  0.00  0.00    +0.000 A 
ATOM      7  C   UNL     1       3.119   5.495  18.312  0.00  0.00    +0.000 A 
ATOM      8  C   UNL     1       3.758   4.641  19.230  0.00  0.00    +0.000 A 
ATOM      9  F   UNL     1       4.862   5.093  19.852  0.00  0.00    +0.000 F 
BRANCH   2  11
ATOM     10  N   UNL     1       5.071   1.810  20.106  0.00  0.00    +0.000 N 
ATOM     11  C   UNL     1       3.917   2.440  20.478  0.00  0.00    +0.000 C 
ATOM     12  O   UNL     1       3.454   2.234  21.594  0.00  0.00    +0.000 OA
ATOM     13  H   UNL     1       5.503   1.191  20.778  0.00  0.00    +0.000 HD
ATOM     14  H   UNL     1       5.509   1.930  19.202  0.00  0.00    +0.000 HD
ENDBRANCH   2  11
ENDBRANCH   1   7
BRANCH   1  15
ATOM     15  C   UNL     1       2.823   7.775  17.686  0.00  0.00    +0.000 C 
BRANCH  15  16
ATOM     16  C   UNL     1       2.025   8.248  18.836  0.00  0.00    +0.000 A 
ATOM     17  C   UNL     1       1.121   9.266  19.019  0.00  0.00    +0.000 A 
ATOM     18  C   UNL     1       0.818   9.244  20.407  0.00  0.00    +0.000 A 
ATOM     19  N   UNL     1       1.502   8.262  21.013  0.00  0.00    +0.000 NA
ATOM     20  O   UNL     1       2.242   7.635  20.029  0.00  0.00    +0.000 OA
BRANCH  18  21
ATOM     21  C   UNL     1      -0.079  10.134  21.142  0.00  0.00    +0.000 A 
ATOM     22  C   UNL     1      -0.339   9.927  22.505  0.00  0.00    +0.000 A 
ATOM     23  C   UNL     1      -1.192  10.787  23.205  0.00  0.00    +0.000 A 
ATOM     24  C   UNL     1      -1.801  11.860  22.550  0.00  0.00    +0.000 A 
ATOM     25 CL   UNL     1      -2.847  12.880  23.470  0.00  0.00    +0.000 Cl
ATOM     26  C   UNL     1      -1.552  12.071  21.190  0.00  0.00    +0.000 A 
ATOM     27 CL   UNL     1      -2.275  13.369  20.306  0.00  0.00    +0.000 Cl
ATOM     28  C   UNL     1      -0.693  11.214  20.493  0.00  0.00    +0.000 A 
ENDBRANCH  18  21
ENDBRANCH  15  16
ENDBRANCH   1  15
TORSDOF 5
ENDMDL
MODEL 9
REMARK VINA RESULT:      -7.8      7.605      8.918
REMARK  Name = 
REMARK  5 active torsions:
REMARK  status: ('A' for Active; 'I' for Inactive)
REMARK    1  A    between atoms: C_2  and  C_4
REMARK    2  A    between atoms: C_9  and  O_10
REMARK    3  A    between atoms: O_10  and  C_11
REMARK    4  A    between atoms: C_11  and  C_12
REMARK    5  A    between atoms: C_14  and  C_15
REMARK                            x       y       z     vdW  Elec       q    Type
REMARK                         _______ _______ _______ _____ _____    ______ ____
ROOT
ATOM      1  O   UNL     1       2.010   7.775  20.329  0.00  0.00    +0.000 OA
ENDROOT
BRANCH   1   7
ATOM      2  C   UNL     1       2.150   4.404  18.894  0.00  0.00    +0.000 A 
ATOM      3  C   UNL     1       3.017   4.605  17.819  0.00  0.00    +0.000 A 
ATOM      4  F   UNL     1       3.361   3.608  16.992  0.00  0.00    +0.000 F 
ATOM      5  C   UNL     1       3.564   5.861  17.559  0.00  0.00    +0.000 A 
ATOM      6  C   UNL     1       3.253   6.948  18.377  0.00  0.00    +0.000 A 
ATOM      7  C   UNL     1       2.391   6.778  19.462  0.00  0.00    +0.000 A 
ATOM      8  C   UNL     1       1.849   5.503  19.710  0.00  0.00    +0.000 A 
ATOM      9  F   UNL     1       1.022   5.360  20.760  0.00  0.00    +0.000 F 
BRANCH   2  11
ATOM     10  N   UNL     1       2.057   2.319  20.172  0.00  0.00    +0.000 N 
ATOM     11  C   UNL     1       1.579   3.052  19.123  0.00  0.00    +0.000 C 
ATOM     12  O   UNL     1       0.703   2.576  18.409  0.00  0.00    +0.000 OA
ATOM     13  H   UNL     1       1.660   1.401  20.321  0.00  0.00    +0.000 HD
ATOM     14  H   UNL     1       2.779   2.644  20.801  0.00  0.00    +0.000 HD
ENDBRANCH   2  11
ENDBRANCH   1   7
BRANCH   1  15
ATOM     15  C   UNL     1       1.364   8.908  19.748  0.00  0.00    +0.000 C 
BRANCH  15  16
ATOM     16  C   UNL     1       0.655   9.638  20.821  0.00  0.00    +0.000 A 
ATOM     17  C   UNL     1      -0.196  10.715  20.843  0.00  0.00    +0.000 A 
ATOM     18  C   UNL     1      -0.416  10.981  22.222  0.00  0.00    +0.000 A 
ATOM     19  N   UNL     1       0.266  10.105  22.975  0.00  0.00    +0.000 NA
ATOM     20  O   UNL     1       0.921   9.261  22.099  0.00  0.00    +0.000 OA
BRANCH  18  21
ATOM     21  C   UNL     1      -1.232  12.041  22.810  0.00  0.00    +0.000 A 
ATOM     22  C   UNL     1      -0.809  13.378  22.776  0.00  0.00    +0.000 A 
ATOM     23  C   UNL     1      -1.598  14.389  23.334  0.00  0.00    +0.000 A 
ATOM     24  C   UNL     1      -2.817  14.076  23.940  0.00  0.00    +0.000 A 
ATOM     25 CL   UNL     1      -3.741  15.370  24.614  0.00  0.00    +0.000 Cl
ATOM     26  C   UNL     1      -3.246  12.745  23.983  0.00  0.00    +0.000 A 
ATOM     27 CL   UNL     1      -4.736  12.275  24.723  0.00  0.00    +0.000 Cl
ATOM     28  C   UNL     1      -2.458  11.736  23.418  0.00  0.00    +0.000 A 
ENDBRANCH  18  21
ENDBRANCH  15  16
ENDBRANCH   1  15
TORSDOF 5
ENDMDL
