MODEL 1
REMARK VINA RESULT:      -8.9      0.000      0.000
REMARK  Name = 
REMARK  6 active torsions:
REMARK  status: ('A' for Active; 'I' for Inactive)
REMARK    1  A    between atoms: C_1  and  N_2
REMARK    2  A    between atoms: N_2  and  C_3
REMARK    3  A    between atoms: C_8  and  C_9
REMARK    4  A    between atoms: N_11  and  C_12
REMARK    5  A    between atoms: C_20  and  C_21
REMARK    6  A    between atoms: N_25  and  C_26
REMARK                            x       y       z     vdW  Elec       q    Type
REMARK                         _______ _______ _______ _____ _____    ______ ____
ROOT
ATOM      1  C   UNL     1       6.899   7.596  17.458  0.00  0.00    +0.000 A 
ATOM      2  C   UNL     1       7.434   6.744  16.486  0.00  0.00    +0.000 A 
ATOM      3  C   UNL     1       6.804   5.553  16.140  0.00  0.00    +0.000 A 
ATOM      4  C   UNL     1       5.610   5.186  16.761  0.00  0.00    +0.000 A 
ATOM      5  C   UNL     1       5.062   6.014  17.773  0.00  0.00    +0.000 A 
ATOM      6  C   UNL     1       5.758   7.176  18.161  0.00  0.00    +0.000 A 
ATOM      7  C   UNL     1       3.789   5.549  18.354  0.00  0.00    +0.000 A 
ATOM      8  C   UNL     1       3.331   4.249  18.180  0.00  0.00    +0.000 A 
ATOM      9  C   UNL     1       2.122   4.142  18.892  0.00  0.00    +0.000 A 
ATOM     10  N   UNL     1       1.846   5.307  19.505  0.00  0.00    +0.000 NA
ATOM     11  N   UNL     1       2.745   6.207  18.991  0.00  0.00    +0.000 N 
ATOM     12  C   UNL     1       4.069   3.246  17.367  0.00  0.00    +0.000 C 
ATOM     13  C   UNL     1       4.877   3.949  16.267  0.00  0.00    +0.000 C 
ENDROOT
BRANCH  11  14
ATOM     14  C   UNL     1       2.376   7.586  19.012  0.00  0.00    +0.000 A 
ATOM     15  C   UNL     1       2.406   8.377  17.839  0.00  0.00    +0.000 A 
ATOM     16  C   UNL     1       1.824   9.648  17.809  0.00  0.00    +0.000 A 
ATOM     17  C   UNL     1       1.144  10.053  18.932  0.00  0.00    +0.000 A 
ATOM     18  C   UNL     1       1.131   9.304  20.087  0.00  0.00    +0.000 A 
ATOM     19  C   UNL     1       1.774   8.092  20.178  0.00  0.00    +0.000 A 
ATOM     20  O   UNL     1       0.307   9.839  21.031  0.00  0.00    +0.000 OA
ATOM     21  C   UNL     1      -0.421  10.765  20.200  0.00  0.00    +0.000 C 
ATOM     22  O   UNL     1       0.318  11.132  19.017  0.00  0.00    +0.000 OA
ENDBRANCH  11  14
BRANCH   9  23
ATOM     23  C   UNL     1       1.231   2.972  18.995  0.00  0.00    +0.000 C 
ATOM     24  N   UNL     1       0.561   2.868  20.182  0.00  0.00    +0.000 N 
ATOM     25  O   UNL     1       1.062   2.156  18.097  0.00  0.00    +0.000 OA
ATOM     26  H   UNL     1       0.695   3.580  20.887  0.00  0.00    +0.000 HD
ATOM     27  H   UNL     1      -0.100   2.119  20.311  0.00  0.00    +0.000 HD
ENDBRANCH   9  23
BRANCH   1  30
ATOM     28  C   UNL     1       8.478   9.156  18.590  0.00  0.00    +0.000 C 
ATOM     29  O   UNL     1       9.042   8.339  19.307  0.00  0.00    +0.000 OA
ATOM     30  N   UNL     1       7.434   8.887  17.714  0.00  0.00    +0.000 N 
ATOM     31  H   UNL     1       7.130   9.653  17.123  0.00  0.00    +0.000 HD
BRANCH  28  37
ATOM     32  C   UNL     1       9.346  11.217  19.850  0.00  0.00    +0.000 A 
ATOM     33  N   UNL     1       9.741  12.516  19.827  0.00  0.00    +0.000 NA
ATOM     34  C   UNL     1       9.753  13.175  18.647  0.00  0.00    +0.000 A 
ATOM     35  C   UNL     1       9.418  12.598  17.443  0.00  0.00    +0.000 A 
ATOM     36  C   UNL     1       9.037  11.266  17.460  0.00  0.00    +0.000 A 
ATOM     37  C   UNL     1       8.996  10.551  18.672  0.00  0.00    +0.000 A 
BRANCH  32  39
ATOM     38  C   UNL     1       8.614  11.349  22.137  0.00  0.00    +0.000 C 
ATOM     39  N   UNL     1       9.288  10.557  21.107  0.00  0.00    +0.000 N 
ATOM     40  H   UNL     1       8.792   9.677  20.965  0.00  0.00    +0.000 HD
ENDBRANCH  32  39
ENDBRANCH  28  37
ENDBRANCH   1  30
TORSDOF 5
ENDMDL
MODEL 2
REMARK VINA RESULT:      -8.6      1.094      1.163
REMARK  Name = 
REMARK  6 active torsions:
REMARK  status: ('A' for Active; 'I' for Inactive)
REMARK    1  A    between atoms: C_1  and  N_2
REMARK    2  A    between atoms: N_2  and  C_3
REMARK    3  A    between atoms: C_8  and  C_9
REMARK    4  A    between atoms: N_11  and  C_12
REMARK    5  A    between atoms: C_20  and  C_21
REMARK    6  A    between atoms: N_25  and  C_26
REMARK                            x       y       z     vdW  Elec       q    Type
REMARK                         _______ _______ _______ _____ _____    ______ ____
ROOT
ATOM      1  C   UNL     1       6.821   7.666  17.330  0.00  0.00    +0.000 A 
ATOM      2  C   UNL     1       7.397   6.752  16.441  0.00  0.00    +0.000 A 
ATOM      3  C   UNL     1       6.880   5.471  16.282  0.00  0.00    +0.000 A 
ATOM      4  C   UNL     1       5.762   5.071  17.012  0.00  0.00    +0.000 A 
ATOM      5  C   UNL     1       5.176   5.964  17.945  0.00  0.00    +0.000 A 
ATOM      6  C   UNL     1       5.764   7.229  18.145  0.00  0.00    +0.000 A 
ATOM      7  C   UNL     1       3.987   5.456  18.652  0.00  0.00    +0.000 A 
ATOM      8  C   UNL     1       3.660   4.105  18.666  0.00  0.00    +0.000 A 
ATOM      9  C   UNL     1       2.502   3.972  19.455  0.00  0.00    +0.000 A 
ATOM     10  N   UNL     1       2.134   5.174  19.935  0.00  0.00    +0.000 NA
ATOM     11  N   UNL     1       2.910   6.084  19.262  0.00  0.00    +0.000 N 
ATOM     12  C   UNL     1       4.461   3.083  17.941  0.00  0.00    +0.000 C 
ATOM     13  C   UNL     1       5.140   3.715  16.718  0.00  0.00    +0.000 C 
ENDROOT
BRANCH  11  14
ATOM     14  C   UNL     1       2.399   7.411  19.135  0.00  0.00    +0.000 A 
ATOM     15  C   UNL     1       2.282   8.040  17.873  0.00  0.00    +0.000 A 
ATOM     16  C   UNL     1       1.569   9.233  17.722  0.00  0.00    +0.000 A 
ATOM     17  C   UNL     1       0.913   9.715  18.828  0.00  0.00    +0.000 A 
ATOM     18  C   UNL     1       1.042   9.127  20.067  0.00  0.00    +0.000 A 
ATOM     19  C   UNL     1       1.813   8.006  20.266  0.00  0.00    +0.000 A 
ATOM     20  O   UNL     1       0.219   9.700  20.990  0.00  0.00    +0.000 OA
ATOM     21  C   UNL     1      -0.647  10.433  20.101  0.00  0.00    +0.000 C 
ATOM     22  O   UNL     1      -0.016  10.711  18.833  0.00  0.00    +0.000 OA
ENDBRANCH  11  14
BRANCH   9  23
ATOM     23  C   UNL     1       1.745   2.743  19.753  0.00  0.00    +0.000 C 
ATOM     24  N   UNL     1       1.255   2.095  18.654  0.00  0.00    +0.000 N 
ATOM     25  O   UNL     1       1.575   2.297  20.881  0.00  0.00    +0.000 OA
ATOM     26  H   UNL     1       1.446   2.470  17.735  0.00  0.00    +0.000 HD
ATOM     27  H   UNL     1       0.763   1.223  18.773  0.00  0.00    +0.000 HD
ENDBRANCH   9  23
BRANCH   1  30
ATOM     28  C   UNL     1       8.284   9.504  18.161  0.00  0.00    +0.000 C 
ATOM     29  O   UNL     1       8.968   8.844  18.933  0.00  0.00    +0.000 OA
ATOM     30  N   UNL     1       7.230   9.025  17.393  0.00  0.00    +0.000 N 
ATOM     31  H   UNL     1       6.816   9.676  16.735  0.00  0.00    +0.000 HD
BRANCH  28  37
ATOM     32  C   UNL     1       9.768  11.544  18.633  0.00  0.00    +0.000 A 
ATOM     33  N   UNL     1       9.982  12.880  18.524  0.00  0.00    +0.000 NA
ATOM     34  C   UNL     1       9.076  13.635  17.862  0.00  0.00    +0.000 A 
ATOM     35  C   UNL     1       7.950  13.125  17.255  0.00  0.00    +0.000 A 
ATOM     36  C   UNL     1       7.742  11.759  17.346  0.00  0.00    +0.000 A 
ATOM     37  C   UNL     1       8.655  10.942  18.040  0.00  0.00    +0.000 A 
BRANCH  32  39
ATOM     38  C   UNL     1      11.913  11.523  19.721  0.00  0.00    +0.000 C 
ATOM     39  N   UNL     1      10.703  10.775  19.379  0.00  0.00    +0.000 N 
ATOM     40  H   UNL     1      10.232  10.466  20.230  0.00  0.00    +0.000 HD
ENDBRANCH  32  39
ENDBRANCH  28  37
ENDBRANCH   1  30
TORSDOF 5
ENDMDL
MODEL 3
REMARK VINA RESULT:      -7.5      4.595      8.950
REMARK  Name = 
REMARK  6 active torsions:
REMARK  status: ('A' for Active; 'I' for Inactive)
REMARK    1  A    between atoms: C_1  and  N_2
REMARK    2  A    between atoms: N_2  and  C_3
REMARK    3  A    between atoms: C_8  and  C_9
REMARK    4  A    between atoms: N_11  and  C_12
REMARK    5  A    between atoms: C_20  and  C_21
REMARK    6  A    between atoms: N_25  and  C_26
REMARK                            x       y       z     vdW  Elec       q    Type
REMARK                         _______ _______ _______ _____ _____    ______ ____
ROOT
ATOM      1  C   UNL     1       1.279   8.843  20.511  0.00  0.00    +0.000 A 
ATOM      2  C   UNL     1       1.369   8.646  21.894  0.00  0.00    +0.000 A 
ATOM      3  C   UNL     1       0.597   9.387  22.783  0.00  0.00    +0.000 A 
ATOM      4  C   UNL     1      -0.294  10.348  22.306  0.00  0.00    +0.000 A 
ATOM      5  C   UNL     1      -0.382  10.592  20.912  0.00  0.00    +0.000 A 
ATOM      6  C   UNL     1       0.465   9.884  20.036  0.00  0.00    +0.000 A 
ATOM      7  C   UNL     1      -1.366  11.613  20.506  0.00  0.00    +0.000 A 
ATOM      8  C   UNL     1      -1.919  12.505  21.417  0.00  0.00    +0.000 A 
ATOM      9  C   UNL     1      -2.778  13.352  20.690  0.00  0.00    +0.000 A 
ATOM     10  N   UNL     1      -2.746  13.026  19.386  0.00  0.00    +0.000 NA
ATOM     11  N   UNL     1      -2.062  11.838  19.326  0.00  0.00    +0.000 N 
ATOM     12  C   UNL     1      -1.589  12.472  22.866  0.00  0.00    +0.000 C 
ATOM     13  C   UNL     1      -1.218  11.044  23.291  0.00  0.00    +0.000 C 
ENDROOT
BRANCH  11  14
ATOM     14  C   UNL     1      -2.329  10.984  18.214  0.00  0.00    +0.000 A 
ATOM     15  C   UNL     1      -3.003   9.751  18.374  0.00  0.00    +0.000 A 
ATOM     16  C   UNL     1      -3.472   9.034  17.269  0.00  0.00    +0.000 A 
ATOM     17  C   UNL     1      -3.331   9.621  16.035  0.00  0.00    +0.000 A 
ATOM     18  C   UNL     1      -2.653  10.807  15.864  0.00  0.00    +0.000 A 
ATOM     19  C   UNL     1      -2.099  11.489  16.922  0.00  0.00    +0.000 A 
ATOM     20  O   UNL     1      -2.733  11.260  14.582  0.00  0.00    +0.000 OA
ATOM     21  C   UNL     1      -3.805  10.419  14.110  0.00  0.00    +0.000 C 
ATOM     22  O   UNL     1      -3.927   9.206  14.883  0.00  0.00    +0.000 OA
ENDBRANCH  11  14
BRANCH   9  23
ATOM     23  C   UNL     1      -3.621  14.445  21.206  0.00  0.00    +0.000 C 
ATOM     24  N   UNL     1      -3.471  15.637  20.553  0.00  0.00    +0.000 N 
ATOM     25  O   UNL     1      -4.423  14.321  22.123  0.00  0.00    +0.000 OA
ATOM     26  H   UNL     1      -2.827  15.695  19.775  0.00  0.00    +0.000 HD
ATOM     27  H   UNL     1      -4.045  16.421  20.819  0.00  0.00    +0.000 HD
ENDBRANCH   9  23
BRANCH   1  30
ATOM     28  C   UNL     1       2.137   6.631  19.750  0.00  0.00    +0.000 C 
ATOM     29  O   UNL     1       1.840   5.980  20.744  0.00  0.00    +0.000 OA
ATOM     30  N   UNL     1       1.934   7.995  19.579  0.00  0.00    +0.000 N 
ATOM     31  H   UNL     1       2.153   8.374  18.664  0.00  0.00    +0.000 HD
BRANCH  28  37
ATOM     32  C   UNL     1       2.366   4.575  18.231  0.00  0.00    +0.000 A 
ATOM     33  N   UNL     1       3.035   3.922  17.247  0.00  0.00    +0.000 NA
ATOM     34  C   UNL     1       4.109   4.517  16.681  0.00  0.00    +0.000 A 
ATOM     35  C   UNL     1       4.558   5.773  17.021  0.00  0.00    +0.000 A 
ATOM     36  C   UNL     1       3.863   6.450  18.010  0.00  0.00    +0.000 A 
ATOM     37  C   UNL     1       2.749   5.858  18.633  0.00  0.00    +0.000 A 
BRANCH  32  39
ATOM     38  C   UNL     1       1.489   2.472  19.002  0.00  0.00    +0.000 C 
ATOM     39  N   UNL     1       1.273   3.912  18.851  0.00  0.00    +0.000 N 
ATOM     40  H   UNL     1       1.136   4.341  19.766  0.00  0.00    +0.000 HD
ENDBRANCH  32  39
ENDBRANCH  28  37
ENDBRANCH   1  30
TORSDOF 5
ENDMDL
MODEL 4
REMARK VINA RESULT:      -7.5      5.547     10.102
REMARK  Name = 
REMARK  6 active torsions:
REMARK  status: ('A' for Active; 'I' for Inactive)
REMARK    1  A    between atoms: C_1  and  N_2
REMARK    2  A    between atoms: N_2  and  C_3
REMARK    3  A    between atoms: C_8  and  C_9
REMARK    4  A    between atoms: N_11  and  C_12
REMARK    5  A    between atoms: C_20  and  C_21
REMARK    6  A    between atoms: N_25  and  C_26
REMARK                            x       y       z     vdW  Elec       q    Type
REMARK                         _______ _______ _______ _____ _____    ______ ____
ROOT
ATOM      1  C   UNL     1      -1.681  11.947  22.147  0.00  0.00    +0.000 A 
ATOM      2  C   UNL     1      -1.527  11.122  23.267  0.00  0.00    +0.000 A 
ATOM      3  C   UNL     1      -0.677  10.022  23.246  0.00  0.00    +0.000 A 
ATOM      4  C   UNL     1       0.049   9.720  22.094  0.00  0.00    +0.000 A 
ATOM      5  C   UNL     1      -0.111  10.518  20.933  0.00  0.00    +0.000 A 
ATOM      6  C   UNL     1      -1.035  11.581  20.954  0.00  0.00    +0.000 A 
ATOM      7  C   UNL     1       0.715  10.130  19.776  0.00  0.00    +0.000 A 
ATOM      8  C   UNL     1       1.342   8.892  19.701  0.00  0.00    +0.000 A 
ATOM      9  C   UNL     1       2.005   8.843  18.460  0.00  0.00    +0.000 A 
ATOM     10  N   UNL     1       1.784   9.981  17.777  0.00  0.00    +0.000 NA
ATOM     11  N   UNL     1       1.189  10.831  18.675  0.00  0.00    +0.000 N 
ATOM     12  C   UNL     1       1.259   7.888  20.794  0.00  0.00    +0.000 C 
ATOM     13  C   UNL     1       1.069   8.593  22.145  0.00  0.00    +0.000 C 
ENDROOT
BRANCH  11  14
ATOM     14  C   UNL     1       1.332  12.232  18.443  0.00  0.00    +0.000 A 
ATOM     15  C   UNL     1       0.230  13.114  18.541  0.00  0.00    +0.000 A 
ATOM     16  C   UNL     1       0.411  14.500  18.549  0.00  0.00    +0.000 A 
ATOM     17  C   UNL     1       1.704  14.964  18.553  0.00  0.00    +0.000 A 
ATOM     18  C   UNL     1       2.783  14.117  18.432  0.00  0.00    +0.000 A 
ATOM     19  C   UNL     1       2.633  12.754  18.326  0.00  0.00    +0.000 A 
ATOM     20  O   UNL     1       3.967  14.777  18.572  0.00  0.00    +0.000 OA
ATOM     21  C   UNL     1       3.474  16.011  19.132  0.00  0.00    +0.000 C 
ATOM     22  O   UNL     1       2.090  16.246  18.800  0.00  0.00    +0.000 OA
ENDBRANCH  11  14
BRANCH   9  23
ATOM     23  C   UNL     1       2.839   7.754  17.920  0.00  0.00    +0.000 C 
ATOM     24  N   UNL     1       2.304   6.504  18.060  0.00  0.00    +0.000 N 
ATOM     25  O   UNL     1       3.914   7.925  17.360  0.00  0.00    +0.000 OA
ATOM     26  H   UNL     1       1.396   6.402  18.494  0.00  0.00    +0.000 HD
ATOM     27  H   UNL     1       2.794   5.711  17.677  0.00  0.00    +0.000 HD
ENDBRANCH   9  23
BRANCH   1  30
ATOM     28  C   UNL     1      -3.800  13.253  22.253  0.00  0.00    +0.000 C 
ATOM     29  O   UNL     1      -4.584  12.313  22.212  0.00  0.00    +0.000 OA
ATOM     30  N   UNL     1      -2.415  13.162  22.193  0.00  0.00    +0.000 N 
ATOM     31  H   UNL     1      -1.898  14.024  22.327  0.00  0.00    +0.000 HD
BRANCH  28  37
ATOM     32  C   UNL     1      -5.448  14.926  23.288  0.00  0.00    +0.000 A 
ATOM     33  N   UNL     1      -5.996  16.167  23.298  0.00  0.00    +0.000 NA
ATOM     34  C   UNL     1      -5.557  17.083  22.406  0.00  0.00    +0.000 A 
ATOM     35  C   UNL     1      -4.553  16.845  21.494  0.00  0.00    +0.000 A 
ATOM     36  C   UNL     1      -3.978  15.585  21.497  0.00  0.00    +0.000 A 
ATOM     37  C   UNL     1      -4.418  14.601  22.401  0.00  0.00    +0.000 A 
BRANCH  32  39
ATOM     38  C   UNL     1      -7.412  13.800  24.102  0.00  0.00    +0.000 C 
ATOM     39  N   UNL     1      -5.960  13.961  24.198  0.00  0.00    +0.000 N 
ATOM     40  H   UNL     1      -5.498  13.075  23.993  0.00  0.00    +0.000 HD
ENDBRANCH  32  39
ENDBRANCH  28  37
ENDBRANCH   1  30
TORSDOF 5
ENDMDL
MODEL 5
REMARK VINA RESULT:      -7.4      7.157     12.709
REMARK  Name = 
REMARK  6 active torsions:
REMARK  status: ('A' for Active; 'I' for Inactive)
REMARK    1  A    between atoms: C_1  and  N_2
REMARK    2  A    between atoms: N_2  and  C_3
REMARK    3  A    between atoms: C_8  and  C_9
REMARK    4  A    between atoms: N_11  and  C_12
REMARK    5  A    between atoms: C_20  and  C_21
REMARK    6  A    between atoms: N_25  and  C_26
REMARK                            x       y       z     vdW  Elec       q    Type
REMARK                         _______ _______ _______ _____ _____    ______ ____
ROOT
ATOM      1  C   UNL     1      -3.299  16.325  20.788  0.00  0.00    +0.000 A 
ATOM      2  C   UNL     1      -3.632  17.403  19.961  0.00  0.00    +0.000 A 
ATOM      3  C   UNL     1      -2.728  17.917  19.038  0.00  0.00    +0.000 A 
ATOM      4  C   UNL     1      -1.457  17.355  18.916  0.00  0.00    +0.000 A 
ATOM      5  C   UNL     1      -1.079  16.283  19.763  0.00  0.00    +0.000 A 
ATOM      6  C   UNL     1      -1.985  15.830  20.742  0.00  0.00    +0.000 A 
ATOM      7  C   UNL     1       0.276  15.746  19.542  0.00  0.00    +0.000 A 
ATOM      8  C   UNL     1       1.233  16.439  18.810  0.00  0.00    +0.000 A 
ATOM      9  C   UNL     1       2.407  15.663  18.833  0.00  0.00    +0.000 A 
ATOM     10  N   UNL     1       2.209  14.552  19.565  0.00  0.00    +0.000 NA
ATOM     11  N   UNL     1       0.857  14.511  19.799  0.00  0.00    +0.000 N 
ATOM     12  C   UNL     1       0.949  17.748  18.166  0.00  0.00    +0.000 C 
ATOM     13  C   UNL     1      -0.541  17.849  17.808  0.00  0.00    +0.000 C 
ENDROOT
BRANCH  11  14
ATOM     14  C   UNL     1       0.275  13.232  20.051  0.00  0.00    +0.000 A 
ATOM     15  C   UNL     1       0.065  12.298  19.010  0.00  0.00    +0.000 A 
ATOM     16  C   UNL     1      -0.279  10.971  19.288  0.00  0.00    +0.000 A 
ATOM     17  C   UNL     1      -0.313  10.595  20.608  0.00  0.00    +0.000 A 
ATOM     18  C   UNL     1      -0.136  11.502  21.630  0.00  0.00    +0.000 A 
ATOM     19  C   UNL     1       0.110  12.833  21.390  0.00  0.00    +0.000 A 
ATOM     20  O   UNL     1      -0.098  10.894  22.849  0.00  0.00    +0.000 OA
ATOM     21  C   UNL     1       0.086   9.530  22.418  0.00  0.00    +0.000 C 
ATOM     22  O   UNL     1      -0.386   9.316  21.071  0.00  0.00    +0.000 OA
ENDBRANCH  11  14
BRANCH   9  23
ATOM     23  C   UNL     1       3.695  15.950  18.176  0.00  0.00    +0.000 C 
ATOM     24  N   UNL     1       4.550  16.725  18.911  0.00  0.00    +0.000 N 
ATOM     25  O   UNL     1       4.016  15.520  17.076  0.00  0.00    +0.000 OA
ATOM     26  H   UNL     1       4.267  17.031  19.833  0.00  0.00    +0.000 HD
ATOM     27  H   UNL     1       5.467  16.928  18.548  0.00  0.00    +0.000 HD
ENDBRANCH   9  23
BRANCH   1  30
ATOM     28  C   UNL     1      -5.211  14.777  21.183  0.00  0.00    +0.000 C 
ATOM     29  O   UNL     1      -5.411  14.451  20.019  0.00  0.00    +0.000 OA
ATOM     30  N   UNL     1      -4.253  15.682  21.621  0.00  0.00    +0.000 N 
ATOM     31  H   UNL     1      -4.149  15.782  22.625  0.00  0.00    +0.000 HD
BRANCH  28  37
ATOM     32  C   UNL     1      -6.420  12.754  22.199  0.00  0.00    +0.000 A 
ATOM     33  N   UNL     1      -7.274  12.253  23.127  0.00  0.00    +0.000 NA
ATOM     34  C   UNL     1      -7.821  13.093  24.034  0.00  0.00    +0.000 A 
ATOM     35  C   UNL     1      -7.541  14.440  24.099  0.00  0.00    +0.000 A 
ATOM     36  C   UNL     1      -6.652  14.949  23.166  0.00  0.00    +0.000 A 
ATOM     37  C   UNL     1      -6.074  14.108  22.197  0.00  0.00    +0.000 A 
BRANCH  32  39
ATOM     38  C   UNL     1      -6.939  11.235  20.408  0.00  0.00    +0.000 C 
ATOM     39  N   UNL     1      -5.898  11.866  21.221  0.00  0.00    +0.000 N 
ATOM     40  H   UNL     1      -5.269  12.405  20.625  0.00  0.00    +0.000 HD
ENDBRANCH  32  39
ENDBRANCH  28  37
ENDBRANCH   1  30
TORSDOF 5
ENDMDL
MODEL 6
REMARK VINA RESULT:      -7.2      5.698      9.619
REMARK  Name = 
REMARK  6 active torsions:
REMARK  status: ('A' for Active; 'I' for Inactive)
REMARK    1  A    between atoms: C_1  and  N_2
REMARK    2  A    between atoms: N_2  and  C_3
REMARK    3  A    between atoms: C_8  and  C_9
REMARK    4  A    between atoms: N_11  and  C_12
REMARK    5  A    between atoms: C_20  and  C_21
REMARK    6  A    between atoms: N_25  and  C_26
REMARK                            x       y       z     vdW  Elec       q    Type
REMARK                         _______ _______ _______ _____ _____    ______ ____
ROOT
ATOM      1  C   UNL     1       1.445  15.706  22.149  0.00  0.00    +0.000 A 
ATOM      2  C   UNL     1       1.328  16.758  23.064  0.00  0.00    +0.000 A 
ATOM      3  C   UNL     1       0.249  16.843  23.938  0.00  0.00    +0.000 A 
ATOM      4  C   UNL     1      -0.745  15.866  23.920  0.00  0.00    +0.000 A 
ATOM      5  C   UNL     1      -0.670  14.805  22.981  0.00  0.00    +0.000 A 
ATOM      6  C   UNL     1       0.391  14.783  22.055  0.00  0.00    +0.000 A 
ATOM      7  C   UNL     1      -1.758  13.813  23.054  0.00  0.00    +0.000 A 
ATOM      8  C   UNL     1      -2.938  14.064  23.745  0.00  0.00    +0.000 A 
ATOM      9  C   UNL     1      -3.759  12.932  23.577  0.00  0.00    +0.000 A 
ATOM     10  N   UNL     1      -3.139  12.028  22.799  0.00  0.00    +0.000 NA
ATOM     11  N   UNL     1      -1.849  12.480  22.676  0.00  0.00    +0.000 N 
ATOM     12  C   UNL     1      -3.173  15.330  24.488  0.00  0.00    +0.000 C 
ATOM     13  C   UNL     1      -1.839  15.912  24.975  0.00  0.00    +0.000 C 
ENDROOT
BRANCH  11  14
ATOM     14  C   UNL     1      -0.839  11.511  22.397  0.00  0.00    +0.000 A 
ATOM     15  C   UNL     1      -0.688  10.351  23.192  0.00  0.00    +0.000 A 
ATOM     16  C   UNL     1       0.134   9.296  22.784  0.00  0.00    +0.000 A 
ATOM     17  C   UNL     1       0.711   9.395  21.542  0.00  0.00    +0.000 A 
ATOM     18  C   UNL     1       0.592  10.530  20.771  0.00  0.00    +0.000 A 
ATOM     19  C   UNL     1      -0.132  11.622  21.186  0.00  0.00    +0.000 A 
ATOM     20  O   UNL     1       1.146  10.367  19.536  0.00  0.00    +0.000 OA
ATOM     21  C   UNL     1       1.282   8.931  19.535  0.00  0.00    +0.000 C 
ATOM     22  O   UNL     1       1.336   8.388  20.871  0.00  0.00    +0.000 OA
ENDBRANCH  11  14
BRANCH   9  23
ATOM     23  C   UNL     1      -5.100  12.695  24.140  0.00  0.00    +0.000 C 
ATOM     24  N   UNL     1      -5.108  12.299  25.449  0.00  0.00    +0.000 N 
ATOM     25  O   UNL     1      -6.144  12.858  23.520  0.00  0.00    +0.000 OA
ATOM     26  H   UNL     1      -4.229  12.210  25.942  0.00  0.00    +0.000 HD
ATOM     27  H   UNL     1      -5.989  12.159  25.917  0.00  0.00    +0.000 HD
ENDBRANCH   9  23
BRANCH   1  30
ATOM     28  C   UNL     1       2.801  16.018  20.082  0.00  0.00    +0.000 C 
ATOM     29  O   UNL     1       1.978  16.649  19.430  0.00  0.00    +0.000 OA
ATOM     30  N   UNL     1       2.611  15.510  21.361  0.00  0.00    +0.000 N 
ATOM     31  H   UNL     1       3.418  15.086  21.805  0.00  0.00    +0.000 HD
BRANCH  28  37
ATOM     32  C   UNL     1       4.346  15.046  18.278  0.00  0.00    +0.000 A 
ATOM     33  N   UNL     1       5.601  14.859  17.796  0.00  0.00    +0.000 NA
ATOM     34  C   UNL     1       6.645  15.395  18.466  0.00  0.00    +0.000 A 
ATOM     35  C   UNL     1       6.515  16.157  19.606  0.00  0.00    +0.000 A 
ATOM     36  C   UNL     1       5.234  16.368  20.087  0.00  0.00    +0.000 A 
ATOM     37  C   UNL     1       4.122  15.813  19.425  0.00  0.00    +0.000 A 
BRANCH  32  39
ATOM     38  C   UNL     1       2.895  13.132  18.157  0.00  0.00    +0.000 C 
ATOM     39  N   UNL     1       3.266  14.429  17.590  0.00  0.00    +0.000 N 
ATOM     40  H   UNL     1       2.473  15.068  17.635  0.00  0.00    +0.000 HD
ENDBRANCH  32  39
ENDBRANCH  28  37
ENDBRANCH   1  30
TORSDOF 5
ENDMDL
MODEL 7
REMARK VINA RESULT:      -7.2      5.425     10.051
REMARK  Name = 
REMARK  6 active torsions:
REMARK  status: ('A' for Active; 'I' for Inactive)
REMARK    1  A    between atoms: C_1  and  N_2
REMARK    2  A    between atoms: N_2  and  C_3
REMARK    3  A    between atoms: C_8  and  C_9
REMARK    4  A    between atoms: N_11  and  C_12
REMARK    5  A    between atoms: C_20  and  C_21
REMARK    6  A    between atoms: N_25  and  C_26
REMARK                            x       y       z     vdW  Elec       q    Type
REMARK                         _______ _______ _______ _____ _____    ______ ____
ROOT
ATOM      1  C   UNL     1      -1.684  11.943  22.160  0.00  0.00    +0.000 A 
ATOM      2  C   UNL     1      -1.516  11.127  23.284  0.00  0.00    +0.000 A 
ATOM      3  C   UNL     1      -0.657  10.033  23.264  0.00  0.00    +0.000 A 
ATOM      4  C   UNL     1       0.064   9.728  22.110  0.00  0.00    +0.000 A 
ATOM      5  C   UNL     1      -0.111  10.518  20.945  0.00  0.00    +0.000 A 
ATOM      6  C   UNL     1      -1.043  11.574  20.965  0.00  0.00    +0.000 A 
ATOM      7  C   UNL     1       0.710  10.127  19.784  0.00  0.00    +0.000 A 
ATOM      8  C   UNL     1       1.347   8.894  19.714  0.00  0.00    +0.000 A 
ATOM      9  C   UNL     1       2.002   8.842  18.469  0.00  0.00    +0.000 A 
ATOM     10  N   UNL     1       1.767   9.973  17.780  0.00  0.00    +0.000 NA
ATOM     11  N   UNL     1       1.172  10.825  18.676  0.00  0.00    +0.000 N 
ATOM     12  C   UNL     1       1.278   7.897  20.815  0.00  0.00    +0.000 C 
ATOM     13  C   UNL     1       1.093   8.610  22.162  0.00  0.00    +0.000 C 
ENDROOT
BRANCH  11  14
ATOM     14  C   UNL     1       1.302  12.226  18.433  0.00  0.00    +0.000 A 
ATOM     15  C   UNL     1       0.186  13.093  18.493  0.00  0.00    +0.000 A 
ATOM     16  C   UNL     1       0.349  14.482  18.492  0.00  0.00    +0.000 A 
ATOM     17  C   UNL     1       1.634  14.963  18.525  0.00  0.00    +0.000 A 
ATOM     18  C   UNL     1       2.728  14.130  18.441  0.00  0.00    +0.000 A 
ATOM     19  C   UNL     1       2.598  12.764  18.345  0.00  0.00    +0.000 A 
ATOM     20  O   UNL     1       3.898  14.807  18.605  0.00  0.00    +0.000 OA
ATOM     21  C   UNL     1       3.375  16.040  19.140  0.00  0.00    +0.000 C 
ATOM     22  O   UNL     1       1.997  16.253  18.769  0.00  0.00    +0.000 OA
ENDBRANCH  11  14
BRANCH   9  23
ATOM     23  C   UNL     1       2.840   7.755  17.931  0.00  0.00    +0.000 C 
ATOM     24  N   UNL     1       2.278   6.511  18.006  0.00  0.00    +0.000 N 
ATOM     25  O   UNL     1       3.942   7.924  17.424  0.00  0.00    +0.000 OA
ATOM     26  H   UNL     1       1.350   6.413  18.396  0.00  0.00    +0.000 HD
ATOM     27  H   UNL     1       2.772   5.723  17.619  0.00  0.00    +0.000 HD
ENDBRANCH   9  23
BRANCH   1  30
ATOM     28  C   UNL     1      -3.810  13.240  22.107  0.00  0.00    +0.000 C 
ATOM     29  O   UNL     1      -4.577  12.305  21.912  0.00  0.00    +0.000 OA
ATOM     30  N   UNL     1      -2.427  13.152  22.202  0.00  0.00    +0.000 N 
ATOM     31  H   UNL     1      -1.935  14.003  22.454  0.00  0.00    +0.000 HD
BRANCH  28  37
ATOM     32  C   UNL     1      -5.024  15.332  21.248  0.00  0.00    +0.000 A 
ATOM     33  N   UNL     1      -5.520  16.572  21.488  0.00  0.00    +0.000 NA
ATOM     34  C   UNL     1      -5.416  17.088  22.733  0.00  0.00    +0.000 A 
ATOM     35  C   UNL     1      -4.860  16.415  23.798  0.00  0.00    +0.000 A 
ATOM     36  C   UNL     1      -4.374  15.140  23.560  0.00  0.00    +0.000 A 
ATOM     37  C   UNL     1      -4.451  14.575  22.273  0.00  0.00    +0.000 A 
BRANCH  32  39
ATOM     38  C   UNL     1      -6.466  14.571  19.479  0.00  0.00    +0.000 C 
ATOM     39  N   UNL     1      -5.094  14.828  19.921  0.00  0.00    +0.000 N 
ATOM     40  H   UNL     1      -4.656  15.518  19.310  0.00  0.00    +0.000 HD
ENDBRANCH  32  39
ENDBRANCH  28  37
ENDBRANCH   1  30
TORSDOF 5
ENDMDL
MODEL 8
REMARK VINA RESULT:      -7.2      6.340     12.073
REMARK  Name = 
REMARK  6 active torsions:
REMARK  status: ('A' for Active; 'I' for Inactive)
REMARK    1  A    between atoms: C_1  and  N_2
REMARK    2  A    between atoms: N_2  and  C_3
REMARK    3  A    between atoms: C_8  and  C_9
REMARK    4  A    between atoms: N_11  and  C_12
REMARK    5  A    between atoms: C_20  and  C_21
REMARK    6  A    between atoms: N_25  and  C_26
REMARK                            x       y       z     vdW  Elec       q    Type
REMARK                         _______ _______ _______ _____ _____    ______ ____
ROOT
ATOM      1  C   UNL     1      -2.702  15.686  20.772  0.00  0.00    +0.000 A 
ATOM      2  C   UNL     1      -2.902  16.828  19.989  0.00  0.00    +0.000 A 
ATOM      3  C   UNL     1      -1.883  17.357  19.204  0.00  0.00    +0.000 A 
ATOM      4  C   UNL     1      -0.630  16.747  19.178  0.00  0.00    +0.000 A 
ATOM      5  C   UNL     1      -0.387  15.607  19.986  0.00  0.00    +0.000 A 
ATOM      6  C   UNL     1      -1.411  15.135  20.832  0.00  0.00    +0.000 A 
ATOM      7  C   UNL     1       0.962  15.024  19.874  0.00  0.00    +0.000 A 
ATOM      8  C   UNL     1       2.018  15.717  19.296  0.00  0.00    +0.000 A 
ATOM      9  C   UNL     1       3.153  14.889  19.390  0.00  0.00    +0.000 A 
ATOM     10  N   UNL     1       2.833  13.744  20.020  0.00  0.00    +0.000 NA
ATOM     11  N   UNL     1       1.464  13.750  20.107  0.00  0.00    +0.000 N 
ATOM     12  C   UNL     1       1.857  17.076  18.715  0.00  0.00    +0.000 C 
ATOM     13  C   UNL     1       0.420  17.268  18.209  0.00  0.00    +0.000 C 
ENDROOT
BRANCH  11  14
ATOM     14  C   UNL     1       0.808  12.486  20.209  0.00  0.00    +0.000 A 
ATOM     15  C   UNL     1       1.023  11.463  19.255  0.00  0.00    +0.000 A 
ATOM     16  C   UNL     1       0.574  10.158  19.480  0.00  0.00    +0.000 A 
ATOM     17  C   UNL     1       0.003   9.893  20.701  0.00  0.00    +0.000 A 
ATOM     18  C   UNL     1      -0.234  10.886  21.626  0.00  0.00    +0.000 A 
ATOM     19  C   UNL     1       0.110  12.197  21.395  0.00  0.00    +0.000 A 
ATOM     20  O   UNL     1      -0.702  10.383  22.803  0.00  0.00    +0.000 OA
ATOM     21  C   UNL     1      -0.382   8.992  22.600  0.00  0.00    +0.000 C 
ATOM     22  O   UNL     1      -0.272   8.657  21.200  0.00  0.00    +0.000 OA
ENDBRANCH  11  14
BRANCH   9  23
ATOM     23  C   UNL     1       4.514  15.157  18.894  0.00  0.00    +0.000 C 
ATOM     24  N   UNL     1       4.715  14.844  17.578  0.00  0.00    +0.000 N 
ATOM     25  O   UNL     1       5.408  15.648  19.572  0.00  0.00    +0.000 OA
ATOM     26  H   UNL     1       3.944  14.475  17.037  0.00  0.00    +0.000 HD
ATOM     27  H   UNL     1       5.608  15.039  17.155  0.00  0.00    +0.000 HD
ENDBRANCH   9  23
BRANCH   1  30
ATOM     28  C   UNL     1      -4.282  13.791  21.120  0.00  0.00    +0.000 C 
ATOM     29  O   UNL     1      -3.943  13.106  20.162  0.00  0.00    +0.000 OA
ATOM     30  N   UNL     1      -3.765  15.036  21.454  0.00  0.00    +0.000 N 
ATOM     31  H   UNL     1      -4.085  15.440  22.328  0.00  0.00    +0.000 HD
BRANCH  28  37
ATOM     32  C   UNL     1      -6.426  12.451  21.559  0.00  0.00    +0.000 A 
ATOM     33  N   UNL     1      -7.368  12.013  22.433  0.00  0.00    +0.000 NA
ATOM     34  C   UNL     1      -7.252  12.342  23.739  0.00  0.00    +0.000 A 
ATOM     35  C   UNL     1      -6.208  13.077  24.254  0.00  0.00    +0.000 A 
ATOM     36  C   UNL     1      -5.234  13.507  23.368  0.00  0.00    +0.000 A 
ATOM     37  C   UNL     1      -5.329  13.197  21.998  0.00  0.00    +0.000 A 
BRANCH  32  39
ATOM     38  C   UNL     1      -7.033  10.763  19.957  0.00  0.00    +0.000 C 
ATOM     39  N   UNL     1      -6.595  12.141  20.182  0.00  0.00    +0.000 N 
ATOM     40  H   UNL     1      -7.284  12.792  19.806  0.00  0.00    +0.000 HD
ENDBRANCH  32  39
ENDBRANCH  28  37
ENDBRANCH   1  30
TORSDOF 5
ENDMDL
MODEL 9
REMARK VINA RESULT:      -7.1      6.323     10.025
REMARK  Name = 
REMARK  6 active torsions:
REMARK  status: ('A' for Active; 'I' for Inactive)
REMARK    1  A    between atoms: C_1  and  N_2
REMARK    2  A    between atoms: N_2  and  C_3
REMARK    3  A    between atoms: C_8  and  C_9
REMARK    4  A    between atoms: N_11  and  C_12
REMARK    5  A    between atoms: C_20  and  C_21
REMARK    6  A    between atoms: N_25  and  C_26
REMARK                            x       y       z     vdW  Elec       q    Type
REMARK                         _______ _______ _______ _____ _____    ______ ____
ROOT
ATOM      1  C   UNL     1       0.879  15.637  22.295  0.00  0.00    +0.000 A 
ATOM      2  C   UNL     1       0.883  16.583  23.326  0.00  0.00    +0.000 A 
ATOM      3  C   UNL     1      -0.199  16.721  24.189  0.00  0.00    +0.000 A 
ATOM      4  C   UNL     1      -1.321  15.906  24.041  0.00  0.00    +0.000 A 
ATOM      5  C   UNL     1      -1.367  14.960  22.985  0.00  0.00    +0.000 A 
ATOM      6  C   UNL     1      -0.292  14.892  22.078  0.00  0.00    +0.000 A 
ATOM      7  C   UNL     1      -2.586  14.133  22.926  0.00  0.00    +0.000 A 
ATOM      8  C   UNL     1      -3.740  14.470  23.624  0.00  0.00    +0.000 A 
ATOM      9  C   UNL     1      -4.706  13.495  23.313  0.00  0.00    +0.000 A 
ATOM     10  N   UNL     1      -4.196  12.606  22.442  0.00  0.00    +0.000 NA
ATOM     11  N   UNL     1      -2.853  12.880  22.391  0.00  0.00    +0.000 N 
ATOM     12  C   UNL     1      -3.817  15.663  24.508  0.00  0.00    +0.000 C 
ATOM     13  C   UNL     1      -2.429  15.988  25.079  0.00  0.00    +0.000 C 
ENDROOT
BRANCH  11  14
ATOM     14  C   UNL     1      -1.981  11.814  22.014  0.00  0.00    +0.000 A 
ATOM     15  C   UNL     1      -1.532  11.663  20.681  0.00  0.00    +0.000 A 
ATOM     16  C   UNL     1      -0.502  10.773  20.361  0.00  0.00    +0.000 A 
ATOM     17  C   UNL     1       0.113  10.125  21.404  0.00  0.00    +0.000 A 
ATOM     18  C   UNL     1      -0.332  10.244  22.702  0.00  0.00    +0.000 A 
ATOM     19  C   UNL     1      -1.404  11.038  23.035  0.00  0.00    +0.000 A 
ATOM     20  O   UNL     1       0.490   9.608  23.582  0.00  0.00    +0.000 OA
ATOM     21  C   UNL     1       1.633   9.411  22.726  0.00  0.00    +0.000 C 
ATOM     22  O   UNL     1       1.274   9.417  21.328  0.00  0.00    +0.000 OA
ENDBRANCH  11  14
BRANCH   9  23
ATOM     23  C   UNL     1      -6.085  13.390  23.824  0.00  0.00    +0.000 C 
ATOM     24  N   UNL     1      -6.471  12.124  24.165  0.00  0.00    +0.000 N 
ATOM     25  O   UNL     1      -6.838  14.345  23.971  0.00  0.00    +0.000 OA
ATOM     26  H   UNL     1      -5.811  11.364  24.066  0.00  0.00    +0.000 HD
ATOM     27  H   UNL     1      -7.385  11.977  24.563  0.00  0.00    +0.000 HD
ENDBRANCH   9  23
BRANCH   1  30
ATOM     28  C   UNL     1       2.224  15.813  20.205  0.00  0.00    +0.000 C 
ATOM     29  O   UNL     1       1.416  16.444  19.534  0.00  0.00    +0.000 OA
ATOM     30  N   UNL     1       2.029  15.367  21.506  0.00  0.00    +0.000 N 
ATOM     31  H   UNL     1       2.826  14.934  21.961  0.00  0.00    +0.000 HD
BRANCH  28  37
ATOM     32  C   UNL     1       3.721  14.679  18.456  0.00  0.00    +0.000 A 
ATOM     33  N   UNL     1       4.965  14.433  17.971  0.00  0.00    +0.000 NA
ATOM     34  C   UNL     1       6.029  14.998  18.584  0.00  0.00    +0.000 A 
ATOM     35  C   UNL     1       5.932  15.846  19.665  0.00  0.00    +0.000 A 
ATOM     36  C   UNL     1       4.662  16.116  20.148  0.00  0.00    +0.000 A 
ATOM     37  C   UNL     1       3.530  15.534  19.546  0.00  0.00    +0.000 A 
BRANCH  32  39
ATOM     38  C   UNL     1       2.460  12.641  18.257  0.00  0.00    +0.000 C 
ATOM     39  N   UNL     1       2.620  14.033  17.833  0.00  0.00    +0.000 N 
ATOM     40  H   UNL     1       1.783  14.567  18.067  0.00  0.00    +0.000 HD
ENDBRANCH  32  39
ENDBRANCH  28  37
ENDBRANCH   1  30
TORSDOF 5
ENDMDL
