MODEL 1
REMARK VINA RESULT:      -7.9      0.000      0.000
REMARK  Name = 
REMARK  8 active torsions:
REMARK  status: ('A' for Active; 'I' for Inactive)
REMARK    1  A    between atoms: C_1  and  C_2
REMARK    2  A    between atoms: C_2  and  C_3
REMARK    3  A    between atoms: C_3  and  C_4
REMARK    4  A    between atoms: C_3  and  N_6
REMARK    5  A    between atoms: C_4  and  C_5
REMARK    6  A    between atoms: C_7  and  C_9
REMARK    7  A    between atoms: C_9  and  N_10
REMARK    8  A    between atoms: C_12  and  C_13
REMARK                            x       y       z     vdW  Elec       q    Type
REMARK                         _______ _______ _______ _____ _____    ______ ____
ROOT
ATOM      1  N   UNL     1       5.635   4.729  16.386  0.00  0.00    +0.000 N 
ATOM      2  C   UNL     1       4.745   3.883  16.981  0.00  0.00    +0.000 A 
ATOM      3  C   UNL     1       3.829   4.678  17.640  0.00  0.00    +0.000 A 
ATOM      4  C   UNL     1       4.219   5.996  17.310  0.00  0.00    +0.000 A 
ATOM      5  N   UNL     1       5.310   6.035  16.539  0.00  0.00    +0.000 NA
ENDROOT
BRANCH   3   6
ATOM      6  C   UNL     1       2.746   4.184  18.470  0.00  0.00    +0.000 A 
ATOM      7  C   UNL     1       2.345   4.890  19.615  0.00  0.00    +0.000 A 
ATOM      8  C   UNL     1       1.288   4.430  20.402  0.00  0.00    +0.000 A 
ATOM      9  C   UNL     1       0.623   3.257  20.055  0.00  0.00    +0.000 A 
ATOM     10  C   UNL     1       1.011   2.547  18.918  0.00  0.00    +0.000 A 
ATOM     11  C   UNL     1       2.065   3.012  18.126  0.00  0.00    +0.000 A 
ENDBRANCH   3   6
BRANCH   1  12
ATOM     12  C   UNL     1       6.850   4.359  15.685  0.00  0.00    +0.000 C 
BRANCH  12  14
ATOM     13  N   UNL     1       6.077   3.449  13.534  0.00  0.00    +0.000 N 
ATOM     14  C   UNL     1       6.733   4.475  14.175  0.00  0.00    +0.000 C 
ATOM     15  O   UNL     1       7.273   5.399  13.567  0.00  0.00    +0.000 OA
ATOM     16  H   UNL     1       5.596   2.765  14.125  0.00  0.00    +0.000 HD
BRANCH  13  17
ATOM     17  C   UNL     1       5.877   3.387  12.093  0.00  0.00    +0.000 C 
BRANCH  17  19
ATOM     18  C   UNL     1       6.393   1.099  11.064  0.00  0.00    +0.000 C 
ATOM     19  C   UNL     1       6.938   2.457  11.479  0.00  0.00    +0.000 C 
ENDBRANCH  17  19
BRANCH  17  20
ATOM     20  C   UNL     1       4.423   3.030  11.732  0.00  0.00    +0.000 C 
ATOM     21  C   UNL     1       3.841   3.787  10.545  0.00  0.00    +0.000 C 
ENDBRANCH  17  20
ENDBRANCH  13  17
ENDBRANCH  12  14
ENDBRANCH   1  12
TORSDOF 6
ENDMDL
MODEL 2
REMARK VINA RESULT:      -7.8      0.427      1.112
REMARK  Name = 
REMARK  8 active torsions:
REMARK  status: ('A' for Active; 'I' for Inactive)
REMARK    1  A    between atoms: C_1  and  C_2
REMARK    2  A    between atoms: C_2  and  C_3
REMARK    3  A    between atoms: C_3  and  C_4
REMARK    4  A    between atoms: C_3  and  N_6
REMARK    5  A    between atoms: C_4  and  C_5
REMARK    6  A    between atoms: C_7  and  C_9
REMARK    7  A    between atoms: C_9  and  N_10
REMARK    8  A    between atoms: C_12  and  C_13
REMARK                            x       y       z     vdW  Elec       q    Type
REMARK                         _______ _______ _______ _____ _____    ______ ____
ROOT
ATOM      1  N   UNL     1       5.666   4.769  16.423  0.00  0.00    +0.000 N 
ATOM      2  C   UNL     1       4.875   3.992  17.218  0.00  0.00    +0.000 A 
ATOM      3  C   UNL     1       3.922   4.829  17.760  0.00  0.00    +0.000 A 
ATOM      4  C   UNL     1       4.185   6.081  17.161  0.00  0.00    +0.000 A 
ATOM      5  N   UNL     1       5.238   6.050  16.339  0.00  0.00    +0.000 NA
ENDROOT
BRANCH   3   6
ATOM      6  C   UNL     1       2.918   4.428  18.728  0.00  0.00    +0.000 A 
ATOM      7  C   UNL     1       1.869   3.572  18.356  0.00  0.00    +0.000 A 
ATOM      8  C   UNL     1       0.915   3.167  19.290  0.00  0.00    +0.000 A 
ATOM      9  C   UNL     1       0.997   3.615  20.606  0.00  0.00    +0.000 A 
ATOM     10  C   UNL     1       2.036   4.464  20.989  0.00  0.00    +0.000 A 
ATOM     11  C   UNL     1       2.996   4.864  20.055  0.00  0.00    +0.000 A 
ENDBRANCH   3   6
BRANCH   1  12
ATOM     12  C   UNL     1       6.881   4.360  15.740  0.00  0.00    +0.000 C 
BRANCH  12  14
ATOM     13  N   UNL     1       6.103   3.506  13.569  0.00  0.00    +0.000 N 
ATOM     14  C   UNL     1       6.796   4.494  14.230  0.00  0.00    +0.000 C 
ATOM     15  O   UNL     1       7.391   5.396  13.640  0.00  0.00    +0.000 OA
ATOM     16  H   UNL     1       5.578   2.842  14.145  0.00  0.00    +0.000 HD
BRANCH  13  17
ATOM     17  C   UNL     1       5.926   3.465  12.124  0.00  0.00    +0.000 C 
BRANCH  17  19
ATOM     18  C   UNL     1       6.681   1.276  11.030  0.00  0.00    +0.000 C 
ATOM     19  C   UNL     1       7.083   2.666  11.499  0.00  0.00    +0.000 C 
ENDBRANCH  17  19
BRANCH  17  20
ATOM     20  C   UNL     1       4.519   2.973  11.733  0.00  0.00    +0.000 C 
ATOM     21  C   UNL     1       3.831   3.772  10.634  0.00  0.00    +0.000 C 
ENDBRANCH  17  20
ENDBRANCH  13  17
ENDBRANCH  12  14
ENDBRANCH   1  12
TORSDOF 6
ENDMDL
MODEL 3
REMARK VINA RESULT:      -7.1      1.572      2.336
REMARK  Name = 
REMARK  8 active torsions:
REMARK  status: ('A' for Active; 'I' for Inactive)
REMARK    1  A    between atoms: C_1  and  C_2
REMARK    2  A    between atoms: C_2  and  C_3
REMARK    3  A    between atoms: C_3  and  C_4
REMARK    4  A    between atoms: C_3  and  N_6
REMARK    5  A    between atoms: C_4  and  C_5
REMARK    6  A    between atoms: C_7  and  C_9
REMARK    7  A    between atoms: C_9  and  N_10
REMARK    8  A    between atoms: C_12  and  C_13
REMARK                            x       y       z     vdW  Elec       q    Type
REMARK                         _______ _______ _______ _____ _____    ______ ____
ROOT
ATOM      1  N   UNL     1       5.247   6.196  17.422  0.00  0.00    +0.000 N 
ATOM      2  C   UNL     1       4.804   5.116  18.128  0.00  0.00    +0.000 A 
ATOM      3  C   UNL     1       3.501   5.391  18.489  0.00  0.00    +0.000 A 
ATOM      4  C   UNL     1       3.233   6.637  17.879  0.00  0.00    +0.000 A 
ATOM      5  N   UNL     1       4.286   7.128  17.220  0.00  0.00    +0.000 NA
ENDROOT
BRANCH   3   6
ATOM      6  C   UNL     1       2.671   4.538  19.318  0.00  0.00    +0.000 A 
ATOM      7  C   UNL     1       2.883   4.463  20.704  0.00  0.00    +0.000 A 
ATOM      8  C   UNL     1       2.072   3.661  21.507  0.00  0.00    +0.000 A 
ATOM      9  C   UNL     1       1.040   2.922  20.934  0.00  0.00    +0.000 A 
ATOM     10  C   UNL     1       0.817   2.990  19.558  0.00  0.00    +0.000 A 
ATOM     11  C   UNL     1       1.625   3.799  18.755  0.00  0.00    +0.000 A 
ENDBRANCH   3   6
BRANCH   1  12
ATOM     12  C   UNL     1       6.597   6.426  16.941  0.00  0.00    +0.000 C 
BRANCH  12  14
ATOM     13  N   UNL     1       6.542   5.388  14.711  0.00  0.00    +0.000 N 
ATOM     14  C   UNL     1       7.082   5.357  15.976  0.00  0.00    +0.000 C 
ATOM     15  O   UNL     1       7.852   4.472  16.348  0.00  0.00    +0.000 OA
ATOM     16  H   UNL     1       5.972   6.203  14.469  0.00  0.00    +0.000 HD
BRANCH  13  17
ATOM     17  C   UNL     1       6.882   4.440  13.660  0.00  0.00    +0.000 C 
BRANCH  17  19
ATOM     18  C   UNL     1       5.739   2.916  11.947  0.00  0.00    +0.000 C 
ATOM     19  C   UNL     1       5.624   3.638  13.281  0.00  0.00    +0.000 C 
ENDBRANCH  17  19
BRANCH  17  20
ATOM     20  C   UNL     1       7.587   5.127  12.475  0.00  0.00    +0.000 C 
ATOM     21  C   UNL     1       8.794   5.981  12.841  0.00  0.00    +0.000 C 
ENDBRANCH  17  20
ENDBRANCH  13  17
ENDBRANCH  12  14
ENDBRANCH   1  12
TORSDOF 6
ENDMDL
MODEL 4
REMARK VINA RESULT:      -7.1      2.488      7.066
REMARK  Name = 
REMARK  8 active torsions:
REMARK  status: ('A' for Active; 'I' for Inactive)
REMARK    1  A    between atoms: C_1  and  C_2
REMARK    2  A    between atoms: C_2  and  C_3
REMARK    3  A    between atoms: C_3  and  C_4
REMARK    4  A    between atoms: C_3  and  N_6
REMARK    5  A    between atoms: C_4  and  C_5
REMARK    6  A    between atoms: C_7  and  C_9
REMARK    7  A    between atoms: C_9  and  N_10
REMARK    8  A    between atoms: C_12  and  C_13
REMARK                            x       y       z     vdW  Elec       q    Type
REMARK                         _______ _______ _______ _____ _____    ______ ____
ROOT
ATOM      1  N   UNL     1       6.075   5.331  18.160  0.00  0.00    +0.000 N 
ATOM      2  C   UNL     1       5.971   4.566  17.036  0.00  0.00    +0.000 A 
ATOM      3  C   UNL     1       6.619   5.255  16.032  0.00  0.00    +0.000 A 
ATOM      4  C   UNL     1       7.147   6.393  16.683  0.00  0.00    +0.000 A 
ATOM      5  N   UNL     1       6.828   6.441  17.980  0.00  0.00    +0.000 NA
ENDROOT
BRANCH   3   6
ATOM      6  C   UNL     1       6.686   4.834  14.645  0.00  0.00    +0.000 A 
ATOM      7  C   UNL     1       7.646   5.380  13.778  0.00  0.00    +0.000 A 
ATOM      8  C   UNL     1       7.727   4.960  12.450  0.00  0.00    +0.000 A 
ATOM      9  C   UNL     1       6.848   3.992  11.972  0.00  0.00    +0.000 A 
ATOM     10  C   UNL     1       5.891   3.440  12.824  0.00  0.00    +0.000 A 
ATOM     11  C   UNL     1       5.814   3.855  14.156  0.00  0.00    +0.000 A 
ENDBRANCH   3   6
BRANCH   1  12
ATOM     12  C   UNL     1       5.440   5.083  19.443  0.00  0.00    +0.000 C 
BRANCH  12  14
ATOM     13  N   UNL     1       3.204   4.058  19.415  0.00  0.00    +0.000 N 
ATOM     14  C   UNL     1       3.929   5.228  19.404  0.00  0.00    +0.000 C 
ATOM     15  O   UNL     1       3.402   6.334  19.284  0.00  0.00    +0.000 OA
ATOM     16  H   UNL     1       3.721   3.193  19.594  0.00  0.00    +0.000 HD
BRANCH  13  17
ATOM     17  C   UNL     1       1.750   4.004  19.375  0.00  0.00    +0.000 C 
BRANCH  17  19
ATOM     18  C   UNL     1       2.453   2.231  17.664  0.00  0.00    +0.000 C 
ATOM     19  C   UNL     1       1.315   3.063  18.238  0.00  0.00    +0.000 C 
ENDBRANCH  17  19
BRANCH  17  20
ATOM     20  C   UNL     1       1.151   3.667  20.753  0.00  0.00    +0.000 C 
ATOM     21  C   UNL     1       2.084   2.934  21.708  0.00  0.00    +0.000 C 
ENDBRANCH  17  20
ENDBRANCH  13  17
ENDBRANCH  12  14
ENDBRANCH   1  12
TORSDOF 6
ENDMDL
MODEL 5
REMARK VINA RESULT:      -7.1      2.443      7.143
REMARK  Name = 
REMARK  8 active torsions:
REMARK  status: ('A' for Active; 'I' for Inactive)
REMARK    1  A    between atoms: C_1  and  C_2
REMARK    2  A    between atoms: C_2  and  C_3
REMARK    3  A    between atoms: C_3  and  C_4
REMARK    4  A    between atoms: C_3  and  N_6
REMARK    5  A    between atoms: C_4  and  C_5
REMARK    6  A    between atoms: C_7  and  C_9
REMARK    7  A    between atoms: C_9  and  N_10
REMARK    8  A    between atoms: C_12  and  C_13
REMARK                            x       y       z     vdW  Elec       q    Type
REMARK                         _______ _______ _______ _____ _____    ______ ____
ROOT
ATOM      1  N   UNL     1       5.746   5.104  17.844  0.00  0.00    +0.000 N 
ATOM      2  C   UNL     1       6.378   4.467  16.816  0.00  0.00    +0.000 A 
ATOM      3  C   UNL     1       5.986   5.107  15.659  0.00  0.00    +0.000 A 
ATOM      4  C   UNL     1       5.174   6.170  16.114  0.00  0.00    +0.000 A 
ATOM      5  N   UNL     1       5.031   6.181  17.442  0.00  0.00    +0.000 NA
ENDROOT
BRANCH   3   6
ATOM      6  C   UNL     1       6.365   4.705  14.317  0.00  0.00    +0.000 A 
ATOM      7  C   UNL     1       5.617   3.743  13.621  0.00  0.00    +0.000 A 
ATOM      8  C   UNL     1       5.966   3.370  12.323  0.00  0.00    +0.000 A 
ATOM      9  C   UNL     1       7.069   3.954  11.705  0.00  0.00    +0.000 A 
ATOM     10  C   UNL     1       7.820   4.914  12.385  0.00  0.00    +0.000 A 
ATOM     11  C   UNL     1       7.466   5.292  13.684  0.00  0.00    +0.000 A 
ENDBRANCH   3   6
BRANCH   1  12
ATOM     12  C   UNL     1       5.747   4.711  19.242  0.00  0.00    +0.000 C 
BRANCH  12  14
ATOM     13  N   UNL     1       3.376   4.093  19.463  0.00  0.00    +0.000 N 
ATOM     14  C   UNL     1       4.684   3.679  19.577  0.00  0.00    +0.000 C 
ATOM     15  O   UNL     1       4.994   2.567  20.005  0.00  0.00    +0.000 OA
ATOM     16  H   UNL     1       3.214   5.004  19.027  0.00  0.00    +0.000 HD
BRANCH  13  17
ATOM     17  C   UNL     1       2.228   3.244  19.750  0.00  0.00    +0.000 C 
BRANCH  17  19
ATOM     18  C   UNL     1       1.460   5.470  20.758  0.00  0.00    +0.000 C 
ATOM     19  C   UNL     1       1.323   3.955  20.771  0.00  0.00    +0.000 C 
ENDBRANCH  17  19
BRANCH  17  20
ATOM     20  C   UNL     1       1.514   2.792  18.463  0.00  0.00    +0.000 C 
ATOM     21  C   UNL     1       2.223   3.153  17.164  0.00  0.00    +0.000 C 
ENDBRANCH  17  20
ENDBRANCH  13  17
ENDBRANCH  12  14
ENDBRANCH   1  12
TORSDOF 6
ENDMDL
MODEL 6
REMARK VINA RESULT:      -7.0      2.318      7.133
REMARK  Name = 
REMARK  8 active torsions:
REMARK  status: ('A' for Active; 'I' for Inactive)
REMARK    1  A    between atoms: C_1  and  C_2
REMARK    2  A    between atoms: C_2  and  C_3
REMARK    3  A    between atoms: C_3  and  C_4
REMARK    4  A    between atoms: C_3  and  N_6
REMARK    5  A    between atoms: C_4  and  C_5
REMARK    6  A    between atoms: C_7  and  C_9
REMARK    7  A    between atoms: C_9  and  N_10
REMARK    8  A    between atoms: C_12  and  C_13
REMARK                            x       y       z     vdW  Elec       q    Type
REMARK                         _______ _______ _______ _____ _____    ______ ____
ROOT
ATOM      1  N   UNL     1       5.360   5.495  17.599  0.00  0.00    +0.000 N 
ATOM      2  C   UNL     1       5.185   5.395  16.249  0.00  0.00    +0.000 A 
ATOM      3  C   UNL     1       6.306   4.761  15.755  0.00  0.00    +0.000 A 
ATOM      4  C   UNL     1       7.061   4.451  16.909  0.00  0.00    +0.000 A 
ATOM      5  N   UNL     1       6.487   4.886  18.035  0.00  0.00    +0.000 NA
ENDROOT
BRANCH   3   6
ATOM      6  C   UNL     1       6.570   4.515  14.350  0.00  0.00    +0.000 A 
ATOM      7  C   UNL     1       5.801   3.588  13.630  0.00  0.00    +0.000 A 
ATOM      8  C   UNL     1       6.038   3.366  12.273  0.00  0.00    +0.000 A 
ATOM      9  C   UNL     1       7.048   4.068  11.620  0.00  0.00    +0.000 A 
ATOM     10  C   UNL     1       7.817   4.996  12.324  0.00  0.00    +0.000 A 
ATOM     11  C   UNL     1       7.575   5.222  13.681  0.00  0.00    +0.000 A 
ENDBRANCH   3   6
BRANCH   1  12
ATOM     12  C   UNL     1       4.504   6.201  18.536  0.00  0.00    +0.000 C 
BRANCH  12  14
ATOM     13  N   UNL     1       2.903   4.378  18.940  0.00  0.00    +0.000 N 
ATOM     14  C   UNL     1       3.075   5.687  18.551  0.00  0.00    +0.000 C 
ATOM     15  O   UNL     1       2.146   6.389  18.154  0.00  0.00    +0.000 OA
ATOM     16  H   UNL     1       3.720   3.897  19.326  0.00  0.00    +0.000 HD
BRANCH  13  17
ATOM     17  C   UNL     1       1.609   3.714  19.007  0.00  0.00    +0.000 C 
BRANCH  17  19
ATOM     18  C   UNL     1       3.136   1.971  17.916  0.00  0.00    +0.000 C 
ATOM     19  C   UNL     1       1.754   2.278  18.473  0.00  0.00    +0.000 C 
ENDBRANCH  17  19
BRANCH  17  20
ATOM     20  C   UNL     1       0.984   3.818  20.411  0.00  0.00    +0.000 C 
ATOM     21  C   UNL     1       1.411   2.737  21.396  0.00  0.00    +0.000 C 
ENDBRANCH  17  20
ENDBRANCH  13  17
ENDBRANCH  12  14
ENDBRANCH   1  12
TORSDOF 6
ENDMDL
MODEL 7
REMARK VINA RESULT:      -6.9      5.274      7.588
REMARK  Name = 
REMARK  8 active torsions:
REMARK  status: ('A' for Active; 'I' for Inactive)
REMARK    1  A    between atoms: C_1  and  C_2
REMARK    2  A    between atoms: C_2  and  C_3
REMARK    3  A    between atoms: C_3  and  C_4
REMARK    4  A    between atoms: C_3  and  N_6
REMARK    5  A    between atoms: C_4  and  C_5
REMARK    6  A    between atoms: C_7  and  C_9
REMARK    7  A    between atoms: C_9  and  N_10
REMARK    8  A    between atoms: C_12  and  C_13
REMARK                            x       y       z     vdW  Elec       q    Type
REMARK                         _______ _______ _______ _____ _____    ______ ____
ROOT
ATOM      1  N   UNL     1       7.994   7.082  18.509  0.00  0.00    +0.000 N 
ATOM      2  C   UNL     1       8.667   8.020  19.237  0.00  0.00    +0.000 A 
ATOM      3  C   UNL     1       8.616   9.191  18.509  0.00  0.00    +0.000 A 
ATOM      4  C   UNL     1       7.817   8.864  17.390  0.00  0.00    +0.000 A 
ATOM      5  N   UNL     1       7.426   7.586  17.388  0.00  0.00    +0.000 NA
ENDROOT
BRANCH   3   6
ATOM      6  C   UNL     1       9.273  10.430  18.881  0.00  0.00    +0.000 A 
ATOM      7  C   UNL     1       9.569  10.706  20.225  0.00  0.00    +0.000 A 
ATOM      8  C   UNL     1      10.221  11.886  20.584  0.00  0.00    +0.000 A 
ATOM      9  C   UNL     1      10.582  12.806  19.603  0.00  0.00    +0.000 A 
ATOM     10  C   UNL     1      10.296  12.543  18.263  0.00  0.00    +0.000 A 
ATOM     11  C   UNL     1       9.649  11.357  17.903  0.00  0.00    +0.000 A 
ENDBRANCH   3   6
BRANCH   1  12
ATOM     12  C   UNL     1       7.886   5.665  18.806  0.00  0.00    +0.000 C 
BRANCH  12  14
ATOM     13  N   UNL     1       5.982   4.831  17.490  0.00  0.00    +0.000 N 
ATOM     14  C   UNL     1       7.350   4.847  17.644  0.00  0.00    +0.000 C 
ATOM     15  O   UNL     1       8.105   4.175  16.941  0.00  0.00    +0.000 OA
ATOM     16  H   UNL     1       5.442   5.478  18.070  0.00  0.00    +0.000 HD
BRANCH  13  17
ATOM     17  C   UNL     1       5.292   4.095  16.440  0.00  0.00    +0.000 C 
BRANCH  17  19
ATOM     18  C   UNL     1       3.227   4.917  17.713  0.00  0.00    +0.000 C 
ATOM     19  C   UNL     1       3.855   3.795  16.900  0.00  0.00    +0.000 C 
ENDBRANCH  17  19
BRANCH  17  20
ATOM     20  C   UNL     1       5.395   4.809  15.079  0.00  0.00    +0.000 C 
ATOM     21  C   UNL     1       6.085   4.015  13.977  0.00  0.00    +0.000 C 
ENDBRANCH  17  20
ENDBRANCH  13  17
ENDBRANCH  12  14
ENDBRANCH   1  12
TORSDOF 6
ENDMDL
MODEL 8
REMARK VINA RESULT:      -6.8      2.514      7.202
REMARK  Name = 
REMARK  8 active torsions:
REMARK  status: ('A' for Active; 'I' for Inactive)
REMARK    1  A    between atoms: C_1  and  C_2
REMARK    2  A    between atoms: C_2  and  C_3
REMARK    3  A    between atoms: C_3  and  C_4
REMARK    4  A    between atoms: C_3  and  N_6
REMARK    5  A    between atoms: C_4  and  C_5
REMARK    6  A    between atoms: C_7  and  C_9
REMARK    7  A    between atoms: C_9  and  N_10
REMARK    8  A    between atoms: C_12  and  C_13
REMARK                            x       y       z     vdW  Elec       q    Type
REMARK                         _______ _______ _______ _____ _____    ______ ____
ROOT
ATOM      1  N   UNL     1       5.313   5.631  17.764  0.00  0.00    +0.000 N 
ATOM      2  C   UNL     1       5.879   4.785  16.855  0.00  0.00    +0.000 A 
ATOM      3  C   UNL     1       5.791   5.413  15.629  0.00  0.00    +0.000 A 
ATOM      4  C   UNL     1       5.222   6.672  15.929  0.00  0.00    +0.000 A 
ATOM      5  N   UNL     1       4.938   6.815  17.227  0.00  0.00    +0.000 NA
ENDROOT
BRANCH   3   6
ATOM      6  C   UNL     1       6.208   4.832  14.367  0.00  0.00    +0.000 A 
ATOM      7  C   UNL     1       5.428   3.847  13.742  0.00  0.00    +0.000 A 
ATOM      8  C   UNL     1       5.815   3.303  12.517  0.00  0.00    +0.000 A 
ATOM      9  C   UNL     1       6.988   3.736  11.903  0.00  0.00    +0.000 A 
ATOM     10  C   UNL     1       7.771   4.717  12.513  0.00  0.00    +0.000 A 
ATOM     11  C   UNL     1       7.379   5.267  13.737  0.00  0.00    +0.000 A 
ENDBRANCH   3   6
BRANCH   1  12
ATOM     12  C   UNL     1       5.058   5.355  19.167  0.00  0.00    +0.000 C 
BRANCH  12  14
ATOM     13  N   UNL     1       2.971   4.056  19.273  0.00  0.00    +0.000 N 
ATOM     14  C   UNL     1       3.579   5.269  19.503  0.00  0.00    +0.000 C 
ATOM     15  O   UNL     1       2.957   6.262  19.881  0.00  0.00    +0.000 OA
ATOM     16  H   UNL     1       3.581   3.269  19.033  0.00  0.00    +0.000 HD
BRANCH  13  17
ATOM     17  C   UNL     1       1.562   3.792  19.528  0.00  0.00    +0.000 C 
BRANCH  17  19
ATOM     18  C   UNL     1       2.217   2.012  17.806  0.00  0.00    +0.000 C 
ATOM     19  C   UNL     1       1.131   2.552  18.725  0.00  0.00    +0.000 C 
ENDBRANCH  17  19
BRANCH  17  20
ATOM     20  C   UNL     1       1.257   3.719  21.036  0.00  0.00    +0.000 C 
ATOM     21  C   UNL     1       1.645   2.413  21.717  0.00  0.00    +0.000 C 
ENDBRANCH  17  20
ENDBRANCH  13  17
ENDBRANCH  12  14
ENDBRANCH   1  12
TORSDOF 6
ENDMDL
MODEL 9
REMARK VINA RESULT:      -6.7      5.438      8.254
REMARK  Name = 
REMARK  8 active torsions:
REMARK  status: ('A' for Active; 'I' for Inactive)
REMARK    1  A    between atoms: C_1  and  C_2
REMARK    2  A    between atoms: C_2  and  C_3
REMARK    3  A    between atoms: C_3  and  C_4
REMARK    4  A    between atoms: C_3  and  N_6
REMARK    5  A    between atoms: C_4  and  C_5
REMARK    6  A    between atoms: C_7  and  C_9
REMARK    7  A    between atoms: C_9  and  N_10
REMARK    8  A    between atoms: C_12  and  C_13
REMARK                            x       y       z     vdW  Elec       q    Type
REMARK                         _______ _______ _______ _____ _____    ______ ____
ROOT
ATOM      1  N   UNL     1       7.740   7.266  18.066  0.00  0.00    +0.000 N 
ATOM      2  C   UNL     1       8.609   7.990  18.829  0.00  0.00    +0.000 A 
ATOM      3  C   UNL     1       8.534   9.292  18.381  0.00  0.00    +0.000 A 
ATOM      4  C   UNL     1       7.526   9.256  17.391  0.00  0.00    +0.000 A 
ATOM      5  N   UNL     1       7.031   8.029  17.201  0.00  0.00    +0.000 NA
ENDROOT
BRANCH   3   6
ATOM      6  C   UNL     1       9.350  10.388  18.869  0.00  0.00    +0.000 A 
ATOM      7  C   UNL     1       9.417  10.673  20.241  0.00  0.00    +0.000 A 
ATOM      8  C   UNL     1      10.220  11.711  20.716  0.00  0.00    +0.000 A 
ATOM      9  C   UNL     1      10.963  12.478  19.823  0.00  0.00    +0.000 A 
ATOM     10  C   UNL     1      10.908  12.203  18.456  0.00  0.00    +0.000 A 
ATOM     11  C   UNL     1      10.110  11.158  17.981  0.00  0.00    +0.000 A 
ENDBRANCH   3   6
BRANCH   1  12
ATOM     12  C   UNL     1       7.562   5.826  18.079  0.00  0.00    +0.000 C 
BRANCH  12  14
ATOM     13  N   UNL     1       5.108   5.665  18.089  0.00  0.00    +0.000 N 
ATOM     14  C   UNL     1       6.277   5.384  18.758  0.00  0.00    +0.000 C 
ATOM     15  O   UNL     1       6.295   4.881  19.882  0.00  0.00    +0.000 OA
ATOM     16  H   UNL     1       5.193   6.013  17.131  0.00  0.00    +0.000 HD
BRANCH  13  17
ATOM     17  C   UNL     1       3.784   5.324  18.590  0.00  0.00    +0.000 C 
BRANCH  17  19
ATOM     18  C   UNL     1       3.273   7.666  17.687  0.00  0.00    +0.000 C 
ATOM     19  C   UNL     1       2.957   6.613  18.739  0.00  0.00    +0.000 C 
ENDBRANCH  17  19
BRANCH  17  20
ATOM     20  C   UNL     1       3.115   4.226  17.742  0.00  0.00    +0.000 C 
ATOM     21  C   UNL     1       1.592   4.243  17.736  0.00  0.00    +0.000 C 
ENDBRANCH  17  20
ENDBRANCH  13  17
ENDBRANCH  12  14
ENDBRANCH   1  12
TORSDOF 6
ENDMDL
