MODEL 1
REMARK VINA RESULT:      -8.7      0.000      0.000
REMARK  Name = 
REMARK  11 active torsions:
REMARK  status: ('A' for Active; 'I' for Inactive)
REMARK    1  A    between atoms: C_6  and  C_7
REMARK    2  A    between atoms: C_10  and  O_11
REMARK    3  A    between atoms: C_12  and  C_13
REMARK    4  A    between atoms: C_12  and  C_14
REMARK    5  A    between atoms: C_14  and  O_15
REMARK    6  A    between atoms: C_16  and  C_17
REMARK    7  A    between atoms: C_17  and  C_18
REMARK    8  A    between atoms: C_24  and  O_25
REMARK    9  A    between atoms: O_25  and  C_26
REMARK   10  A    between atoms: C_31  and  O_32
REMARK   11  A    between atoms: O_32  and  C_33
REMARK                            x       y       z     vdW  Elec       q    Type
REMARK                         _______ _______ _______ _____ _____    ______ ____
ROOT
ATOM      1  C   UNL     1       3.968   7.449  16.643  0.00  0.00    +0.000 C 
ATOM      2  C   UNL     1       4.039   6.749  17.791  0.00  0.00    +0.000 C 
ATOM      3  C   UNL     1       5.188   5.794  18.014  0.00  0.00    +0.000 C 
ATOM      4  C   UNL     1       4.734   4.355  18.315  0.00  0.00    +0.000 C 
ATOM      5  C   UNL     1       3.660   4.297  19.417  0.00  0.00    +0.000 C 
ATOM      6  C   UNL     1       2.453   5.272  19.136  0.00  0.00    +0.000 C 
ATOM      7  C   UNL     1       1.695   4.918  17.824  0.00  0.00    +0.000 C 
ATOM      8  C   UNL     1       1.533   5.263  20.392  0.00  0.00    +0.000 C 
ATOM      9  C   UNL     1       1.400   4.028  21.278  0.00  0.00    +0.000 C 
ATOM     10  C   UNL     1       2.603   3.093  21.333  0.00  0.00    +0.000 C 
ATOM     11  C   UNL     1       3.224   2.848  19.933  0.00  0.00    +0.000 C 
ATOM     12  C   UNL     1       4.442   1.904  20.077  0.00  0.00    +0.000 C 
ATOM     13  C   UNL     1       2.986   6.767  18.917  0.00  0.00    +0.000 C 
ENDROOT
BRANCH  10  14
ATOM     14  O   UNL     1       2.217   1.873  21.970  0.00  0.00    +0.000 OA
ATOM     15  H   UNL     1       2.723   1.136  21.584  0.00  0.00    +0.000 HD
ENDBRANCH  10  14
BRANCH  11  16
ATOM     16  C   UNL     1       2.185   2.062  19.091  0.00  0.00    +0.000 C 
BRANCH  16  17
ATOM     17  O   UNL     1       2.742   1.518  17.906  0.00  0.00    +0.000 OA
ATOM     18  H   UNL     1       2.788   2.235  17.252  0.00  0.00    +0.000 HD
ENDBRANCH  16  17
ENDBRANCH  11  16
BRANCH  13  19
ATOM     19  C   UNL     1       1.868   7.847  18.679  0.00  0.00    +0.000 C 
BRANCH  19  20
ATOM     20  C   UNL     1       1.636   8.958  19.675  0.00  0.00    +0.000 C 
ATOM     21  C   UNL     1       0.830  10.030  19.579  0.00  0.00    +0.000 C 
ATOM     22  C   UNL     1       0.780  11.008  20.689  0.00  0.00    +0.000 C 
ATOM     23  O   UNL     1       1.294  10.881  21.786  0.00  0.00    +0.000 OA
ATOM     24  O   UNL     1       0.104  12.103  20.268  0.00  0.00    +0.000 OA
ATOM     25  C   UNL     1      -0.143  12.003  18.866  0.00  0.00    +0.000 C 
ATOM     26  C   UNL     1      -0.019  10.540  18.478  0.00  0.00    +0.000 C 
BRANCH  26  27
ATOM     27  O   UNL     1      -1.276   9.865  18.521  0.00  0.00    +0.000 OA
BRANCH  27  28
ATOM     28  C   UNL     1      -2.190  10.147  17.539  0.00  0.00    +0.000 A 
ATOM     29  C   UNL     1      -2.051   9.688  16.216  0.00  0.00    +0.000 A 
ATOM     30  C   UNL     1      -2.970  10.039  15.224  0.00  0.00    +0.000 A 
ATOM     31  C   UNL     1      -4.051  10.848  15.539  0.00  0.00    +0.000 A 
ATOM     32  C   UNL     1      -4.193  11.320  16.841  0.00  0.00    +0.000 A 
ATOM     33  C   UNL     1      -3.272  10.988  17.846  0.00  0.00    +0.000 A 
BRANCH  33  34
ATOM     34  O   UNL     1      -3.573  11.593  19.037  0.00  0.00    +0.000 OA
ATOM     35  C   UNL     1      -4.785  12.322  19.139  0.00  0.00    +0.000 C 
ENDBRANCH  33  34
ENDBRANCH  27  28
ENDBRANCH  26  27
ENDBRANCH  19  20
ENDBRANCH  13  19
TORSDOF 8
ENDMDL
MODEL 2
REMARK VINA RESULT:      -8.4      0.715      1.600
REMARK  Name = 
REMARK  11 active torsions:
REMARK  status: ('A' for Active; 'I' for Inactive)
REMARK    1  A    between atoms: C_6  and  C_7
REMARK    2  A    between atoms: C_10  and  O_11
REMARK    3  A    between atoms: C_12  and  C_13
REMARK    4  A    between atoms: C_12  and  C_14
REMARK    5  A    between atoms: C_14  and  O_15
REMARK    6  A    between atoms: C_16  and  C_17
REMARK    7  A    between atoms: C_17  and  C_18
REMARK    8  A    between atoms: C_24  and  O_25
REMARK    9  A    between atoms: O_25  and  C_26
REMARK   10  A    between atoms: C_31  and  O_32
REMARK   11  A    between atoms: O_32  and  C_33
REMARK                            x       y       z     vdW  Elec       q    Type
REMARK                         _______ _______ _______ _____ _____    ______ ____
ROOT
ATOM      1  C   UNL     1       4.105   7.404  16.585  0.00  0.00    +0.000 C 
ATOM      2  C   UNL     1       4.131   6.736  17.753  0.00  0.00    +0.000 C 
ATOM      3  C   UNL     1       5.275   5.794  18.051  0.00  0.00    +0.000 C 
ATOM      4  C   UNL     1       4.815   4.362  18.371  0.00  0.00    +0.000 C 
ATOM      5  C   UNL     1       3.696   4.327  19.429  0.00  0.00    +0.000 C 
ATOM      6  C   UNL     1       2.497   5.286  19.071  0.00  0.00    +0.000 C 
ATOM      7  C   UNL     1       1.797   4.893  17.738  0.00  0.00    +0.000 C 
ATOM      8  C   UNL     1       1.525   5.306  20.287  0.00  0.00    +0.000 C 
ATOM      9  C   UNL     1       1.361   4.095  21.200  0.00  0.00    +0.000 C 
ATOM     10  C   UNL     1       2.565   3.169  21.331  0.00  0.00    +0.000 C 
ATOM     11  C   UNL     1       3.245   2.890  19.965  0.00  0.00    +0.000 C 
ATOM     12  C   UNL     1       4.461   1.957  20.186  0.00  0.00    +0.000 C 
ATOM     13  C   UNL     1       3.032   6.778  18.834  0.00  0.00    +0.000 C 
ENDROOT
BRANCH  10  14
ATOM     14  O   UNL     1       2.159   1.964  21.985  0.00  0.00    +0.000 OA
ATOM     15  H   UNL     1       2.701   1.225  21.657  0.00  0.00    +0.000 HD
ENDBRANCH  10  14
BRANCH  11  16
ATOM     16  C   UNL     1       2.247   2.075  19.103  0.00  0.00    +0.000 C 
BRANCH  16  17
ATOM     17  O   UNL     1       2.868   1.448  17.993  0.00  0.00    +0.000 OA
ATOM     18  H   UNL     1       3.745   1.853  17.885  0.00  0.00    +0.000 HD
ENDBRANCH  16  17
ENDBRANCH  11  16
BRANCH  13  19
ATOM     19  C   UNL     1       1.919   7.845  18.520  0.00  0.00    +0.000 C 
BRANCH  19  20
ATOM     20  C   UNL     1       1.610   8.955  19.495  0.00  0.00    +0.000 C 
ATOM     21  C   UNL     1       0.777  10.001  19.355  0.00  0.00    +0.000 C 
ATOM     22  C   UNL     1       0.649  10.985  20.453  0.00  0.00    +0.000 C 
ATOM     23  O   UNL     1       1.118  10.882  21.572  0.00  0.00    +0.000 OA
ATOM     24  O   UNL     1      -0.041  12.056  19.993  0.00  0.00    +0.000 OA
ATOM     25  C   UNL     1      -0.223  11.939  18.583  0.00  0.00    +0.000 C 
ATOM     26  C   UNL     1      -0.038  10.477  18.213  0.00  0.00    +0.000 C 
BRANCH  26  27
ATOM     27  O   UNL     1      -1.274   9.764  18.207  0.00  0.00    +0.000 OA
BRANCH  27  28
ATOM     28  C   UNL     1      -2.417  10.462  17.913  0.00  0.00    +0.000 A 
ATOM     29  C   UNL     1      -3.141  11.178  18.884  0.00  0.00    +0.000 A 
ATOM     30  C   UNL     1      -4.333  11.834  18.565  0.00  0.00    +0.000 A 
ATOM     31  C   UNL     1      -4.816  11.794  17.266  0.00  0.00    +0.000 A 
ATOM     32  C   UNL     1      -4.117  11.079  16.299  0.00  0.00    +0.000 A 
ATOM     33  C   UNL     1      -2.925  10.404  16.605  0.00  0.00    +0.000 A 
BRANCH  33  34
ATOM     34  O   UNL     1      -2.427   9.728  15.523  0.00  0.00    +0.000 OA
ATOM     35  C   UNL     1      -2.964  10.011  14.241  0.00  0.00    +0.000 C 
ENDBRANCH  33  34
ENDBRANCH  27  28
ENDBRANCH  26  27
ENDBRANCH  19  20
ENDBRANCH  13  19
TORSDOF 8
ENDMDL
MODEL 3
REMARK VINA RESULT:      -8.3      2.595      9.001
REMARK  Name = 
REMARK  11 active torsions:
REMARK  status: ('A' for Active; 'I' for Inactive)
REMARK    1  A    between atoms: C_6  and  C_7
REMARK    2  A    between atoms: C_10  and  O_11
REMARK    3  A    between atoms: C_12  and  C_13
REMARK    4  A    between atoms: C_12  and  C_14
REMARK    5  A    between atoms: C_14  and  O_15
REMARK    6  A    between atoms: C_16  and  C_17
REMARK    7  A    between atoms: C_17  and  C_18
REMARK    8  A    between atoms: C_24  and  O_25
REMARK    9  A    between atoms: O_25  and  C_26
REMARK   10  A    between atoms: C_31  and  O_32
REMARK   11  A    between atoms: O_32  and  C_33
REMARK                            x       y       z     vdW  Elec       q    Type
REMARK                         _______ _______ _______ _____ _____    ______ ____
ROOT
ATOM      1  C   UNL     1       1.780   9.469  17.775  0.00  0.00    +0.000 C 
ATOM      2  C   UNL     1       0.684   9.651  18.535  0.00  0.00    +0.000 C 
ATOM      3  C   UNL     1      -0.513  10.372  17.960  0.00  0.00    +0.000 C 
ATOM      4  C   UNL     1      -0.940  11.597  18.787  0.00  0.00    +0.000 C 
ATOM      5  C   UNL     1      -1.076  11.274  20.287  0.00  0.00    +0.000 C 
ATOM      6  C   UNL     1       0.204  10.561  20.869  0.00  0.00    +0.000 C 
ATOM      7  C   UNL     1       1.477  11.449  20.768  0.00  0.00    +0.000 C 
ATOM      8  C   UNL     1      -0.119  10.123  22.328  0.00  0.00    +0.000 C 
ATOM      9  C   UNL     1      -1.089  10.911  23.204  0.00  0.00    +0.000 C 
ATOM     10  C   UNL     1      -2.193  11.677  22.485  0.00  0.00    +0.000 C 
ATOM     11  C   UNL     1      -1.671  12.421  21.228  0.00  0.00    +0.000 C 
ATOM     12  C   UNL     1      -2.851  13.160  20.550  0.00  0.00    +0.000 C 
ATOM     13  C   UNL     1       0.544   9.248  20.017  0.00  0.00    +0.000 C 
ENDROOT
BRANCH  10  14
ATOM     14  O   UNL     1      -2.825  12.564  23.410  0.00  0.00    +0.000 OA
ATOM     15  H   UNL     1      -3.490  12.070  23.923  0.00  0.00    +0.000 HD
ENDBRANCH  10  14
BRANCH  11  16
ATOM     16  C   UNL     1      -0.705  13.535  21.711  0.00  0.00    +0.000 C 
BRANCH  16  17
ATOM     17  O   UNL     1      -1.390  14.664  22.230  0.00  0.00    +0.000 OA
ATOM     18  H   UNL     1      -1.475  14.534  23.189  0.00  0.00    +0.000 HD
ENDBRANCH  16  17
ENDBRANCH  11  16
BRANCH  13  19
ATOM     19  C   UNL     1       1.775   8.416  20.533  0.00  0.00    +0.000 C 
BRANCH  19  20
ATOM     20  C   UNL     1       1.701   6.914  20.658  0.00  0.00    +0.000 C 
ATOM     21  C   UNL     1       2.166   5.968  19.824  0.00  0.00    +0.000 C 
ATOM     22  C   UNL     1       1.957   4.539  20.150  0.00  0.00    +0.000 C 
ATOM     23  O   UNL     1       1.521   4.094  21.196  0.00  0.00    +0.000 OA
ATOM     24  O   UNL     1       2.285   3.798  19.065  0.00  0.00    +0.000 OA
ATOM     25  C   UNL     1       2.523   4.658  17.951  0.00  0.00    +0.000 C 
ATOM     26  C   UNL     1       2.814   6.046  18.494  0.00  0.00    +0.000 C 
BRANCH  26  27
ATOM     27  O   UNL     1       4.211   6.269  18.679  0.00  0.00    +0.000 OA
BRANCH  27  28
ATOM     28  C   UNL     1       5.061   5.884  17.675  0.00  0.00    +0.000 A 
ATOM     29  C   UNL     1       4.764   6.075  16.313  0.00  0.00    +0.000 A 
ATOM     30  C   UNL     1       5.626   5.622  15.311  0.00  0.00    +0.000 A 
ATOM     31  C   UNL     1       6.805   4.978  15.653  0.00  0.00    +0.000 A 
ATOM     32  C   UNL     1       7.104   4.771  16.996  0.00  0.00    +0.000 A 
ATOM     33  C   UNL     1       6.244   5.208  18.015  0.00  0.00    +0.000 A 
BRANCH  33  34
ATOM     34  O   UNL     1       6.705   4.863  19.257  0.00  0.00    +0.000 OA
ATOM     35  C   UNL     1       7.830   5.550  19.778  0.00  0.00    +0.000 C 
ENDBRANCH  33  34
ENDBRANCH  27  28
ENDBRANCH  26  27
ENDBRANCH  19  20
ENDBRANCH  13  19
TORSDOF 8
ENDMDL
MODEL 4
REMARK VINA RESULT:      -8.2      1.244      1.686
REMARK  Name = 
REMARK  11 active torsions:
REMARK  status: ('A' for Active; 'I' for Inactive)
REMARK    1  A    between atoms: C_6  and  C_7
REMARK    2  A    between atoms: C_10  and  O_11
REMARK    3  A    between atoms: C_12  and  C_13
REMARK    4  A    between atoms: C_12  and  C_14
REMARK    5  A    between atoms: C_14  and  O_15
REMARK    6  A    between atoms: C_16  and  C_17
REMARK    7  A    between atoms: C_17  and  C_18
REMARK    8  A    between atoms: C_24  and  O_25
REMARK    9  A    between atoms: O_25  and  C_26
REMARK   10  A    between atoms: C_31  and  O_32
REMARK   11  A    between atoms: O_32  and  C_33
REMARK                            x       y       z     vdW  Elec       q    Type
REMARK                         _______ _______ _______ _____ _____    ______ ____
ROOT
ATOM      1  C   UNL     1       1.689   8.846  17.575  0.00  0.00    +0.000 C 
ATOM      2  C   UNL     1       2.570   8.036  18.191  0.00  0.00    +0.000 C 
ATOM      3  C   UNL     1       3.952   7.854  17.607  0.00  0.00    +0.000 C 
ATOM      4  C   UNL     1       4.301   6.384  17.317  0.00  0.00    +0.000 C 
ATOM      5  C   UNL     1       4.012   5.464  18.518  0.00  0.00    +0.000 C 
ATOM      6  C   UNL     1       2.550   5.645  19.079  0.00  0.00    +0.000 C 
ATOM      7  C   UNL     1       1.460   5.281  18.030  0.00  0.00    +0.000 C 
ATOM      8  C   UNL     1       2.437   4.810  20.389  0.00  0.00    +0.000 C 
ATOM      9  C   UNL     1       3.241   3.529  20.593  0.00  0.00    +0.000 C 
ATOM     10  C   UNL     1       4.575   3.435  19.862  0.00  0.00    +0.000 C 
ATOM     11  C   UNL     1       4.482   3.941  18.398  0.00  0.00    +0.000 C 
ATOM     12  C   UNL     1       5.876   3.825  17.734  0.00  0.00    +0.000 C 
ATOM     13  C   UNL     1       2.281   7.182  19.441  0.00  0.00    +0.000 C 
ENDROOT
BRANCH  10  14
ATOM     14  O   UNL     1       5.055   2.091  19.937  0.00  0.00    +0.000 OA
ATOM     15  H   UNL     1       4.428   1.502  19.482  0.00  0.00    +0.000 HD
ENDBRANCH  10  14
BRANCH  11  16
ATOM     16  C   UNL     1       3.568   2.959  17.621  0.00  0.00    +0.000 C 
BRANCH  16  17
ATOM     17  O   UNL     1       4.168   1.687  17.433  0.00  0.00    +0.000 OA
ATOM     18  H   UNL     1       4.088   1.466  16.491  0.00  0.00    +0.000 HD
ENDBRANCH  16  17
ENDBRANCH  11  16
BRANCH  13  19
ATOM     19  C   UNL     1       0.868   7.485  20.063  0.00  0.00    +0.000 C 
BRANCH  19  20
ATOM     20  C   UNL     1       0.667   8.644  21.010  0.00  0.00    +0.000 C 
ATOM     21  C   UNL     1       0.102   9.841  20.779  0.00  0.00    +0.000 C 
ATOM     22  C   UNL     1       0.033  10.839  21.870  0.00  0.00    +0.000 C 
ATOM     23  O   UNL     1       0.308  10.648  23.040  0.00  0.00    +0.000 OA
ATOM     24  O   UNL     1      -0.343  12.028  21.342  0.00  0.00    +0.000 OA
ATOM     25  C   UNL     1      -0.347  11.941  19.918  0.00  0.00    +0.000 C 
ATOM     26  C   UNL     1      -0.426  10.471  19.546  0.00  0.00    +0.000 C 
BRANCH  26  27
ATOM     27  O   UNL     1      -1.772  10.036  19.352  0.00  0.00    +0.000 OA
BRANCH  27  28
ATOM     28  C   UNL     1      -2.362  10.298  18.143  0.00  0.00    +0.000 A 
ATOM     29  C   UNL     1      -1.901   9.741  16.936  0.00  0.00    +0.000 A 
ATOM     30  C   UNL     1      -2.490  10.070  15.712  0.00  0.00    +0.000 A 
ATOM     31  C   UNL     1      -3.557  10.954  15.675  0.00  0.00    +0.000 A 
ATOM     32  C   UNL     1      -4.015  11.522  16.860  0.00  0.00    +0.000 A 
ATOM     33  C   UNL     1      -3.427  11.213  18.096  0.00  0.00    +0.000 A 
BRANCH  33  34
ATOM     34  O   UNL     1      -3.997  11.914  19.125  0.00  0.00    +0.000 OA
ATOM     35  C   UNL     1      -5.403  12.101  19.120  0.00  0.00    +0.000 C 
ENDBRANCH  33  34
ENDBRANCH  27  28
ENDBRANCH  26  27
ENDBRANCH  19  20
ENDBRANCH  13  19
TORSDOF 8
ENDMDL
MODEL 5
REMARK VINA RESULT:      -8.0      2.877      4.911
REMARK  Name = 
REMARK  11 active torsions:
REMARK  status: ('A' for Active; 'I' for Inactive)
REMARK    1  A    between atoms: C_6  and  C_7
REMARK    2  A    between atoms: C_10  and  O_11
REMARK    3  A    between atoms: C_12  and  C_13
REMARK    4  A    between atoms: C_12  and  C_14
REMARK    5  A    between atoms: C_14  and  O_15
REMARK    6  A    between atoms: C_16  and  C_17
REMARK    7  A    between atoms: C_17  and  C_18
REMARK    8  A    between atoms: C_24  and  O_25
REMARK    9  A    between atoms: O_25  and  C_26
REMARK   10  A    between atoms: C_31  and  O_32
REMARK   11  A    between atoms: O_32  and  C_33
REMARK                            x       y       z     vdW  Elec       q    Type
REMARK                         _______ _______ _______ _____ _____    ______ ____
ROOT
ATOM      1  C   UNL     1       1.347   4.565  20.433  0.00  0.00    +0.000 C 
ATOM      2  C   UNL     1       1.848   4.670  19.187  0.00  0.00    +0.000 C 
ATOM      3  C   UNL     1       2.036   3.426  18.350  0.00  0.00    +0.000 C 
ATOM      4  C   UNL     1       3.481   3.237  17.857  0.00  0.00    +0.000 C 
ATOM      5  C   UNL     1       4.049   4.512  17.204  0.00  0.00    +0.000 C 
ATOM      6  C   UNL     1       3.878   5.786  18.118  0.00  0.00    +0.000 C 
ATOM      7  C   UNL     1       4.640   5.656  19.468  0.00  0.00    +0.000 C 
ATOM      8  C   UNL     1       4.315   7.028  17.288  0.00  0.00    +0.000 C 
ATOM      9  C   UNL     1       5.390   6.932  16.209  0.00  0.00    +0.000 C 
ATOM     10  C   UNL     1       5.540   5.585  15.512  0.00  0.00    +0.000 C 
ATOM     11  C   UNL     1       5.483   4.396  16.507  0.00  0.00    +0.000 C 
ATOM     12  C   UNL     1       5.629   3.070  15.721  0.00  0.00    +0.000 C 
ATOM     13  C   UNL     1       2.340   5.973  18.526  0.00  0.00    +0.000 C 
ENDROOT
BRANCH  10  14
ATOM     14  O   UNL     1       6.748   5.587  14.747  0.00  0.00    +0.000 OA
ATOM     15  H   UNL     1       6.535   5.417  13.812  0.00  0.00    +0.000 HD
ENDBRANCH  10  14
BRANCH  11  16
ATOM     16  C   UNL     1       6.739   4.483  17.413  0.00  0.00    +0.000 C 
BRANCH  16  17
ATOM     17  O   UNL     1       7.921   4.072  16.747  0.00  0.00    +0.000 OA
ATOM     18  H   UNL     1       7.768   3.172  16.414  0.00  0.00    +0.000 HD
ENDBRANCH  16  17
ENDBRANCH  11  16
BRANCH  13  19
ATOM     19  C   UNL     1       2.029   7.245  19.399  0.00  0.00    +0.000 C 
BRANCH  19  20
ATOM     20  C   UNL     1       2.000   8.622  18.782  0.00  0.00    +0.000 C 
ATOM     21  C   UNL     1       1.166   9.646  19.031  0.00  0.00    +0.000 C 
ATOM     22  C   UNL     1       1.319  10.913  18.280  0.00  0.00    +0.000 C 
ATOM     23  O   UNL     1       2.237  11.202  17.534  0.00  0.00    +0.000 OA
ATOM     24  O   UNL     1       0.236  11.689  18.519  0.00  0.00    +0.000 OA
ATOM     25  C   UNL     1      -0.741  10.939  19.241  0.00  0.00    +0.000 C 
ATOM     26  C   UNL     1      -0.031   9.767  19.895  0.00  0.00    +0.000 C 
BRANCH  26  27
ATOM     27  O   UNL     1       0.393  10.068  21.224  0.00  0.00    +0.000 OA
BRANCH  27  28
ATOM     28  C   UNL     1      -0.265  11.064  21.897  0.00  0.00    +0.000 A 
ATOM     29  C   UNL     1      -1.501  10.861  22.536  0.00  0.00    +0.000 A 
ATOM     30  C   UNL     1      -2.174  11.911  23.167  0.00  0.00    +0.000 A 
ATOM     31  C   UNL     1      -1.617  13.180  23.180  0.00  0.00    +0.000 A 
ATOM     32  C   UNL     1      -0.401  13.397  22.540  0.00  0.00    +0.000 A 
ATOM     33  C   UNL     1       0.282  12.358  21.890  0.00  0.00    +0.000 A 
BRANCH  33  34
ATOM     34  O   UNL     1       1.431  12.797  21.289  0.00  0.00    +0.000 OA
ATOM     35  C   UNL     1       1.400  14.027  20.584  0.00  0.00    +0.000 C 
ENDBRANCH  33  34
ENDBRANCH  27  28
ENDBRANCH  26  27
ENDBRANCH  19  20
ENDBRANCH  13  19
TORSDOF 8
ENDMDL
MODEL 6
REMARK VINA RESULT:      -8.0      2.599      8.979
REMARK  Name = 
REMARK  11 active torsions:
REMARK  status: ('A' for Active; 'I' for Inactive)
REMARK    1  A    between atoms: C_6  and  C_7
REMARK    2  A    between atoms: C_10  and  O_11
REMARK    3  A    between atoms: C_12  and  C_13
REMARK    4  A    between atoms: C_12  and  C_14
REMARK    5  A    between atoms: C_14  and  O_15
REMARK    6  A    between atoms: C_16  and  C_17
REMARK    7  A    between atoms: C_17  and  C_18
REMARK    8  A    between atoms: C_24  and  O_25
REMARK    9  A    between atoms: O_25  and  C_26
REMARK   10  A    between atoms: C_31  and  O_32
REMARK   11  A    between atoms: O_32  and  C_33
REMARK                            x       y       z     vdW  Elec       q    Type
REMARK                         _______ _______ _______ _____ _____    ______ ____
ROOT
ATOM      1  C   UNL     1       0.621   7.080  20.894  0.00  0.00    +0.000 C 
ATOM      2  C   UNL     1       1.235   8.274  20.801  0.00  0.00    +0.000 C 
ATOM      3  C   UNL     1       1.182   9.235  21.966  0.00  0.00    +0.000 C 
ATOM      4  C   UNL     1       0.600  10.610  21.595  0.00  0.00    +0.000 C 
ATOM      5  C   UNL     1       1.255  11.204  20.334  0.00  0.00    +0.000 C 
ATOM      6  C   UNL     1       1.258  10.196  19.122  0.00  0.00    +0.000 C 
ATOM      7  C   UNL     1      -0.178   9.800  18.674  0.00  0.00    +0.000 C 
ATOM      8  C   UNL     1       2.100  10.831  17.978  0.00  0.00    +0.000 C 
ATOM      9  C   UNL     1       2.179  12.343  17.786  0.00  0.00    +0.000 C 
ATOM     10  C   UNL     1       2.008  13.200  19.035  0.00  0.00    +0.000 C 
ATOM     11  C   UNL     1       0.851  12.699  19.940  0.00  0.00    +0.000 C 
ATOM     12  C   UNL     1       0.753  13.611  21.187  0.00  0.00    +0.000 C 
ATOM     13  C   UNL     1       1.954   8.817  19.549  0.00  0.00    +0.000 C 
ENDROOT
BRANCH  10  14
ATOM     14  O   UNL     1       1.832  14.564  18.644  0.00  0.00    +0.000 OA
ATOM     15  H   UNL     1       1.719  14.608  17.678  0.00  0.00    +0.000 HD
ENDBRANCH  10  14
BRANCH  11  16
ATOM     16  C   UNL     1      -0.475  12.911  19.164  0.00  0.00    +0.000 C 
BRANCH  16  17
ATOM     17  O   UNL     1      -0.895  14.266  19.160  0.00  0.00    +0.000 OA
ATOM     18  H   UNL     1      -1.026  14.525  18.233  0.00  0.00    +0.000 HD
ENDBRANCH  16  17
ENDBRANCH  11  16
BRANCH  13  19
ATOM     19  C   UNL     1       2.066   7.742  18.406  0.00  0.00    +0.000 C 
BRANCH  19  20
ATOM     20  C   UNL     1       3.358   7.539  17.653  0.00  0.00    +0.000 C 
ATOM     21  C   UNL     1       4.321   6.622  17.850  0.00  0.00    +0.000 C 
ATOM     22  C   UNL     1       5.524   6.628  16.987  0.00  0.00    +0.000 C 
ATOM     23  O   UNL     1       5.690   7.302  15.987  0.00  0.00    +0.000 OA
ATOM     24  O   UNL     1       6.442   5.791  17.524  0.00  0.00    +0.000 OA
ATOM     25  C   UNL     1       6.004   5.360  18.812  0.00  0.00    +0.000 C 
ATOM     26  C   UNL     1       4.503   5.578  18.885  0.00  0.00    +0.000 C 
BRANCH  26  27
ATOM     27  O   UNL     1       3.771   4.416  18.495  0.00  0.00    +0.000 OA
BRANCH  27  28
ATOM     28  C   UNL     1       2.998   3.796  19.442  0.00  0.00    +0.000 A 
ATOM     29  C   UNL     1       1.651   4.135  19.664  0.00  0.00    +0.000 A 
ATOM     30  C   UNL     1       0.905   3.524  20.676  0.00  0.00    +0.000 A 
ATOM     31  C   UNL     1       1.490   2.555  21.476  0.00  0.00    +0.000 A 
ATOM     32  C   UNL     1       2.826   2.220  21.275  0.00  0.00    +0.000 A 
ATOM     33  C   UNL     1       3.593   2.833  20.273  0.00  0.00    +0.000 A 
BRANCH  33  34
ATOM     34  O   UNL     1       4.889   2.391  20.278  0.00  0.00    +0.000 OA
ATOM     35  C   UNL     1       5.207   1.230  21.027  0.00  0.00    +0.000 C 
ENDBRANCH  33  34
ENDBRANCH  27  28
ENDBRANCH  26  27
ENDBRANCH  19  20
ENDBRANCH  13  19
TORSDOF 8
ENDMDL
MODEL 7
REMARK VINA RESULT:      -7.9      2.360      8.619
REMARK  Name = 
REMARK  11 active torsions:
REMARK  status: ('A' for Active; 'I' for Inactive)
REMARK    1  A    between atoms: C_6  and  C_7
REMARK    2  A    between atoms: C_10  and  O_11
REMARK    3  A    between atoms: C_12  and  C_13
REMARK    4  A    between atoms: C_12  and  C_14
REMARK    5  A    between atoms: C_14  and  O_15
REMARK    6  A    between atoms: C_16  and  C_17
REMARK    7  A    between atoms: C_17  and  C_18
REMARK    8  A    between atoms: C_24  and  O_25
REMARK    9  A    between atoms: O_25  and  C_26
REMARK   10  A    between atoms: C_31  and  O_32
REMARK   11  A    between atoms: O_32  and  C_33
REMARK                            x       y       z     vdW  Elec       q    Type
REMARK                         _______ _______ _______ _____ _____    ______ ____
ROOT
ATOM      1  C   UNL     1       1.077   6.294  20.394  0.00  0.00    +0.000 C 
ATOM      2  C   UNL     1       1.486   7.575  20.455  0.00  0.00    +0.000 C 
ATOM      3  C   UNL     1       1.135   8.416  21.661  0.00  0.00    +0.000 C 
ATOM      4  C   UNL     1       0.375   9.704  21.303  0.00  0.00    +0.000 C 
ATOM      5  C   UNL     1       1.064  10.499  20.177  0.00  0.00    +0.000 C 
ATOM      6  C   UNL     1       1.380   9.607  18.916  0.00  0.00    +0.000 C 
ATOM      7  C   UNL     1       0.094   9.024  18.262  0.00  0.00    +0.000 C 
ATOM      8  C   UNL     1       2.231  10.461  17.931  0.00  0.00    +0.000 C 
ATOM      9  C   UNL     1       2.074  11.977  17.845  0.00  0.00    +0.000 C 
ATOM     10  C   UNL     1       1.614  12.690  19.111  0.00  0.00    +0.000 C 
ATOM     11  C   UNL     1       0.461  11.937  19.826  0.00  0.00    +0.000 C 
ATOM     12  C   UNL     1       0.064  12.715  21.104  0.00  0.00    +0.000 C 
ATOM     13  C   UNL     1       2.244   8.327  19.343  0.00  0.00    +0.000 C 
ENDROOT
BRANCH  10  14
ATOM     14  O   UNL     1       1.257  14.035  18.787  0.00  0.00    +0.000 OA
ATOM     15  H   UNL     1       1.606  14.633  19.471  0.00  0.00    +0.000 HD
ENDBRANCH  10  14
BRANCH  11  16
ATOM     16  C   UNL     1      -0.781  11.996  18.900  0.00  0.00    +0.000 C 
BRANCH  16  17
ATOM     17  O   UNL     1      -1.478  13.227  18.999  0.00  0.00    +0.000 OA
ATOM     18  H   UNL     1      -1.929  13.373  18.151  0.00  0.00    +0.000 HD
ENDBRANCH  16  17
ENDBRANCH  11  16
BRANCH  13  19
ATOM     19  C   UNL     1       2.670   7.382  18.160  0.00  0.00    +0.000 C 
BRANCH  19  20
ATOM     20  C   UNL     1       4.105   7.316  17.695  0.00  0.00    +0.000 C 
ATOM     21  C   UNL     1       5.042   6.390  17.961  0.00  0.00    +0.000 C 
ATOM     22  C   UNL     1       6.404   6.547  17.402  0.00  0.00    +0.000 C 
ATOM     23  O   UNL     1       6.755   7.373  16.580  0.00  0.00    +0.000 OA
ATOM     24  O   UNL     1       7.220   5.645  17.997  0.00  0.00    +0.000 OA
ATOM     25  C   UNL     1       6.529   5.010  19.073  0.00  0.00    +0.000 C 
ATOM     26  C   UNL     1       5.040   5.197  18.839  0.00  0.00    +0.000 C 
BRANCH  26  27
ATOM     27  O   UNL     1       4.467   4.104  18.122  0.00  0.00    +0.000 OA
BRANCH  27  28
ATOM     28  C   UNL     1       3.242   3.641  18.528  0.00  0.00    +0.000 A 
ATOM     29  C   UNL     1       2.065   3.855  17.786  0.00  0.00    +0.000 A 
ATOM     30  C   UNL     1       0.823   3.419  18.254  0.00  0.00    +0.000 A 
ATOM     31  C   UNL     1       0.736   2.754  19.467  0.00  0.00    +0.000 A 
ATOM     32  C   UNL     1       1.890   2.548  20.216  0.00  0.00    +0.000 A 
ATOM     33  C   UNL     1       3.144   2.990  19.768  0.00  0.00    +0.000 A 
BRANCH  33  34
ATOM     34  O   UNL     1       4.135   2.727  20.676  0.00  0.00    +0.000 OA
ATOM     35  C   UNL     1       4.888   1.535  20.531  0.00  0.00    +0.000 C 
ENDBRANCH  33  34
ENDBRANCH  27  28
ENDBRANCH  26  27
ENDBRANCH  19  20
ENDBRANCH  13  19
TORSDOF 8
ENDMDL
MODEL 8
REMARK VINA RESULT:      -7.9      2.611      9.277
REMARK  Name = 
REMARK  11 active torsions:
REMARK  status: ('A' for Active; 'I' for Inactive)
REMARK    1  A    between atoms: C_6  and  C_7
REMARK    2  A    between atoms: C_10  and  O_11
REMARK    3  A    between atoms: C_12  and  C_13
REMARK    4  A    between atoms: C_12  and  C_14
REMARK    5  A    between atoms: C_14  and  O_15
REMARK    6  A    between atoms: C_16  and  C_17
REMARK    7  A    between atoms: C_17  and  C_18
REMARK    8  A    between atoms: C_24  and  O_25
REMARK    9  A    between atoms: O_25  and  C_26
REMARK   10  A    between atoms: C_31  and  O_32
REMARK   11  A    between atoms: O_32  and  C_33
REMARK                            x       y       z     vdW  Elec       q    Type
REMARK                         _______ _______ _______ _____ _____    ______ ____
ROOT
ATOM      1  C   UNL     1      -0.472   8.132  21.529  0.00  0.00    +0.000 C 
ATOM      2  C   UNL     1       0.278   9.244  21.414  0.00  0.00    +0.000 C 
ATOM      3  C   UNL     1       0.047  10.403  22.357  0.00  0.00    +0.000 C 
ATOM      4  C   UNL     1      -0.264  11.724  21.633  0.00  0.00    +0.000 C 
ATOM      5  C   UNL     1       0.748  12.032  20.513  0.00  0.00    +0.000 C 
ATOM      6  C   UNL     1       0.937  10.822  19.520  0.00  0.00    +0.000 C 
ATOM      7  C   UNL     1      -0.378  10.452  18.776  0.00  0.00    +0.000 C 
ATOM      8  C   UNL     1       2.105  11.178  18.554  0.00  0.00    +0.000 C 
ATOM      9  C   UNL     1       2.401  12.621  18.154  0.00  0.00    +0.000 C 
ATOM     10  C   UNL     1       2.023  13.701  19.161  0.00  0.00    +0.000 C 
ATOM     11  C   UNL     1       0.628  13.454  19.794  0.00  0.00    +0.000 C 
ATOM     12  C   UNL     1       0.328  14.583  20.811  0.00  0.00    +0.000 C 
ATOM     13  C   UNL     1       1.343   9.499  20.328  0.00  0.00    +0.000 C 
ENDROOT
BRANCH  10  14
ATOM     14  O   UNL     1       2.108  14.979  18.528  0.00  0.00    +0.000 OA
ATOM     15  H   UNL     1       1.210  15.337  18.409  0.00  0.00    +0.000 HD
ENDBRANCH  10  14
BRANCH  11  16
ATOM     16  C   UNL     1      -0.429  13.613  18.672  0.00  0.00    +0.000 C 
BRANCH  16  17
ATOM     17  O   UNL     1      -1.754  13.674  19.174  0.00  0.00    +0.000 OA
ATOM     18  H   UNL     1      -1.715  13.456  20.120  0.00  0.00    +0.000 HD
ENDBRANCH  16  17
ENDBRANCH  11  16
BRANCH  13  19
ATOM     19  C   UNL     1       1.612   8.229  19.440  0.00  0.00    +0.000 C 
BRANCH  19  20
ATOM     20  C   UNL     1       1.885   6.884  20.069  0.00  0.00    +0.000 C 
ATOM     21  C   UNL     1       2.533   5.823  19.558  0.00  0.00    +0.000 C 
ATOM     22  C   UNL     1       2.663   4.589  20.364  0.00  0.00    +0.000 C 
ATOM     23  O   UNL     1       2.365   4.458  21.537  0.00  0.00    +0.000 OA
ATOM     24  O   UNL     1       3.126   3.599  19.564  0.00  0.00    +0.000 OA
ATOM     25  C   UNL     1       3.135   4.044  18.208  0.00  0.00    +0.000 C 
ATOM     26  C   UNL     1       3.115   5.562  18.221  0.00  0.00    +0.000 C 
BRANCH  26  27
ATOM     27  O   UNL     1       4.429   6.119  18.178  0.00  0.00    +0.000 OA
BRANCH  27  28
ATOM     28  C   UNL     1       5.285   5.668  17.207  0.00  0.00    +0.000 A 
ATOM     29  C   UNL     1       5.004   5.781  15.833  0.00  0.00    +0.000 A 
ATOM     30  C   UNL     1       5.871   5.262  14.869  0.00  0.00    +0.000 A 
ATOM     31  C   UNL     1       7.040   4.628  15.260  0.00  0.00    +0.000 A 
ATOM     32  C   UNL     1       7.324   4.498  16.616  0.00  0.00    +0.000 A 
ATOM     33  C   UNL     1       6.458   5.002  17.599  0.00  0.00    +0.000 A 
BRANCH  33  34
ATOM     34  O   UNL     1       6.903   4.726  18.864  0.00  0.00    +0.000 OA
ATOM     35  C   UNL     1       7.742   5.671  19.508  0.00  0.00    +0.000 C 
ENDBRANCH  33  34
ENDBRANCH  27  28
ENDBRANCH  26  27
ENDBRANCH  19  20
ENDBRANCH  13  19
TORSDOF 8
ENDMDL
MODEL 9
REMARK VINA RESULT:      -7.8      2.530      8.497
REMARK  Name = 
REMARK  11 active torsions:
REMARK  status: ('A' for Active; 'I' for Inactive)
REMARK    1  A    between atoms: C_6  and  C_7
REMARK    2  A    between atoms: C_10  and  O_11
REMARK    3  A    between atoms: C_12  and  C_13
REMARK    4  A    between atoms: C_12  and  C_14
REMARK    5  A    between atoms: C_14  and  O_15
REMARK    6  A    between atoms: C_16  and  C_17
REMARK    7  A    between atoms: C_17  and  C_18
REMARK    8  A    between atoms: C_24  and  O_25
REMARK    9  A    between atoms: O_25  and  C_26
REMARK   10  A    between atoms: C_31  and  O_32
REMARK   11  A    between atoms: O_32  and  C_33
REMARK                            x       y       z     vdW  Elec       q    Type
REMARK                         _______ _______ _______ _____ _____    ______ ____
ROOT
ATOM      1  C   UNL     1       0.911   6.617  20.690  0.00  0.00    +0.000 C 
ATOM      2  C   UNL     1       1.422   7.862  20.646  0.00  0.00    +0.000 C 
ATOM      3  C   UNL     1       1.265   8.777  21.838  0.00  0.00    +0.000 C 
ATOM      4  C   UNL     1       0.574  10.108  21.497  0.00  0.00    +0.000 C 
ATOM      5  C   UNL     1       1.200  10.797  20.269  0.00  0.00    +0.000 C 
ATOM      6  C   UNL     1       1.312   9.832  19.027  0.00  0.00    +0.000 C 
ATOM      7  C   UNL     1      -0.077   9.330  18.537  0.00  0.00    +0.000 C 
ATOM      8  C   UNL     1       2.118  10.573  17.921  0.00  0.00    +0.000 C 
ATOM      9  C   UNL     1       2.070  12.091  17.777  0.00  0.00    +0.000 C 
ATOM     10  C   UNL     1       1.803  12.890  19.047  0.00  0.00    +0.000 C 
ATOM     11  C   UNL     1       0.677  12.264  19.911  0.00  0.00    +0.000 C 
ATOM     12  C   UNL     1       0.477  13.124  21.183  0.00  0.00    +0.000 C 
ATOM     13  C   UNL     1       2.115   8.504  19.427  0.00  0.00    +0.000 C 
ENDROOT
BRANCH  10  14
ATOM     14  O   UNL     1       1.519  14.246  18.695  0.00  0.00    +0.000 OA
ATOM     15  H   UNL     1       2.043  14.489  17.911  0.00  0.00    +0.000 HD
ENDBRANCH  10  14
BRANCH  11  16
ATOM     16  C   UNL     1      -0.648  12.387  19.114  0.00  0.00    +0.000 C 
BRANCH  16  17
ATOM     17  O   UNL     1      -1.202  13.691  19.173  0.00  0.00    +0.000 OA
ATOM     18  H   UNL     1      -0.466  14.321  19.099  0.00  0.00    +0.000 HD
ENDBRANCH  16  17
ENDBRANCH  11  16
BRANCH  13  19
ATOM     19  C   UNL     1       2.340   7.480  18.254  0.00  0.00    +0.000 C 
BRANCH  19  20
ATOM     20  C   UNL     1       3.707   7.285  17.644  0.00  0.00    +0.000 C 
ATOM     21  C   UNL     1       4.685   6.436  18.004  0.00  0.00    +0.000 C 
ATOM     22  C   UNL     1       5.963   6.436  17.259  0.00  0.00    +0.000 C 
ATOM     23  O   UNL     1       6.197   7.037  16.226  0.00  0.00    +0.000 OA
ATOM     24  O   UNL     1       6.861   5.689  17.945  0.00  0.00    +0.000 OA
ATOM     25  C   UNL     1       6.320   5.339  19.218  0.00  0.00    +0.000 C 
ATOM     26  C   UNL     1       4.811   5.485  19.133  0.00  0.00    +0.000 C 
BRANCH  26  27
ATOM     27  O   UNL     1       4.170   4.261  18.773  0.00  0.00    +0.000 OA
BRANCH  27  28
ATOM     28  C   UNL     1       3.141   3.819  19.564  0.00  0.00    +0.000 A 
ATOM     29  C   UNL     1       3.247   3.718  20.963  0.00  0.00    +0.000 A 
ATOM     30  C   UNL     1       2.200   3.211  21.737  0.00  0.00    +0.000 A 
ATOM     31  C   UNL     1       1.024   2.805  21.125  0.00  0.00    +0.000 A 
ATOM     32  C   UNL     1       0.911   2.887  19.741  0.00  0.00    +0.000 A 
ATOM     33  C   UNL     1       1.958   3.381  18.948  0.00  0.00    +0.000 A 
BRANCH  33  34
ATOM     34  O   UNL     1       1.656   3.332  17.613  0.00  0.00    +0.000 OA
ATOM     35  C   UNL     1       0.884   4.381  17.053  0.00  0.00    +0.000 C 
ENDBRANCH  33  34
ENDBRANCH  27  28
ENDBRANCH  26  27
ENDBRANCH  19  20
ENDBRANCH  13  19
TORSDOF 8
ENDMDL
