MODEL 1
REMARK VINA RESULT:      -8.2      0.000      0.000
REMARK  Name = 
REMARK  6 active torsions:
REMARK  status: ('A' for Active; 'I' for Inactive)
REMARK    1  A    between atoms: C_4  and  C_5
REMARK    2  A    between atoms: C_5  and  C_6
REMARK    3  A    between atoms: C_6  and  C_7
REMARK    4  A    between atoms: C_7  and  C_8
REMARK    5  A    between atoms: C_8  and  N_9
REMARK    6  A    between atoms: C_13  and  C_14
REMARK                            x       y       z     vdW  Elec       q    Type
REMARK                         _______ _______ _______ _____ _____    ______ ____
ROOT
ATOM      1  N   UNL     1       1.754   3.619  19.520  0.00  0.00    +0.000 N 
ATOM      2  C   UNL     1       1.865   2.440  20.211  0.00  0.00    +0.000 A 
ATOM      3  C   UNL     1       2.194   2.808  21.489  0.00  0.00    +0.000 A 
ATOM      4  N   UNL     1       2.299   4.175  21.596  0.00  0.00    +0.000 NA
ATOM      5  C   UNL     1       2.010   4.655  20.397  0.00  0.00    +0.000 A 
ENDROOT
BRANCH   5   6
ATOM      6  C   UNL     1       2.037   6.109  20.015  0.00  0.00    +0.000 A 
ATOM      7  C   UNL     1       2.509   6.710  18.826  0.00  0.00    +0.000 A 
ATOM      8  C   UNL     1       2.135   8.048  18.914  0.00  0.00    +0.000 A 
ATOM      9  N   UNL     1       1.533   8.170  20.134  0.00  0.00    +0.000 N 
ATOM     10  N   UNL     1       1.520   7.027  20.831  0.00  0.00    +0.000 NA
ATOM     11  C   UNL     1       0.990   9.318  20.819  0.00  0.00    +0.000 C 
ATOM     12  C   UNL     1       0.205  10.373  20.057  0.00  0.00    +0.000 C 
ATOM     13  C   UNL     1       0.817  10.918  18.778  0.00  0.00    +0.000 C 
ATOM     14  N   UNL     1       1.078   9.923  17.751  0.00  0.00    +0.000 NA
ATOM     15  C   UNL     1       2.308   9.171  17.958  0.00  0.00    +0.000 C 
ATOM     16  H   UNL     1       0.292   9.288  17.628  0.00  0.00    +0.000 HD
ENDBRANCH   5   6
BRANCH   1  17
ATOM     17  C   UNL     1       1.546   3.698  18.083  0.00  0.00    +0.000 C 
BRANCH  17  18
ATOM     18  C   UNL     1       2.653   3.033  17.253  0.00  0.00    +0.000 C 
BRANCH  18  19
ATOM     19  C   UNL     1       4.060   3.503  17.631  0.00  0.00    +0.000 C 
BRANCH  19  20
ATOM     20  C   UNL     1       4.570   4.564  16.655  0.00  0.00    +0.000 C 
BRANCH  20  24
ATOM     21  C   UNL     1       7.840   6.845  18.302  0.00  0.00    +0.000 A 
ATOM     22  C   UNL     1       7.620   5.538  18.723  0.00  0.00    +0.000 A 
ATOM     23  C   UNL     1       6.556   4.801  18.200  0.00  0.00    +0.000 A 
ATOM     24  C   UNL     1       5.710   5.363  17.235  0.00  0.00    +0.000 A 
ATOM     25  C   UNL     1       5.931   6.682  16.824  0.00  0.00    +0.000 A 
ATOM     26  C   UNL     1       6.992   7.420  17.353  0.00  0.00    +0.000 A 
ENDBRANCH  20  24
ENDBRANCH  19  20
ENDBRANCH  18  19
ENDBRANCH  17  18
ENDBRANCH   1  17
TORSDOF 6
ENDMDL
MODEL 2
REMARK VINA RESULT:      -8.2      3.481      6.395
REMARK  Name = 
REMARK  6 active torsions:
REMARK  status: ('A' for Active; 'I' for Inactive)
REMARK    1  A    between atoms: C_4  and  C_5
REMARK    2  A    between atoms: C_5  and  C_6
REMARK    3  A    between atoms: C_6  and  C_7
REMARK    4  A    between atoms: C_7  and  C_8
REMARK    5  A    between atoms: C_8  and  N_9
REMARK    6  A    between atoms: C_13  and  C_14
REMARK                            x       y       z     vdW  Elec       q    Type
REMARK                         _______ _______ _______ _____ _____    ______ ____
ROOT
ATOM      1  N   UNL     1       6.643   5.478  16.529  0.00  0.00    +0.000 N 
ATOM      2  C   UNL     1       7.140   5.287  15.266  0.00  0.00    +0.000 A 
ATOM      3  C   UNL     1       6.259   4.427  14.665  0.00  0.00    +0.000 A 
ATOM      4  N   UNL     1       5.246   4.077  15.527  0.00  0.00    +0.000 NA
ATOM      5  C   UNL     1       5.481   4.739  16.649  0.00  0.00    +0.000 A 
ENDROOT
BRANCH   5   6
ATOM      6  C   UNL     1       4.659   4.639  17.903  0.00  0.00    +0.000 A 
ATOM      7  C   UNL     1       3.711   5.550  18.422  0.00  0.00    +0.000 A 
ATOM      8  C   UNL     1       3.117   4.893  19.497  0.00  0.00    +0.000 A 
ATOM      9  N   UNL     1       3.765   3.693  19.583  0.00  0.00    +0.000 N 
ATOM     10  N   UNL     1       4.733   3.552  18.670  0.00  0.00    +0.000 NA
ATOM     11  C   UNL     1       3.638   2.607  20.524  0.00  0.00    +0.000 C 
ATOM     12  C   UNL     1       2.271   2.178  21.031  0.00  0.00    +0.000 C 
ATOM     13  C   UNL     1       1.338   3.264  21.540  0.00  0.00    +0.000 C 
ATOM     14  N   UNL     1       1.001   4.289  20.566  0.00  0.00    +0.000 NA
ATOM     15  C   UNL     1       2.025   5.314  20.410  0.00  0.00    +0.000 C 
ATOM     16  H   UNL     1       0.760   3.889  19.660  0.00  0.00    +0.000 HD
ENDBRANCH   5   6
BRANCH   1  17
ATOM     17  C   UNL     1       7.336   6.223  17.567  0.00  0.00    +0.000 C 
BRANCH  17  18
ATOM     18  C   UNL     1       7.589   7.695  17.217  0.00  0.00    +0.000 C 
BRANCH  18  19
ATOM     19  C   UNL     1       8.377   8.447  18.294  0.00  0.00    +0.000 C 
BRANCH  19  20
ATOM     20  C   UNL     1       8.239   9.961  18.123  0.00  0.00    +0.000 C 
BRANCH  20  24
ATOM     21  C   UNL     1      11.595  12.098  19.793  0.00  0.00    +0.000 A 
ATOM     22  C   UNL     1      11.540  11.843  18.427  0.00  0.00    +0.000 A 
ATOM     23  C   UNL     1      10.461  11.143  17.885  0.00  0.00    +0.000 A 
ATOM     24  C   UNL     1       9.415  10.703  18.707  0.00  0.00    +0.000 A 
ATOM     25  C   UNL     1       9.482  10.954  20.082  0.00  0.00    +0.000 A 
ATOM     26  C   UNL     1      10.566  11.649  20.624  0.00  0.00    +0.000 A 
ENDBRANCH  20  24
ENDBRANCH  19  20
ENDBRANCH  18  19
ENDBRANCH  17  18
ENDBRANCH   1  17
TORSDOF 6
ENDMDL
MODEL 3
REMARK VINA RESULT:      -7.8      3.447      6.276
REMARK  Name = 
REMARK  6 active torsions:
REMARK  status: ('A' for Active; 'I' for Inactive)
REMARK    1  A    between atoms: C_4  and  C_5
REMARK    2  A    between atoms: C_5  and  C_6
REMARK    3  A    between atoms: C_6  and  C_7
REMARK    4  A    between atoms: C_7  and  C_8
REMARK    5  A    between atoms: C_8  and  N_9
REMARK    6  A    between atoms: C_13  and  C_14
REMARK                            x       y       z     vdW  Elec       q    Type
REMARK                         _______ _______ _______ _____ _____    ______ ____
ROOT
ATOM      1  N   UNL     1       6.716   5.376  16.061  0.00  0.00    +0.000 N 
ATOM      2  C   UNL     1       7.466   5.378  14.913  0.00  0.00    +0.000 A 
ATOM      3  C   UNL     1       6.780   4.572  14.042  0.00  0.00    +0.000 A 
ATOM      4  N   UNL     1       5.642   4.070  14.626  0.00  0.00    +0.000 NA
ATOM      5  C   UNL     1       5.605   4.583  15.846  0.00  0.00    +0.000 A 
ENDROOT
BRANCH   5   6
ATOM      6  C   UNL     1       4.557   4.283  16.881  0.00  0.00    +0.000 A 
ATOM      7  C   UNL     1       4.234   3.050  17.493  0.00  0.00    +0.000 A 
ATOM      8  C   UNL     1       3.325   3.363  18.500  0.00  0.00    +0.000 A 
ATOM      9  N   UNL     1       3.127   4.710  18.394  0.00  0.00    +0.000 N 
ATOM     10  N   UNL     1       3.815   5.266  17.389  0.00  0.00    +0.000 NA
ATOM     11  C   UNL     1       2.257   5.606  19.118  0.00  0.00    +0.000 C 
ATOM     12  C   UNL     1       2.063   5.451  20.617  0.00  0.00    +0.000 C 
ATOM     13  C   UNL     1       1.743   4.063  21.145  0.00  0.00    +0.000 C 
ATOM     14  N   UNL     1       2.746   3.051  20.856  0.00  0.00    +0.000 NA
ATOM     15  C   UNL     1       2.658   2.503  19.509  0.00  0.00    +0.000 C 
ATOM     16  H   UNL     1       3.690   3.387  21.040  0.00  0.00    +0.000 HD
ENDBRANCH   5   6
BRANCH   1  17
ATOM     17  C   UNL     1       7.138   6.000  17.304  0.00  0.00    +0.000 C 
BRANCH  17  18
ATOM     18  C   UNL     1       6.996   7.529  17.316  0.00  0.00    +0.000 C 
BRANCH  18  19
ATOM     19  C   UNL     1       8.203   8.245  17.928  0.00  0.00    +0.000 C 
BRANCH  19  20
ATOM     20  C   UNL     1       8.007   9.762  17.923  0.00  0.00    +0.000 C 
BRANCH  20  24
ATOM     21  C   UNL     1      11.346  11.810  19.731  0.00  0.00    +0.000 A 
ATOM     22  C   UNL     1      10.321  11.311  20.527  0.00  0.00    +0.000 A 
ATOM     23  C   UNL     1       9.233  10.656  19.944  0.00  0.00    +0.000 A 
ATOM     24  C   UNL     1       9.171  10.482  18.555  0.00  0.00    +0.000 A 
ATOM     25  C   UNL     1      10.202  10.996  17.760  0.00  0.00    +0.000 A 
ATOM     26  C   UNL     1      11.286  11.656  18.345  0.00  0.00    +0.000 A 
ENDBRANCH  20  24
ENDBRANCH  19  20
ENDBRANCH  18  19
ENDBRANCH  17  18
ENDBRANCH   1  17
TORSDOF 6
ENDMDL
MODEL 4
REMARK VINA RESULT:      -7.8      3.547      5.527
REMARK  Name = 
REMARK  6 active torsions:
REMARK  status: ('A' for Active; 'I' for Inactive)
REMARK    1  A    between atoms: C_4  and  C_5
REMARK    2  A    between atoms: C_5  and  C_6
REMARK    3  A    between atoms: C_6  and  C_7
REMARK    4  A    between atoms: C_7  and  C_8
REMARK    5  A    between atoms: C_8  and  N_9
REMARK    6  A    between atoms: C_13  and  C_14
REMARK                            x       y       z     vdW  Elec       q    Type
REMARK                         _______ _______ _______ _____ _____    ______ ____
ROOT
ATOM      1  N   UNL     1       6.410   5.822  16.958  0.00  0.00    +0.000 N 
ATOM      2  C   UNL     1       7.140   5.067  16.076  0.00  0.00    +0.000 A 
ATOM      3  C   UNL     1       6.214   4.307  15.410  0.00  0.00    +0.000 A 
ATOM      4  N   UNL     1       4.944   4.565  15.868  0.00  0.00    +0.000 NA
ATOM      5  C   UNL     1       5.076   5.502  16.794  0.00  0.00    +0.000 A 
ENDROOT
BRANCH   5   6
ATOM      6  C   UNL     1       3.954   6.077  17.612  0.00  0.00    +0.000 A 
ATOM      7  C   UNL     1       3.444   5.642  18.856  0.00  0.00    +0.000 A 
ATOM      8  C   UNL     1       2.541   6.626  19.251  0.00  0.00    +0.000 A 
ATOM      9  N   UNL     1       2.529   7.529  18.227  0.00  0.00    +0.000 N 
ATOM     10  N   UNL     1       3.327   7.182  17.210  0.00  0.00    +0.000 NA
ATOM     11  C   UNL     1       1.755   8.730  18.023  0.00  0.00    +0.000 C 
ATOM     12  C   UNL     1       1.477   9.675  19.181  0.00  0.00    +0.000 C 
ATOM     13  C   UNL     1       0.952   9.071  20.472  0.00  0.00    +0.000 C 
ATOM     14  N   UNL     1       1.824   8.080  21.083  0.00  0.00    +0.000 NA
ATOM     15  C   UNL     1       1.722   6.756  20.483  0.00  0.00    +0.000 C 
ATOM     16  H   UNL     1       2.795   8.387  21.101  0.00  0.00    +0.000 HD
ENDBRANCH   5   6
BRANCH   1  17
ATOM     17  C   UNL     1       7.002   6.683  17.968  0.00  0.00    +0.000 C 
BRANCH  17  18
ATOM     18  C   UNL     1       7.770   7.882  17.395  0.00  0.00    +0.000 C 
BRANCH  18  19
ATOM     19  C   UNL     1       8.540   8.673  18.456  0.00  0.00    +0.000 C 
BRANCH  19  20
ATOM     20  C   UNL     1       8.403  10.180  18.230  0.00  0.00    +0.000 C 
BRANCH  20  24
ATOM     21  C   UNL     1      11.904  12.319  19.565  0.00  0.00    +0.000 A 
ATOM     22  C   UNL     1      10.978  11.851  20.491  0.00  0.00    +0.000 A 
ATOM     23  C   UNL     1       9.838  11.168  20.062  0.00  0.00    +0.000 A 
ATOM     24  C   UNL     1       9.624  10.932  18.697  0.00  0.00    +0.000 A 
ATOM     25  C   UNL     1      10.555  11.415  17.771  0.00  0.00    +0.000 A 
ATOM     26  C   UNL     1      11.691  12.104  18.202  0.00  0.00    +0.000 A 
ENDBRANCH  20  24
ENDBRANCH  19  20
ENDBRANCH  18  19
ENDBRANCH  17  18
ENDBRANCH   1  17
TORSDOF 6
ENDMDL
MODEL 5
REMARK VINA RESULT:      -7.6      1.031      1.243
REMARK  Name = 
REMARK  6 active torsions:
REMARK  status: ('A' for Active; 'I' for Inactive)
REMARK    1  A    between atoms: C_4  and  C_5
REMARK    2  A    between atoms: C_5  and  C_6
REMARK    3  A    between atoms: C_6  and  C_7
REMARK    4  A    between atoms: C_7  and  C_8
REMARK    5  A    between atoms: C_8  and  N_9
REMARK    6  A    between atoms: C_13  and  C_14
REMARK                            x       y       z     vdW  Elec       q    Type
REMARK                         _______ _______ _______ _____ _____    ______ ____
ROOT
ATOM      1  N   UNL     1       3.100   4.231  18.836  0.00  0.00    +0.000 N 
ATOM      2  C   UNL     1       3.269   2.986  19.384  0.00  0.00    +0.000 A 
ATOM      3  C   UNL     1       2.855   3.112  20.684  0.00  0.00    +0.000 A 
ATOM      4  N   UNL     1       2.450   4.399  20.950  0.00  0.00    +0.000 NA
ATOM      5  C   UNL     1       2.585   5.063  19.812  0.00  0.00    +0.000 A 
ENDROOT
BRANCH   5   6
ATOM      6  C   UNL     1       2.305   6.527  19.624  0.00  0.00    +0.000 A 
ATOM      7  C   UNL     1       2.537   7.342  18.493  0.00  0.00    +0.000 A 
ATOM      8  C   UNL     1       1.931   8.562  18.784  0.00  0.00    +0.000 A 
ATOM      9  N   UNL     1       1.439   8.421  20.051  0.00  0.00    +0.000 N 
ATOM     10  N   UNL     1       1.708   7.226  20.590  0.00  0.00    +0.000 NA
ATOM     11  C   UNL     1       0.762   9.353  20.920  0.00  0.00    +0.000 C 
ATOM     12  C   UNL     1      -0.276  10.314  20.364  0.00  0.00    +0.000 C 
ATOM     13  C   UNL     1       0.096  11.112  19.126  0.00  0.00    +0.000 C 
ATOM     14  N   UNL     1       0.436  10.313  17.960  0.00  0.00    +0.000 NA
ATOM     15  C   UNL     1       1.799   9.799  17.975  0.00  0.00    +0.000 C 
ATOM     16  H   UNL     1      -0.227   9.554  17.812  0.00  0.00    +0.000 HD
ENDBRANCH   5   6
BRANCH   1  17
ATOM     17  C   UNL     1       3.539   4.593  17.499  0.00  0.00    +0.000 C 
BRANCH  17  18
ATOM     18  C   UNL     1       4.600   3.651  16.912  0.00  0.00    +0.000 C 
BRANCH  18  19
ATOM     19  C   UNL     1       5.158   4.129  15.569  0.00  0.00    +0.000 C 
BRANCH  19  20
ATOM     20  C   UNL     1       6.683   4.248  15.614  0.00  0.00    +0.000 C 
BRANCH  20  24
ATOM     21  C   UNL     1       8.015   6.897  18.748  0.00  0.00    +0.000 A 
ATOM     22  C   UNL     1       8.042   5.520  18.941  0.00  0.00    +0.000 A 
ATOM     23  C   UNL     1       7.602   4.660  17.933  0.00  0.00    +0.000 A 
ATOM     24  C   UNL     1       7.143   5.174  16.712  0.00  0.00    +0.000 A 
ATOM     25  C   UNL     1       7.109   6.560  16.530  0.00  0.00    +0.000 A 
ATOM     26  C   UNL     1       7.544   7.419  17.542  0.00  0.00    +0.000 A 
ENDBRANCH  20  24
ENDBRANCH  19  20
ENDBRANCH  18  19
ENDBRANCH  17  18
ENDBRANCH   1  17
TORSDOF 6
ENDMDL
MODEL 6
REMARK VINA RESULT:      -7.6      3.452      6.427
REMARK  Name = 
REMARK  6 active torsions:
REMARK  status: ('A' for Active; 'I' for Inactive)
REMARK    1  A    between atoms: C_4  and  C_5
REMARK    2  A    between atoms: C_5  and  C_6
REMARK    3  A    between atoms: C_6  and  C_7
REMARK    4  A    between atoms: C_7  and  C_8
REMARK    5  A    between atoms: C_8  and  N_9
REMARK    6  A    between atoms: C_13  and  C_14
REMARK                            x       y       z     vdW  Elec       q    Type
REMARK                         _______ _______ _______ _____ _____    ______ ____
ROOT
ATOM      1  N   UNL     1       6.796   5.232  16.306  0.00  0.00    +0.000 N 
ATOM      2  C   UNL     1       7.416   5.190  15.084  0.00  0.00    +0.000 A 
ATOM      3  C   UNL     1       6.665   4.321  14.336  0.00  0.00    +0.000 A 
ATOM      4  N   UNL     1       5.614   3.821  15.069  0.00  0.00    +0.000 NA
ATOM      5  C   UNL     1       5.694   4.399  16.257  0.00  0.00    +0.000 A 
ENDROOT
BRANCH   5   6
ATOM      6  C   UNL     1       4.777   4.130  17.416  0.00  0.00    +0.000 A 
ATOM      7  C   UNL     1       4.521   4.926  18.555  0.00  0.00    +0.000 A 
ATOM      8  C   UNL     1       3.465   4.301  19.215  0.00  0.00    +0.000 A 
ATOM      9  N   UNL     1       3.202   3.179  18.482  0.00  0.00    +0.000 N 
ATOM     10  N   UNL     1       4.021   3.032  17.433  0.00  0.00    +0.000 NA
ATOM     11  C   UNL     1       2.262   2.104  18.688  0.00  0.00    +0.000 C 
ATOM     12  C   UNL     1       0.860   2.391  19.200  0.00  0.00    +0.000 C 
ATOM     13  C   UNL     1       0.727   3.284  20.422  0.00  0.00    +0.000 C 
ATOM     14  N   UNL     1       1.280   4.619  20.268  0.00  0.00    +0.000 NA
ATOM     15  C   UNL     1       2.725   4.682  20.444  0.00  0.00    +0.000 C 
ATOM     16  H   UNL     1       1.014   5.043  19.380  0.00  0.00    +0.000 HD
ENDBRANCH   5   6
BRANCH   1  17
ATOM     17  C   UNL     1       7.332   5.934  17.460  0.00  0.00    +0.000 C 
BRANCH  17  18
ATOM     18  C   UNL     1       7.048   7.443  17.463  0.00  0.00    +0.000 C 
BRANCH  18  19
ATOM     19  C   UNL     1       8.160   8.268  18.115  0.00  0.00    +0.000 C 
BRANCH  19  20
ATOM     20  C   UNL     1       8.276   9.649  17.468  0.00  0.00    +0.000 C 
BRANCH  20  24
ATOM     21  C   UNL     1      10.299  12.466  20.033  0.00  0.00    +0.000 A 
ATOM     22  C   UNL     1       9.899  12.848  18.757  0.00  0.00    +0.000 A 
ATOM     23  C   UNL     1       9.253  11.936  17.921  0.00  0.00    +0.000 A 
ATOM     24  C   UNL     1       8.988  10.633  18.362  0.00  0.00    +0.000 A 
ATOM     25  C   UNL     1       9.403  10.253  19.643  0.00  0.00    +0.000 A 
ATOM     26  C   UNL     1      10.055  11.166  20.477  0.00  0.00    +0.000 A 
ENDBRANCH  20  24
ENDBRANCH  19  20
ENDBRANCH  18  19
ENDBRANCH  17  18
ENDBRANCH   1  17
TORSDOF 6
ENDMDL
MODEL 7
REMARK VINA RESULT:      -7.5      2.223      2.910
REMARK  Name = 
REMARK  6 active torsions:
REMARK  status: ('A' for Active; 'I' for Inactive)
REMARK    1  A    between atoms: C_4  and  C_5
REMARK    2  A    between atoms: C_5  and  C_6
REMARK    3  A    between atoms: C_6  and  C_7
REMARK    4  A    between atoms: C_7  and  C_8
REMARK    5  A    between atoms: C_8  and  N_9
REMARK    6  A    between atoms: C_13  and  C_14
REMARK                            x       y       z     vdW  Elec       q    Type
REMARK                         _______ _______ _______ _____ _____    ______ ____
ROOT
ATOM      1  N   UNL     1       3.487   3.853  19.524  0.00  0.00    +0.000 N 
ATOM      2  C   UNL     1       3.338   2.592  20.041  0.00  0.00    +0.000 A 
ATOM      3  C   UNL     1       2.227   2.666  20.840  0.00  0.00    +0.000 A 
ATOM      4  N   UNL     1       1.702   3.936  20.837  0.00  0.00    +0.000 NA
ATOM      5  C   UNL     1       2.465   4.642  20.018  0.00  0.00    +0.000 A 
ENDROOT
BRANCH   5   6
ATOM      6  C   UNL     1       2.303   6.108  19.728  0.00  0.00    +0.000 A 
ATOM      7  C   UNL     1       2.537   6.810  18.524  0.00  0.00    +0.000 A 
ATOM      8  C   UNL     1       2.059   8.099  18.748  0.00  0.00    +0.000 A 
ATOM      9  N   UNL     1       1.635   8.100  20.046  0.00  0.00    +0.000 N 
ATOM     10  N   UNL     1       1.830   6.929  20.665  0.00  0.00    +0.000 NA
ATOM     11  C   UNL     1       1.096   9.153  20.873  0.00  0.00    +0.000 C 
ATOM     12  C   UNL     1       0.114  10.161  20.298  0.00  0.00    +0.000 C 
ATOM     13  C   UNL     1       0.479  10.827  18.982  0.00  0.00    +0.000 C 
ATOM     14  N   UNL     1       0.676   9.914  17.868  0.00  0.00    +0.000 NA
ATOM     15  C   UNL     1       1.987   9.279  17.851  0.00  0.00    +0.000 C 
ATOM     16  H   UNL     1      -0.058   9.210  17.817  0.00  0.00    +0.000 HD
ENDBRANCH   5   6
BRANCH   1  17
ATOM     17  C   UNL     1       4.624   4.268  18.719  0.00  0.00    +0.000 C 
BRANCH  17  18
ATOM     18  C   UNL     1       4.444   4.032  17.213  0.00  0.00    +0.000 C 
BRANCH  18  19
ATOM     19  C   UNL     1       5.028   5.152  16.349  0.00  0.00    +0.000 C 
BRANCH  19  20
ATOM     20  C   UNL     1       6.483   4.862  15.978  0.00  0.00    +0.000 C 
BRANCH  20  24
ATOM     21  C   UNL     1       6.964   4.128  11.754  0.00  0.00    +0.000 A 
ATOM     22  C   UNL     1       7.792   5.037  12.402  0.00  0.00    +0.000 A 
ATOM     23  C   UNL     1       7.633   5.285  13.766  0.00  0.00    +0.000 A 
ATOM     24  C   UNL     1       6.648   4.610  14.500  0.00  0.00    +0.000 A 
ATOM     25  C   UNL     1       5.812   3.704  13.839  0.00  0.00    +0.000 A 
ATOM     26  C   UNL     1       5.969   3.462  12.472  0.00  0.00    +0.000 A 
ENDBRANCH  20  24
ENDBRANCH  19  20
ENDBRANCH  18  19
ENDBRANCH  17  18
ENDBRANCH   1  17
TORSDOF 6
ENDMDL
MODEL 8
REMARK VINA RESULT:      -7.5      2.362      3.235
REMARK  Name = 
REMARK  6 active torsions:
REMARK  status: ('A' for Active; 'I' for Inactive)
REMARK    1  A    between atoms: C_4  and  C_5
REMARK    2  A    between atoms: C_5  and  C_6
REMARK    3  A    between atoms: C_6  and  C_7
REMARK    4  A    between atoms: C_7  and  C_8
REMARK    5  A    between atoms: C_8  and  N_9
REMARK    6  A    between atoms: C_13  and  C_14
REMARK                            x       y       z     vdW  Elec       q    Type
REMARK                         _______ _______ _______ _____ _____    ______ ____
ROOT
ATOM      1  N   UNL     1       4.304   4.853  18.963  0.00  0.00    +0.000 N 
ATOM      2  C   UNL     1       4.438   3.534  19.314  0.00  0.00    +0.000 A 
ATOM      3  C   UNL     1       3.302   3.240  20.022  0.00  0.00    +0.000 A 
ATOM      4  N   UNL     1       2.485   4.341  20.125  0.00  0.00    +0.000 NA
ATOM      5  C   UNL     1       3.097   5.308  19.460  0.00  0.00    +0.000 A 
ENDROOT
BRANCH   5   6
ATOM      6  C   UNL     1       2.601   6.721  19.331  0.00  0.00    +0.000 A 
ATOM      7  C   UNL     1       2.624   7.576  18.206  0.00  0.00    +0.000 A 
ATOM      8  C   UNL     1       1.880   8.694  18.574  0.00  0.00    +0.000 A 
ATOM      9  N   UNL     1       1.518   8.468  19.872  0.00  0.00    +0.000 N 
ATOM     10  N   UNL     1       1.993   7.315  20.358  0.00  0.00    +0.000 NA
ATOM     11  C   UNL     1       0.790   9.283  20.815  0.00  0.00    +0.000 C 
ATOM     12  C   UNL     1      -0.414  10.095  20.366  0.00  0.00    +0.000 C 
ATOM     13  C   UNL     1      -0.259  10.956  19.123  0.00  0.00    +0.000 C 
ATOM     14  N   UNL     1       0.093  10.228  17.915  0.00  0.00    +0.000 NA
ATOM     15  C   UNL     1       1.511   9.911  17.809  0.00  0.00    +0.000 C 
ATOM     16  H   UNL     1      -0.467   9.385  17.801  0.00  0.00    +0.000 HD
ENDBRANCH   5   6
BRANCH   1  17
ATOM     17  C   UNL     1       5.346   5.625  18.309  0.00  0.00    +0.000 C 
BRANCH  17  18
ATOM     18  C   UNL     1       6.720   4.940  18.297  0.00  0.00    +0.000 C 
BRANCH  18  19
ATOM     19  C   UNL     1       7.205   4.579  16.891  0.00  0.00    +0.000 C 
BRANCH  19  20
ATOM     20  C   UNL     1       6.029   4.289  15.957  0.00  0.00    +0.000 C 
BRANCH  20  24
ATOM     21  C   UNL     1       7.215   4.363  11.810  0.00  0.00    +0.000 A 
ATOM     22  C   UNL     1       7.841   5.197  12.729  0.00  0.00    +0.000 A 
ATOM     23  C   UNL     1       7.453   5.184  14.070  0.00  0.00    +0.000 A 
ATOM     24  C   UNL     1       6.440   4.319  14.506  0.00  0.00    +0.000 A 
ATOM     25  C   UNL     1       5.807   3.491  13.574  0.00  0.00    +0.000 A 
ATOM     26  C   UNL     1       6.193   3.510  12.231  0.00  0.00    +0.000 A 
ENDBRANCH  20  24
ENDBRANCH  19  20
ENDBRANCH  18  19
ENDBRANCH  17  18
ENDBRANCH   1  17
TORSDOF 6
ENDMDL
MODEL 9
REMARK VINA RESULT:      -7.5      3.517      6.399
REMARK  Name = 
REMARK  6 active torsions:
REMARK  status: ('A' for Active; 'I' for Inactive)
REMARK    1  A    between atoms: C_4  and  C_5
REMARK    2  A    between atoms: C_5  and  C_6
REMARK    3  A    between atoms: C_6  and  C_7
REMARK    4  A    between atoms: C_7  and  C_8
REMARK    5  A    between atoms: C_8  and  N_9
REMARK    6  A    between atoms: C_13  and  C_14
REMARK                            x       y       z     vdW  Elec       q    Type
REMARK                         _______ _______ _______ _____ _____    ______ ____
ROOT
ATOM      1  N   UNL     1       6.043   5.500  16.257  0.00  0.00    +0.000 N 
ATOM      2  C   UNL     1       6.744   5.655  15.088  0.00  0.00    +0.000 A 
ATOM      3  C   UNL     1       6.508   4.506  14.379  0.00  0.00    +0.000 A 
ATOM      4  N   UNL     1       5.696   3.649  15.084  0.00  0.00    +0.000 NA
ATOM      5  C   UNL     1       5.404   4.275  16.214  0.00  0.00    +0.000 A 
ENDROOT
BRANCH   5   6
ATOM      6  C   UNL     1       4.573   3.707  17.330  0.00  0.00    +0.000 A 
ATOM      7  C   UNL     1       4.974   3.290  18.619  0.00  0.00    +0.000 A 
ATOM      8  C   UNL     1       3.793   3.023  19.307  0.00  0.00    +0.000 A 
ATOM      9  N   UNL     1       2.797   3.238  18.398  0.00  0.00    +0.000 N 
ATOM     10  N   UNL     1       3.252   3.591  17.190  0.00  0.00    +0.000 NA
ATOM     11  C   UNL     1       1.366   3.073  18.496  0.00  0.00    +0.000 C 
ATOM     12  C   UNL     1       0.627   3.472  19.763  0.00  0.00    +0.000 C 
ATOM     13  C   UNL     1       1.182   2.973  21.087  0.00  0.00    +0.000 C 
ATOM     14  N   UNL     1       2.543   3.392  21.376  0.00  0.00    +0.000 NA
ATOM     15  C   UNL     1       3.561   2.593  20.708  0.00  0.00    +0.000 C 
ATOM     16  H   UNL     1       2.687   4.382  21.182  0.00  0.00    +0.000 HD
ENDBRANCH   5   6
BRANCH   1  17
ATOM     17  C   UNL     1       6.113   6.429  17.371  0.00  0.00    +0.000 C 
BRANCH  17  18
ATOM     18  C   UNL     1       7.541   6.844  17.752  0.00  0.00    +0.000 C 
BRANCH  18  19
ATOM     19  C   UNL     1       7.788   8.350  17.631  0.00  0.00    +0.000 C 
BRANCH  19  20
ATOM     20  C   UNL     1       8.738   8.844  18.723  0.00  0.00    +0.000 C 
BRANCH  20  24
ATOM     21  C   UNL     1       9.513  13.075  18.390  0.00  0.00    +0.000 A 
ATOM     22  C   UNL     1      10.231  12.304  19.297  0.00  0.00    +0.000 A 
ATOM     23  C   UNL     1       9.976  10.937  19.415  0.00  0.00    +0.000 A 
ATOM     24  C   UNL     1       9.005  10.324  18.611  0.00  0.00    +0.000 A 
ATOM     25  C   UNL     1       8.280  11.108  17.708  0.00  0.00    +0.000 A 
ATOM     26  C   UNL     1       8.532  12.478  17.596  0.00  0.00    +0.000 A 
ENDBRANCH  20  24
ENDBRANCH  19  20
ENDBRANCH  18  19
ENDBRANCH  17  18
ENDBRANCH   1  17
TORSDOF 6
ENDMDL
