MODEL 1
REMARK VINA RESULT:      -6.2      0.000      0.000
REMARK  Name = 
REMARK  10 active torsions:
REMARK  status: ('A' for Active; 'I' for Inactive)
REMARK    1  A    between atoms: C_1  and  C_2
REMARK    2  A    between atoms: C_2  and  N_3
REMARK    3  A    between atoms: N_3  and  C_4
REMARK    4  A    between atoms: N_9  and  C_10
REMARK    5  A    between atoms: C_10  and  C_11
REMARK    6  A    between atoms: C_10  and  C_12
REMARK    7  A    between atoms: N_15  and  C_16
REMARK    8  A    between atoms: C_16  and  C_17
REMARK    9  A    between atoms: C_16  and  C_18
REMARK   10  A    between atoms: C_16  and  C_19
REMARK                            x       y       z     vdW  Elec       q    Type
REMARK                         _______ _______ _______ _____ _____    ______ ____
ROOT
ATOM      1  N   UNL     1       2.987   3.671  20.706  0.00  0.00    +0.000 N 
ATOM      2  C   UNL     1       3.101   4.891  20.043  0.00  0.00    +0.000 A 
ATOM      3  N   UNL     1       2.241   5.854  20.341  0.00  0.00    +0.000 NA
ATOM      4  C   UNL     1       2.348   6.990  19.672  0.00  0.00    +0.000 A 
ATOM      5  N   UNL     1       1.468   8.024  19.970  0.00  0.00    +0.000 N 
ATOM      6  N   UNL     1       3.221   7.193  18.696  0.00  0.00    +0.000 NA
ATOM      7  C   UNL     1       4.043   6.179  18.445  0.00  0.00    +0.000 A 
ATOM      8  N   UNL     1       4.917   6.331  17.376  0.00  0.00    +0.000 N 
ATOM      9  N   UNL     1       4.047   5.053  19.129  0.00  0.00    +0.000 NA
ATOM     10  H   UNL     1       1.793   8.875  19.530  0.00  0.00    +0.000 HD
ATOM     11  H   UNL     1       4.659   7.159  16.856  0.00  0.00    +0.000 HD
ENDROOT
BRANCH   8  12
ATOM     12  C   UNL     1       5.404   5.178  16.599  0.00  0.00    +0.000 C 
ATOM     13  C   UNL     1       4.433   3.982  16.605  0.00  0.00    +0.000 C 
ATOM     14  C   UNL     1       5.550   5.630  15.131  0.00  0.00    +0.000 C 
ATOM     15  C   UNL     1       6.793   4.753  17.098  0.00  0.00    +0.000 C 
ENDBRANCH   8  12
BRANCH   5  16
ATOM     16  C   UNL     1       1.010   8.130  21.354  0.00  0.00    +0.000 C 
ATOM     17  C   UNL     1       1.706   9.282  22.079  0.00  0.00    +0.000 C 
ATOM     18  C   UNL     1      -0.502   8.348  21.355  0.00  0.00    +0.000 C 
ENDBRANCH   5  16
BRANCH   1  20
ATOM     19  C   UNL     1       0.759   2.786  20.050  0.00  0.00    +0.000 C 
ATOM     20  C   UNL     1       1.669   3.272  21.174  0.00  0.00    +0.000 C 
ENDBRANCH   1  20
BRANCH   1  21
ATOM     21  C   UNL     1       3.914   2.618  20.361  0.00  0.00    +0.000 C 
ATOM     22  N   UNL     1       4.685   1.815  20.040  0.00  0.00    +0.000 NA
ENDBRANCH   1  21
TORSDOF 4
ENDMDL
MODEL 2
REMARK VINA RESULT:      -5.9      1.365      1.430
REMARK  Name = 
REMARK  10 active torsions:
REMARK  status: ('A' for Active; 'I' for Inactive)
REMARK    1  A    between atoms: C_1  and  C_2
REMARK    2  A    between atoms: C_2  and  N_3
REMARK    3  A    between atoms: N_3  and  C_4
REMARK    4  A    between atoms: N_9  and  C_10
REMARK    5  A    between atoms: C_10  and  C_11
REMARK    6  A    between atoms: C_10  and  C_12
REMARK    7  A    between atoms: N_15  and  C_16
REMARK    8  A    between atoms: C_16  and  C_17
REMARK    9  A    between atoms: C_16  and  C_18
REMARK   10  A    between atoms: C_16  and  C_19
REMARK                            x       y       z     vdW  Elec       q    Type
REMARK                         _______ _______ _______ _____ _____    ______ ____
ROOT
ATOM      1  N   UNL     1       2.910   4.155  19.883  0.00  0.00    +0.000 N 
ATOM      2  C   UNL     1       3.260   5.248  19.094  0.00  0.00    +0.000 A 
ATOM      3  N   UNL     1       2.398   6.249  18.984  0.00  0.00    +0.000 NA
ATOM      4  C   UNL     1       2.739   7.259  18.200  0.00  0.00    +0.000 A 
ATOM      5  N   UNL     1       1.863   8.330  18.075  0.00  0.00    +0.000 N 
ATOM      6  N   UNL     1       3.855   7.295  17.487  0.00  0.00    +0.000 NA
ATOM      7  C   UNL     1       4.665   6.251  17.638  0.00  0.00    +0.000 A 
ATOM      8  N   UNL     1       5.804   6.223  16.844  0.00  0.00    +0.000 N 
ATOM      9  N   UNL     1       4.426   5.254  18.465  0.00  0.00    +0.000 NA
ATOM     10  H   UNL     1       2.337   9.096  17.613  0.00  0.00    +0.000 HD
ATOM     11  H   UNL     1       5.739   6.953  16.148  0.00  0.00    +0.000 HD
ENDROOT
BRANCH   8  12
ATOM     12  C   UNL     1       6.429   4.955  16.426  0.00  0.00    +0.000 C 
ATOM     13  C   UNL     1       5.420   3.804  16.250  0.00  0.00    +0.000 C 
ATOM     14  C   UNL     1       7.088   5.189  15.050  0.00  0.00    +0.000 C 
ATOM     15  C   UNL     1       7.537   4.560  17.414  0.00  0.00    +0.000 C 
ENDBRANCH   8  12
BRANCH   5  16
ATOM     16  C   UNL     1       1.049   8.664  19.241  0.00  0.00    +0.000 C 
ATOM     17  C   UNL     1       1.884   8.640  20.521  0.00  0.00    +0.000 C 
ATOM     18  C   UNL     1       0.445  10.053  19.037  0.00  0.00    +0.000 C 
ENDBRANCH   5  16
BRANCH   1  20
ATOM     19  C   UNL     1       1.206   2.902  21.189  0.00  0.00    +0.000 C 
ATOM     20  C   UNL     1       1.496   3.842  20.023  0.00  0.00    +0.000 C 
ENDBRANCH   1  20
BRANCH   1  21
ATOM     21  C   UNL     1       3.843   3.057  19.981  0.00  0.00    +0.000 C 
ATOM     22  N   UNL     1       4.641   2.221  20.071  0.00  0.00    +0.000 NA
ENDBRANCH   1  21
TORSDOF 4
ENDMDL
MODEL 3
REMARK VINA RESULT:      -5.9      1.701      1.790
REMARK  Name = 
REMARK  10 active torsions:
REMARK  status: ('A' for Active; 'I' for Inactive)
REMARK    1  A    between atoms: C_1  and  C_2
REMARK    2  A    between atoms: C_2  and  N_3
REMARK    3  A    between atoms: N_3  and  C_4
REMARK    4  A    between atoms: N_9  and  C_10
REMARK    5  A    between atoms: C_10  and  C_11
REMARK    6  A    between atoms: C_10  and  C_12
REMARK    7  A    between atoms: N_15  and  C_16
REMARK    8  A    between atoms: C_16  and  C_17
REMARK    9  A    between atoms: C_16  and  C_18
REMARK   10  A    between atoms: C_16  and  C_19
REMARK                            x       y       z     vdW  Elec       q    Type
REMARK                         _______ _______ _______ _____ _____    ______ ____
ROOT
ATOM      1  N   UNL     1       2.714   5.065  19.992  0.00  0.00    +0.000 N 
ATOM      2  C   UNL     1       3.078   6.002  19.029  0.00  0.00    +0.000 A 
ATOM      3  N   UNL     1       2.310   7.069  18.864  0.00  0.00    +0.000 NA
ATOM      4  C   UNL     1       2.658   7.926  17.917  0.00  0.00    +0.000 A 
ATOM      5  N   UNL     1       1.880   9.062  17.728  0.00  0.00    +0.000 N 
ATOM      6  N   UNL     1       3.688   7.747  17.102  0.00  0.00    +0.000 NA
ATOM      7  C   UNL     1       4.405   6.649  17.319  0.00  0.00    +0.000 A 
ATOM      8  N   UNL     1       5.442   6.393  16.432  0.00  0.00    +0.000 N 
ATOM      9  N   UNL     1       4.163   5.799  18.297  0.00  0.00    +0.000 NA
ATOM     10  H   UNL     1       2.372   9.705  17.121  0.00  0.00    +0.000 HD
ATOM     11  H   UNL     1       5.372   7.031  15.651  0.00  0.00    +0.000 HD
ENDROOT
BRANCH   8  12
ATOM     12  C   UNL     1       5.893   5.022  16.137  0.00  0.00    +0.000 C 
ATOM     13  C   UNL     1       4.792   3.961  16.330  0.00  0.00    +0.000 C 
ATOM     14  C   UNL     1       6.307   4.974  14.651  0.00  0.00    +0.000 C 
ATOM     15  C   UNL     1       7.131   4.679  16.979  0.00  0.00    +0.000 C 
ENDBRANCH   8  12
BRANCH   5  16
ATOM     16  C   UNL     1       1.235   9.631  18.910  0.00  0.00    +0.000 C 
ATOM     17  C   UNL     1       1.754  11.039  19.197  0.00  0.00    +0.000 C 
ATOM     18  C   UNL     1      -0.275   9.667  18.674  0.00  0.00    +0.000 C 
ENDBRANCH   5  16
BRANCH   1  20
ATOM     19  C   UNL     1       0.781   3.507  20.126  0.00  0.00    +0.000 C 
ATOM     20  C   UNL     1       1.300   4.929  20.309  0.00  0.00    +0.000 C 
ENDBRANCH   1  20
BRANCH   1  21
ATOM     21  C   UNL     1       3.542   3.892  20.153  0.00  0.00    +0.000 C 
ATOM     22  N   UNL     1       4.220   2.954  20.215  0.00  0.00    +0.000 NA
ENDBRANCH   1  21
TORSDOF 4
ENDMDL
MODEL 4
REMARK VINA RESULT:      -5.9      1.506      6.048
REMARK  Name = 
REMARK  10 active torsions:
REMARK  status: ('A' for Active; 'I' for Inactive)
REMARK    1  A    between atoms: C_1  and  C_2
REMARK    2  A    between atoms: C_2  and  N_3
REMARK    3  A    between atoms: N_3  and  C_4
REMARK    4  A    between atoms: N_9  and  C_10
REMARK    5  A    between atoms: C_10  and  C_11
REMARK    6  A    between atoms: C_10  and  C_12
REMARK    7  A    between atoms: N_15  and  C_16
REMARK    8  A    between atoms: C_16  and  C_17
REMARK    9  A    between atoms: C_16  and  C_18
REMARK   10  A    between atoms: C_16  and  C_19
REMARK                            x       y       z     vdW  Elec       q    Type
REMARK                         _______ _______ _______ _____ _____    ______ ____
ROOT
ATOM      1  N   UNL     1       2.896   7.470  18.655  0.00  0.00    +0.000 N 
ATOM      2  C   UNL     1       3.337   6.171  18.412  0.00  0.00    +0.000 A 
ATOM      3  N   UNL     1       4.085   5.949  17.341  0.00  0.00    +0.000 NA
ATOM      4  C   UNL     1       4.460   4.701  17.113  0.00  0.00    +0.000 A 
ATOM      5  N   UNL     1       5.258   4.436  16.006  0.00  0.00    +0.000 N 
ATOM      6  N   UNL     1       4.087   3.670  17.857  0.00  0.00    +0.000 NA
ATOM      7  C   UNL     1       3.326   3.968  18.906  0.00  0.00    +0.000 A 
ATOM      8  N   UNL     1       2.853   2.901  19.659  0.00  0.00    +0.000 N 
ATOM      9  N   UNL     1       2.987   5.197  19.238  0.00  0.00    +0.000 NA
ATOM     10  H   UNL     1       5.620   3.494  16.074  0.00  0.00    +0.000 HD
ATOM     11  H   UNL     1       3.048   2.039  19.168  0.00  0.00    +0.000 HD
ENDROOT
BRANCH   8  12
ATOM     12  C   UNL     1       1.580   2.975  20.398  0.00  0.00    +0.000 C 
ATOM     13  C   UNL     1       1.054   4.414  20.569  0.00  0.00    +0.000 C 
ATOM     14  C   UNL     1       0.520   2.202  19.587  0.00  0.00    +0.000 C 
ATOM     15  C   UNL     1       1.721   2.284  21.763  0.00  0.00    +0.000 C 
ENDBRANCH   8  12
BRANCH   5  16
ATOM     16  C   UNL     1       6.198   5.479  15.599  0.00  0.00    +0.000 C 
ATOM     17  C   UNL     1       7.200   5.783  16.713  0.00  0.00    +0.000 C 
ATOM     18  C   UNL     1       6.935   5.012  14.345  0.00  0.00    +0.000 C 
ENDBRANCH   5  16
BRANCH   1  20
ATOM     19  C   UNL     1       1.825   9.553  17.822  0.00  0.00    +0.000 C 
ATOM     20  C   UNL     1       2.711   8.351  17.511  0.00  0.00    +0.000 C 
ENDBRANCH   1  20
BRANCH   1  21
ATOM     21  C   UNL     1       2.061   7.703  19.810  0.00  0.00    +0.000 C 
ATOM     22  N   UNL     1       1.443   7.868  20.776  0.00  0.00    +0.000 NA
ENDBRANCH   1  21
TORSDOF 4
ENDMDL
MODEL 5
REMARK VINA RESULT:      -5.8      1.442      4.367
REMARK  Name = 
REMARK  10 active torsions:
REMARK  status: ('A' for Active; 'I' for Inactive)
REMARK    1  A    between atoms: C_1  and  C_2
REMARK    2  A    between atoms: C_2  and  N_3
REMARK    3  A    between atoms: N_3  and  C_4
REMARK    4  A    between atoms: N_9  and  C_10
REMARK    5  A    between atoms: C_10  and  C_11
REMARK    6  A    between atoms: C_10  and  C_12
REMARK    7  A    between atoms: N_15  and  C_16
REMARK    8  A    between atoms: C_16  and  C_17
REMARK    9  A    between atoms: C_16  and  C_18
REMARK   10  A    between atoms: C_16  and  C_19
REMARK                            x       y       z     vdW  Elec       q    Type
REMARK                         _______ _______ _______ _____ _____    ______ ____
ROOT
ATOM      1  N   UNL     1       2.335   6.793  18.831  0.00  0.00    +0.000 N 
ATOM      2  C   UNL     1       2.939   5.574  18.530  0.00  0.00    +0.000 A 
ATOM      3  N   UNL     1       2.689   4.536  19.315  0.00  0.00    +0.000 NA
ATOM      4  C   UNL     1       3.304   3.399  19.028  0.00  0.00    +0.000 A 
ATOM      5  N   UNL     1       3.054   2.288  19.824  0.00  0.00    +0.000 N 
ATOM      6  N   UNL     1       4.184   3.262  18.047  0.00  0.00    +0.000 NA
ATOM      7  C   UNL     1       4.393   4.350  17.311  0.00  0.00    +0.000 A 
ATOM      8  N   UNL     1       5.367   4.261  16.325  0.00  0.00    +0.000 N 
ATOM      9  N   UNL     1       3.752   5.487  17.488  0.00  0.00    +0.000 NA
ATOM     10  H   UNL     1       3.430   1.464  19.373  0.00  0.00    +0.000 HD
ATOM     11  H   UNL     1       5.879   3.398  16.446  0.00  0.00    +0.000 HD
ENDROOT
BRANCH   8  12
ATOM     12  C   UNL     1       6.136   5.438  15.883  0.00  0.00    +0.000 C 
ATOM     13  C   UNL     1       7.064   6.008  16.973  0.00  0.00    +0.000 C 
ATOM     14  C   UNL     1       7.037   4.996  14.711  0.00  0.00    +0.000 C 
ATOM     15  C   UNL     1       5.184   6.524  15.358  0.00  0.00    +0.000 C 
ENDBRANCH   8  12
BRANCH   5  16
ATOM     16  C   UNL     1       1.717   2.172  20.404  0.00  0.00    +0.000 C 
ATOM     17  C   UNL     1       1.583   3.036  21.657  0.00  0.00    +0.000 C 
ATOM     18  C   UNL     1       0.690   2.603  19.358  0.00  0.00    +0.000 C 
ENDBRANCH   5  16
BRANCH   1  20
ATOM     19  C   UNL     1       1.359   8.430  20.427  0.00  0.00    +0.000 C 
ATOM     20  C   UNL     1       2.009   7.065  20.223  0.00  0.00    +0.000 C 
ENDBRANCH   1  20
BRANCH   1  21
ATOM     21  C   UNL     1       2.628   7.927  17.987  0.00  0.00    +0.000 C 
ATOM     22  N   UNL     1       2.813   8.871  17.341  0.00  0.00    +0.000 NA
ENDBRANCH   1  21
TORSDOF 4
ENDMDL
MODEL 6
REMARK VINA RESULT:      -5.7      1.415      4.444
REMARK  Name = 
REMARK  10 active torsions:
REMARK  status: ('A' for Active; 'I' for Inactive)
REMARK    1  A    between atoms: C_1  and  C_2
REMARK    2  A    between atoms: C_2  and  N_3
REMARK    3  A    between atoms: N_3  and  C_4
REMARK    4  A    between atoms: N_9  and  C_10
REMARK    5  A    between atoms: C_10  and  C_11
REMARK    6  A    between atoms: C_10  and  C_12
REMARK    7  A    between atoms: N_15  and  C_16
REMARK    8  A    between atoms: C_16  and  C_17
REMARK    9  A    between atoms: C_16  and  C_18
REMARK   10  A    between atoms: C_16  and  C_19
REMARK                            x       y       z     vdW  Elec       q    Type
REMARK                         _______ _______ _______ _____ _____    ______ ____
ROOT
ATOM      1  N   UNL     1       2.105   7.585  19.009  0.00  0.00    +0.000 N 
ATOM      2  C   UNL     1       2.725   6.345  18.876  0.00  0.00    +0.000 A 
ATOM      3  N   UNL     1       2.469   5.411  19.779  0.00  0.00    +0.000 NA
ATOM      4  C   UNL     1       3.100   4.254  19.650  0.00  0.00    +0.000 A 
ATOM      5  N   UNL     1       2.843   3.249  20.574  0.00  0.00    +0.000 N 
ATOM      6  N   UNL     1       4.001   4.005  18.711  0.00  0.00    +0.000 NA
ATOM      7  C   UNL     1       4.215   4.994  17.847  0.00  0.00    +0.000 A 
ATOM      8  N   UNL     1       5.209   4.793  16.900  0.00  0.00    +0.000 N 
ATOM      9  N   UNL     1       3.560   6.138  17.868  0.00  0.00    +0.000 NA
ATOM     10  H   UNL     1       3.236   2.379  20.238  0.00  0.00    +0.000 HD
ATOM     11  H   UNL     1       5.727   3.958  17.137  0.00  0.00    +0.000 HD
ENDROOT
BRANCH   8  12
ATOM     12  C   UNL     1       5.976   5.913  16.328  0.00  0.00    +0.000 C 
ATOM     13  C   UNL     1       6.751   6.727  17.383  0.00  0.00    +0.000 C 
ATOM     14  C   UNL     1       7.023   5.321  15.361  0.00  0.00    +0.000 C 
ATOM     15  C   UNL     1       5.049   6.827  15.511  0.00  0.00    +0.000 C 
ENDBRANCH   8  12
BRANCH   5  16
ATOM     16  C   UNL     1       1.496   3.191  21.138  0.00  0.00    +0.000 C 
ATOM     17  C   UNL     1       0.466   2.822  20.070  0.00  0.00    +0.000 C 
ATOM     18  C   UNL     1       1.477   2.156  22.262  0.00  0.00    +0.000 C 
ENDBRANCH   5  16
BRANCH   1  20
ATOM     19  C   UNL     1       0.799   9.220  20.351  0.00  0.00    +0.000 C 
ATOM     20  C   UNL     1       1.749   8.027  20.349  0.00  0.00    +0.000 C 
ENDBRANCH   1  20
BRANCH   1  21
ATOM     21  C   UNL     1       2.405   8.608  18.034  0.00  0.00    +0.000 C 
ATOM     22  N   UNL     1       2.579   9.442  17.249  0.00  0.00    +0.000 NA
ENDBRANCH   1  21
TORSDOF 4
ENDMDL
MODEL 7
REMARK VINA RESULT:      -5.7      1.798      2.175
REMARK  Name = 
REMARK  10 active torsions:
REMARK  status: ('A' for Active; 'I' for Inactive)
REMARK    1  A    between atoms: C_1  and  C_2
REMARK    2  A    between atoms: C_2  and  N_3
REMARK    3  A    between atoms: N_3  and  C_4
REMARK    4  A    between atoms: N_9  and  C_10
REMARK    5  A    between atoms: C_10  and  C_11
REMARK    6  A    between atoms: C_10  and  C_12
REMARK    7  A    between atoms: N_15  and  C_16
REMARK    8  A    between atoms: C_16  and  C_17
REMARK    9  A    between atoms: C_16  and  C_18
REMARK   10  A    between atoms: C_16  and  C_19
REMARK                            x       y       z     vdW  Elec       q    Type
REMARK                         _______ _______ _______ _____ _____    ______ ____
ROOT
ATOM      1  N   UNL     1       2.810   5.184  19.846  0.00  0.00    +0.000 N 
ATOM      2  C   UNL     1       3.156   6.118  18.873  0.00  0.00    +0.000 A 
ATOM      3  N   UNL     1       2.380   7.180  18.713  0.00  0.00    +0.000 NA
ATOM      4  C   UNL     1       2.711   8.033  17.757  0.00  0.00    +0.000 A 
ATOM      5  N   UNL     1       1.925   9.164  17.572  0.00  0.00    +0.000 N 
ATOM      6  N   UNL     1       3.730   7.856  16.929  0.00  0.00    +0.000 NA
ATOM      7  C   UNL     1       4.456   6.762  17.141  0.00  0.00    +0.000 A 
ATOM      8  N   UNL     1       5.482   6.507  16.242  0.00  0.00    +0.000 N 
ATOM      9  N   UNL     1       4.232   5.916  18.127  0.00  0.00    +0.000 NA
ATOM     10  H   UNL     1       2.405   9.806  16.955  0.00  0.00    +0.000 HD
ATOM     11  H   UNL     1       5.398   7.139  15.458  0.00  0.00    +0.000 HD
ENDROOT
BRANCH   8  12
ATOM     12  C   UNL     1       5.935   5.136  15.947  0.00  0.00    +0.000 C 
ATOM     13  C   UNL     1       6.497   4.970  14.521  0.00  0.00    +0.000 C 
ATOM     14  C   UNL     1       7.082   4.800  16.924  0.00  0.00    +0.000 C 
ATOM     15  C   UNL     1       4.796   4.137  16.201  0.00  0.00    +0.000 C 
ENDBRANCH   8  12
BRANCH   5  16
ATOM     16  C   UNL     1       1.293   9.737  18.760  0.00  0.00    +0.000 C 
ATOM     17  C   UNL     1       1.778  11.165  19.008  0.00  0.00    +0.000 C 
ATOM     18  C   UNL     1      -0.222   9.725  18.563  0.00  0.00    +0.000 C 
ENDBRANCH   5  16
BRANCH   1  20
ATOM     19  C   UNL     1       0.881   3.623  19.990  0.00  0.00    +0.000 C 
ATOM     20  C   UNL     1       1.402   5.043  20.184  0.00  0.00    +0.000 C 
ENDBRANCH   1  20
BRANCH   1  21
ATOM     21  C   UNL     1       3.647   4.017  20.001  0.00  0.00    +0.000 C 
ATOM     22  N   UNL     1       4.274   3.046  20.087  0.00  0.00    +0.000 NA
ENDBRANCH   1  21
TORSDOF 4
ENDMDL
MODEL 8
REMARK VINA RESULT:      -5.7      0.465      1.060
REMARK  Name = 
REMARK  10 active torsions:
REMARK  status: ('A' for Active; 'I' for Inactive)
REMARK    1  A    between atoms: C_1  and  C_2
REMARK    2  A    between atoms: C_2  and  N_3
REMARK    3  A    between atoms: N_3  and  C_4
REMARK    4  A    between atoms: N_9  and  C_10
REMARK    5  A    between atoms: C_10  and  C_11
REMARK    6  A    between atoms: C_10  and  C_12
REMARK    7  A    between atoms: N_15  and  C_16
REMARK    8  A    between atoms: C_16  and  C_17
REMARK    9  A    between atoms: C_16  and  C_18
REMARK   10  A    between atoms: C_16  and  C_19
REMARK                            x       y       z     vdW  Elec       q    Type
REMARK                         _______ _______ _______ _____ _____    ______ ____
ROOT
ATOM      1  N   UNL     1       2.968   4.090  20.734  0.00  0.00    +0.000 N 
ATOM      2  C   UNL     1       3.102   5.253  19.978  0.00  0.00    +0.000 A 
ATOM      3  N   UNL     1       2.249   6.244  20.189  0.00  0.00    +0.000 NA
ATOM      4  C   UNL     1       2.375   7.322  19.432  0.00  0.00    +0.000 A 
ATOM      5  N   UNL     1       1.503   8.386  19.638  0.00  0.00    +0.000 N 
ATOM      6  N   UNL     1       3.260   7.438  18.454  0.00  0.00    +0.000 NA
ATOM      7  C   UNL     1       4.074   6.399  18.293  0.00  0.00    +0.000 A 
ATOM      8  N   UNL     1       4.961   6.457  17.226  0.00  0.00    +0.000 N 
ATOM      9  N   UNL     1       4.058   5.332  19.065  0.00  0.00    +0.000 NA
ATOM     10  H   UNL     1       1.842   9.195  19.134  0.00  0.00    +0.000 HD
ATOM     11  H   UNL     1       4.717   7.243  16.638  0.00  0.00    +0.000 HD
ENDROOT
BRANCH   8  12
ATOM     12  C   UNL     1       5.443   5.241  16.548  0.00  0.00    +0.000 C 
ATOM     13  C   UNL     1       6.731   4.665  17.168  0.00  0.00    +0.000 C 
ATOM     14  C   UNL     1       4.352   4.159  16.692  0.00  0.00    +0.000 C 
ATOM     15  C   UNL     1       5.637   5.514  15.048  0.00  0.00    +0.000 C 
ENDBRANCH   8  12
BRANCH   5  16
ATOM     16  C   UNL     1       1.032   8.605  21.003  0.00  0.00    +0.000 C 
ATOM     17  C   UNL     1       0.939  10.098  21.321  0.00  0.00    +0.000 C 
ATOM     18  C   UNL     1      -0.340   7.951  21.161  0.00  0.00    +0.000 C 
ENDBRANCH   5  16
BRANCH   1  20
ATOM     19  C   UNL     1       0.818   2.965  20.195  0.00  0.00    +0.000 C 
ATOM     20  C   UNL     1       1.641   3.742  21.218  0.00  0.00    +0.000 C 
ENDBRANCH   1  20
BRANCH   1  21
ATOM     21  C   UNL     1       3.887   3.004  20.485  0.00  0.00    +0.000 C 
ATOM     22  N   UNL     1       4.652   2.170  20.237  0.00  0.00    +0.000 NA
ENDBRANCH   1  21
TORSDOF 4
ENDMDL
MODEL 9
REMARK VINA RESULT:      -5.7      1.457      6.058
REMARK  Name = 
REMARK  10 active torsions:
REMARK  status: ('A' for Active; 'I' for Inactive)
REMARK    1  A    between atoms: C_1  and  C_2
REMARK    2  A    between atoms: C_2  and  N_3
REMARK    3  A    between atoms: N_3  and  C_4
REMARK    4  A    between atoms: N_9  and  C_10
REMARK    5  A    between atoms: C_10  and  C_11
REMARK    6  A    between atoms: C_10  and  C_12
REMARK    7  A    between atoms: N_15  and  C_16
REMARK    8  A    between atoms: C_16  and  C_17
REMARK    9  A    between atoms: C_16  and  C_18
REMARK   10  A    between atoms: C_16  and  C_19
REMARK                            x       y       z     vdW  Elec       q    Type
REMARK                         _______ _______ _______ _____ _____    ______ ____
ROOT
ATOM      1  N   UNL     1       2.888   7.382  18.644  0.00  0.00    +0.000 N 
ATOM      2  C   UNL     1       3.396   6.098  18.458  0.00  0.00    +0.000 A 
ATOM      3  N   UNL     1       4.085   5.846  17.354  0.00  0.00    +0.000 NA
ATOM      4  C   UNL     1       4.524   4.610  17.183  0.00  0.00    +0.000 A 
ATOM      5  N   UNL     1       5.261   4.316  16.042  0.00  0.00    +0.000 N 
ATOM      6  N   UNL     1       4.269   3.613  18.019  0.00  0.00    +0.000 NA
ATOM      7  C   UNL     1       3.563   3.939  19.097  0.00  0.00    +0.000 A 
ATOM      8  N   UNL     1       3.212   2.902  19.952  0.00  0.00    +0.000 N 
ATOM      9  N   UNL     1       3.167   5.166  19.370  0.00  0.00    +0.000 NA
ATOM     10  H   UNL     1       5.688   3.405  16.146  0.00  0.00    +0.000 HD
ATOM     11  H   UNL     1       3.430   2.020  19.507  0.00  0.00    +0.000 HD
ENDROOT
BRANCH   8  12
ATOM     12  C   UNL     1       1.990   2.951  20.773  0.00  0.00    +0.000 C 
ATOM     13  C   UNL     1       1.932   1.850  21.850  0.00  0.00    +0.000 C 
ATOM     14  C   UNL     1       1.976   4.305  21.514  0.00  0.00    +0.000 C 
ATOM     15  C   UNL     1       0.746   2.896  19.874  0.00  0.00    +0.000 C 
ENDBRANCH   8  12
BRANCH   5  16
ATOM     16  C   UNL     1       6.102   5.382  15.500  0.00  0.00    +0.000 C 
ATOM     17  C   UNL     1       7.153   5.825  16.517  0.00  0.00    +0.000 C 
ATOM     18  C   UNL     1       6.783   4.873  14.231  0.00  0.00    +0.000 C 
ENDBRANCH   5  16
BRANCH   1  20
ATOM     19  C   UNL     1       1.914   9.503  17.791  0.00  0.00    +0.000 C 
ATOM     20  C   UNL     1       2.570   8.166  17.461  0.00  0.00    +0.000 C 
ENDBRANCH   1  20
BRANCH   1  21
ATOM     21  C   UNL     1       2.120   7.645  19.839  0.00  0.00    +0.000 C 
ATOM     22  N   UNL     1       1.461   7.806  20.778  0.00  0.00    +0.000 NA
ENDBRANCH   1  21
TORSDOF 4
ENDMDL
