MODEL 1
REMARK VINA RESULT:      -6.7      0.000      0.000
REMARK  Name = 
REMARK  4 active torsions:
REMARK  status: ('A' for Active; 'I' for Inactive)
REMARK    1  A    between atoms: C_1  and  C_2
REMARK    2  A    between atoms: C_10  and  O_11
REMARK    3  A    between atoms: C_10  and  C_12
REMARK    4  A    between atoms: C_12  and  N_13
REMARK                            x       y       z     vdW  Elec       q    Type
REMARK                         _______ _______ _______ _____ _____    ______ ____
ROOT
ATOM      1  C   UNL     1       8.948   6.230  12.570  0.00  0.00    +0.000 C 
ATOM      2  C   UNL     1       7.865   5.265  12.942  0.00  0.00    +0.000 A 
ATOM      3  C   UNL     1       7.260   4.470  11.999  0.00  0.00    +0.000 A 
ATOM      4  C   UNL     1       6.316   3.600  12.482  0.00  0.00    +0.000 A 
ATOM      5  N   UNL     1       5.985   3.503  13.783  0.00  0.00    +0.000 NA
ATOM      6  C   UNL     1       6.618   4.310  14.649  0.00  0.00    +0.000 A 
ATOM      7  N   UNL     1       6.299   4.242  15.980  0.00  0.00    +0.000 N 
ATOM      8  C   UNL     1       6.915   5.127  16.947  0.00  0.00    +0.000 C 
ATOM      9  C   UNL     1       5.803   5.890  17.665  0.00  0.00    +0.000 C 
ATOM     10  C   UNL     1       4.739   4.953  18.270  0.00  0.00    +0.000 C 
ATOM     11  C   UNL     1       4.259   3.909  17.237  0.00  0.00    +0.000 C 
ATOM     12  C   UNL     1       5.415   3.222  16.511  0.00  0.00    +0.000 C 
ATOM     13  N   UNL     1       7.544   5.200  14.251  0.00  0.00    +0.000 NA
ENDROOT
BRANCH  10  14
ATOM     14  O   UNL     1       5.312   4.221  19.366  0.00  0.00    +0.000 OA
ATOM     15  H   UNL     1       6.251   4.478  19.453  0.00  0.00    +0.000 HD
ENDBRANCH  10  14
BRANCH  10  16
ATOM     16  C   UNL     1       3.498   5.738  18.772  0.00  0.00    +0.000 C 
BRANCH  16  17
ATOM     17  N   UNL     1       2.521   4.916  19.461  0.00  0.00    +0.000 N 
ATOM     18  C   UNL     1       2.404   4.746  20.810  0.00  0.00    +0.000 A 
ATOM     19  C   UNL     1       1.420   3.796  20.963  0.00  0.00    +0.000 A 
ATOM     20  N   UNL     1       0.902   3.437  19.745  0.00  0.00    +0.000 NA
ATOM     21  C   UNL     1       1.559   4.153  18.863  0.00  0.00    +0.000 A 
ENDBRANCH  16  17
ENDBRANCH  10  16
TORSDOF 3
ENDMDL
MODEL 2
REMARK VINA RESULT:      -6.5      2.857      7.410
REMARK  Name = 
REMARK  4 active torsions:
REMARK  status: ('A' for Active; 'I' for Inactive)
REMARK    1  A    between atoms: C_1  and  C_2
REMARK    2  A    between atoms: C_10  and  O_11
REMARK    3  A    between atoms: C_10  and  C_12
REMARK    4  A    between atoms: C_12  and  N_13
REMARK                            x       y       z     vdW  Elec       q    Type
REMARK                         _______ _______ _______ _____ _____    ______ ____
ROOT
ATOM      1  C   UNL     1       0.493  10.798  18.584  0.00  0.00    +0.000 C 
ATOM      2  C   UNL     1       0.936   9.757  19.566  0.00  0.00    +0.000 A 
ATOM      3  C   UNL     1       0.843   9.965  20.921  0.00  0.00    +0.000 A 
ATOM      4  C   UNL     1       1.242   8.914  21.706  0.00  0.00    +0.000 A 
ATOM      5  N   UNL     1       1.692   7.744  21.216  0.00  0.00    +0.000 NA
ATOM      6  C   UNL     1       1.755   7.609  19.882  0.00  0.00    +0.000 A 
ATOM      7  N   UNL     1       2.216   6.434  19.351  0.00  0.00    +0.000 N 
ATOM      8  C   UNL     1       2.352   6.258  17.919  0.00  0.00    +0.000 C 
ATOM      9  C   UNL     1       3.806   5.892  17.625  0.00  0.00    +0.000 C 
ATOM     10  C   UNL     1       4.289   4.681  18.447  0.00  0.00    +0.000 C 
ATOM     11  C   UNL     1       3.944   4.848  19.945  0.00  0.00    +0.000 C 
ATOM     12  C   UNL     1       2.493   5.272  20.173  0.00  0.00    +0.000 C 
ATOM     13  N   UNL     1       1.397   8.600  19.047  0.00  0.00    +0.000 NA
ENDROOT
BRANCH  10  14
ATOM     14  O   UNL     1       3.618   3.494  17.995  0.00  0.00    +0.000 OA
ATOM     15  H   UNL     1       3.641   2.832  18.714  0.00  0.00    +0.000 HD
ENDBRANCH  10  14
BRANCH  10  16
ATOM     16  C   UNL     1       5.823   4.478  18.328  0.00  0.00    +0.000 C 
BRANCH  16  17
ATOM     17  N   UNL     1       6.351   4.752  17.004  0.00  0.00    +0.000 N 
ATOM     18  C   UNL     1       6.160   4.003  15.879  0.00  0.00    +0.000 A 
ATOM     19  C   UNL     1       6.948   4.598  14.921  0.00  0.00    +0.000 A 
ATOM     20  N   UNL     1       7.559   5.718  15.424  0.00  0.00    +0.000 NA
ATOM     21  C   UNL     1       7.153   5.805  16.669  0.00  0.00    +0.000 A 
ENDBRANCH  16  17
ENDBRANCH  10  16
TORSDOF 3
ENDMDL
MODEL 3
REMARK VINA RESULT:      -6.5      1.656      6.901
REMARK  Name = 
REMARK  4 active torsions:
REMARK  status: ('A' for Active; 'I' for Inactive)
REMARK    1  A    between atoms: C_1  and  C_2
REMARK    2  A    between atoms: C_10  and  O_11
REMARK    3  A    between atoms: C_10  and  C_12
REMARK    4  A    between atoms: C_12  and  N_13
REMARK                            x       y       z     vdW  Elec       q    Type
REMARK                         _______ _______ _______ _____ _____    ______ ____
ROOT
ATOM      1  C   UNL     1       2.149   2.711  21.917  0.00  0.00    +0.000 C 
ATOM      2  C   UNL     1       2.034   3.226  20.516  0.00  0.00    +0.000 A 
ATOM      3  C   UNL     1       0.916   2.986  19.753  0.00  0.00    +0.000 A 
ATOM      4  C   UNL     1       0.923   3.553  18.504  0.00  0.00    +0.000 A 
ATOM      5  N   UNL     1       1.934   4.302  18.029  0.00  0.00    +0.000 NA
ATOM      6  C   UNL     1       2.994   4.498  18.829  0.00  0.00    +0.000 A 
ATOM      7  N   UNL     1       4.045   5.250  18.373  0.00  0.00    +0.000 N 
ATOM      8  C   UNL     1       5.233   5.447  19.177  0.00  0.00    +0.000 C 
ATOM      9  C   UNL     1       6.435   4.953  18.372  0.00  0.00    +0.000 C 
ATOM     10  C   UNL     1       6.516   5.600  16.975  0.00  0.00    +0.000 C 
ATOM     11  C   UNL     1       5.157   5.523  16.242  0.00  0.00    +0.000 C 
ATOM     12  C   UNL     1       3.988   5.973  17.117  0.00  0.00    +0.000 C 
ATOM     13  N   UNL     1       3.069   3.963  20.060  0.00  0.00    +0.000 NA
ENDROOT
BRANCH  10  14
ATOM     14  O   UNL     1       6.838   6.994  17.109  0.00  0.00    +0.000 OA
ATOM     15  H   UNL     1       7.518   7.219  16.443  0.00  0.00    +0.000 HD
ENDBRANCH  10  14
BRANCH  10  16
ATOM     16  C   UNL     1       7.583   4.912  16.082  0.00  0.00    +0.000 C 
BRANCH  16  17
ATOM     17  N   UNL     1       7.117   4.597  14.745  0.00  0.00    +0.000 N 
ATOM     18  C   UNL     1       6.155   3.688  14.409  0.00  0.00    +0.000 A 
ATOM     19  C   UNL     1       6.154   3.666  13.033  0.00  0.00    +0.000 A 
ATOM     20  N   UNL     1       7.046   4.581  12.535  0.00  0.00    +0.000 NA
ATOM     21  C   UNL     1       7.584   5.151  13.587  0.00  0.00    +0.000 A 
ENDBRANCH  16  17
ENDBRANCH  10  16
TORSDOF 3
ENDMDL
MODEL 4
REMARK VINA RESULT:      -6.3      1.451      7.110
REMARK  Name = 
REMARK  4 active torsions:
REMARK  status: ('A' for Active; 'I' for Inactive)
REMARK    1  A    between atoms: C_1  and  C_2
REMARK    2  A    between atoms: C_10  and  O_11
REMARK    3  A    between atoms: C_10  and  C_12
REMARK    4  A    between atoms: C_12  and  N_13
REMARK                            x       y       z     vdW  Elec       q    Type
REMARK                         _______ _______ _______ _____ _____    ______ ____
ROOT
ATOM      1  C   UNL     1       0.431   2.330  19.225  0.00  0.00    +0.000 C 
ATOM      2  C   UNL     1       1.396   3.432  19.536  0.00  0.00    +0.000 A 
ATOM      3  C   UNL     1       1.073   4.442  20.410  0.00  0.00    +0.000 A 
ATOM      4  C   UNL     1       2.064   5.362  20.637  0.00  0.00    +0.000 A 
ATOM      5  N   UNL     1       3.281   5.307  20.065  0.00  0.00    +0.000 NA
ATOM      6  C   UNL     1       3.529   4.292  19.223  0.00  0.00    +0.000 A 
ATOM      7  N   UNL     1       4.755   4.210  18.617  0.00  0.00    +0.000 N 
ATOM      8  C   UNL     1       5.053   3.164  17.661  0.00  0.00    +0.000 C 
ATOM      9  C   UNL     1       5.477   3.829  16.351  0.00  0.00    +0.000 C 
ATOM     10  C   UNL     1       6.625   4.838  16.545  0.00  0.00    +0.000 C 
ATOM     11  C   UNL     1       6.326   5.811  17.709  0.00  0.00    +0.000 C 
ATOM     12  C   UNL     1       5.850   5.092  18.972  0.00  0.00    +0.000 C 
ATOM     13  N   UNL     1       2.603   3.359  18.936  0.00  0.00    +0.000 NA
ENDROOT
BRANCH  10  14
ATOM     14  O   UNL     1       7.830   4.135  16.890  0.00  0.00    +0.000 OA
ATOM     15  H   UNL     1       8.568   4.775  16.904  0.00  0.00    +0.000 HD
ENDBRANCH  10  14
BRANCH  10  16
ATOM     16  C   UNL     1       6.874   5.682  15.267  0.00  0.00    +0.000 C 
BRANCH  16  17
ATOM     17  N   UNL     1       6.888   4.904  14.042  0.00  0.00    +0.000 N 
ATOM     18  C   UNL     1       7.750   5.047  12.994  0.00  0.00    +0.000 A 
ATOM     19  C   UNL     1       7.291   4.173  12.036  0.00  0.00    +0.000 A 
ATOM     20  N   UNL     1       6.214   3.465  12.504  0.00  0.00    +0.000 NA
ATOM     21  C   UNL     1       6.016   3.901  13.726  0.00  0.00    +0.000 A 
ENDBRANCH  16  17
ENDBRANCH  10  16
TORSDOF 3
ENDMDL
MODEL 5
REMARK VINA RESULT:      -6.1      3.177      7.491
REMARK  Name = 
REMARK  4 active torsions:
REMARK  status: ('A' for Active; 'I' for Inactive)
REMARK    1  A    between atoms: C_1  and  C_2
REMARK    2  A    between atoms: C_10  and  O_11
REMARK    3  A    between atoms: C_10  and  C_12
REMARK    4  A    between atoms: C_12  and  N_13
REMARK                            x       y       z     vdW  Elec       q    Type
REMARK                         _______ _______ _______ _____ _____    ______ ____
ROOT
ATOM      1  C   UNL     1       0.975  11.444  18.915  0.00  0.00    +0.000 C 
ATOM      2  C   UNL     1       1.104  10.260  19.823  0.00  0.00    +0.000 A 
ATOM      3  C   UNL     1       0.792  10.344  21.158  0.00  0.00    +0.000 A 
ATOM      4  C   UNL     1       0.913   9.175  21.866  0.00  0.00    +0.000 A 
ATOM      5  N   UNL     1       1.302   8.008  21.320  0.00  0.00    +0.000 NA
ATOM      6  C   UNL     1       1.589   7.998  20.009  0.00  0.00    +0.000 A 
ATOM      7  N   UNL     1       1.995   6.828  19.423  0.00  0.00    +0.000 N 
ATOM      8  C   UNL     1       2.366   6.777  18.024  0.00  0.00    +0.000 C 
ATOM      9  C   UNL     1       3.795   6.243  17.933  0.00  0.00    +0.000 C 
ATOM     10  C   UNL     1       3.972   4.902  18.672  0.00  0.00    +0.000 C 
ATOM     11  C   UNL     1       3.384   4.966  20.100  0.00  0.00    +0.000 C 
ATOM     12  C   UNL     1       1.977   5.563  20.132  0.00  0.00    +0.000 C 
ATOM     13  N   UNL     1       1.510   9.107  19.252  0.00  0.00    +0.000 NA
ENDROOT
BRANCH  10  14
ATOM     14  O   UNL     1       3.257   3.870  17.973  0.00  0.00    +0.000 OA
ATOM     15  H   UNL     1       2.937   3.218  18.627  0.00  0.00    +0.000 HD
ENDBRANCH  10  14
BRANCH  10  16
ATOM     16  C   UNL     1       5.467   4.500  18.787  0.00  0.00    +0.000 C 
BRANCH  16  17
ATOM     17  N   UNL     1       6.360   5.324  17.994  0.00  0.00    +0.000 N 
ATOM     18  C   UNL     1       7.073   6.404  18.427  0.00  0.00    +0.000 A 
ATOM     19  C   UNL     1       7.668   6.912  17.295  0.00  0.00    +0.000 A 
ATOM     20  N   UNL     1       7.380   6.130  16.205  0.00  0.00    +0.000 NA
ATOM     21  C   UNL     1       6.621   5.163  16.663  0.00  0.00    +0.000 A 
ENDBRANCH  16  17
ENDBRANCH  10  16
TORSDOF 3
ENDMDL
MODEL 6
REMARK VINA RESULT:      -5.9      5.428      7.946
REMARK  Name = 
REMARK  4 active torsions:
REMARK  status: ('A' for Active; 'I' for Inactive)
REMARK    1  A    between atoms: C_1  and  C_2
REMARK    2  A    between atoms: C_10  and  O_11
REMARK    3  A    between atoms: C_10  and  C_12
REMARK    4  A    between atoms: C_12  and  N_13
REMARK                            x       y       z     vdW  Elec       q    Type
REMARK                         _______ _______ _______ _____ _____    ______ ____
ROOT
ATOM      1  C   UNL     1       3.229   3.453  17.366  0.00  0.00    +0.000 C 
ATOM      2  C   UNL     1       2.634   4.156  18.547  0.00  0.00    +0.000 A 
ATOM      3  C   UNL     1       2.196   3.461  19.648  0.00  0.00    +0.000 A 
ATOM      4  C   UNL     1       1.714   4.231  20.676  0.00  0.00    +0.000 A 
ATOM      5  N   UNL     1       1.665   5.575  20.644  0.00  0.00    +0.000 NA
ATOM      6  C   UNL     1       2.111   6.188  19.537  0.00  0.00    +0.000 A 
ATOM      7  N   UNL     1       2.068   7.556  19.468  0.00  0.00    +0.000 N 
ATOM      8  C   UNL     1       2.489   8.262  18.275  0.00  0.00    +0.000 C 
ATOM      9  C   UNL     1       1.319   9.121  17.797  0.00  0.00    +0.000 C 
ATOM     10  C   UNL     1       0.772  10.044  18.904  0.00  0.00    +0.000 C 
ATOM     11  C   UNL     1       0.521   9.260  20.213  0.00  0.00    +0.000 C 
ATOM     12  C   UNL     1       1.703   8.375  20.607  0.00  0.00    +0.000 C 
ATOM     13  N   UNL     1       2.584   5.503  18.481  0.00  0.00    +0.000 NA
ENDROOT
BRANCH  10  14
ATOM     14  O   UNL     1       1.742  11.059  19.207  0.00  0.00    +0.000 OA
ATOM     15  H   UNL     1       1.364  11.929  18.972  0.00  0.00    +0.000 HD
ENDBRANCH  10  14
BRANCH  10  16
ATOM     16  C   UNL     1      -0.561  10.719  18.485  0.00  0.00    +0.000 C 
BRANCH  16  17
ATOM     17  N   UNL     1      -0.722  12.069  18.994  0.00  0.00    +0.000 N 
ATOM     18  C   UNL     1      -0.412  13.228  18.343  0.00  0.00    +0.000 A 
ATOM     19  C   UNL     1      -0.629  14.222  19.270  0.00  0.00    +0.000 A 
ATOM     20  N   UNL     1      -1.119  13.695  20.438  0.00  0.00    +0.000 NA
ATOM     21  C   UNL     1      -1.198  12.402  20.230  0.00  0.00    +0.000 A 
ENDBRANCH  16  17
ENDBRANCH  10  16
TORSDOF 3
ENDMDL
MODEL 7
REMARK VINA RESULT:      -5.9      5.350      8.018
REMARK  Name = 
REMARK  4 active torsions:
REMARK  status: ('A' for Active; 'I' for Inactive)
REMARK    1  A    between atoms: C_1  and  C_2
REMARK    2  A    between atoms: C_10  and  O_11
REMARK    3  A    between atoms: C_10  and  C_12
REMARK    4  A    between atoms: C_12  and  N_13
REMARK                            x       y       z     vdW  Elec       q    Type
REMARK                         _______ _______ _______ _____ _____    ______ ____
ROOT
ATOM      1  C   UNL     1      -1.502  11.610  22.070  0.00  0.00    +0.000 C 
ATOM      2  C   UNL     1      -0.957  11.193  20.739  0.00  0.00    +0.000 A 
ATOM      3  C   UNL     1      -1.363  11.803  19.577  0.00  0.00    +0.000 A 
ATOM      4  C   UNL     1      -0.753  11.354  18.433  0.00  0.00    +0.000 A 
ATOM      5  N   UNL     1       0.186  10.390  18.415  0.00  0.00    +0.000 NA
ATOM      6  C   UNL     1       0.535   9.839  19.588  0.00  0.00    +0.000 A 
ATOM      7  N   UNL     1       1.482   8.850  19.605  0.00  0.00    +0.000 N 
ATOM      8  C   UNL     1       1.857   8.188  20.838  0.00  0.00    +0.000 C 
ATOM      9  C   UNL     1       1.621   6.688  20.659  0.00  0.00    +0.000 C 
ATOM     10  C   UNL     1       2.329   6.124  19.411  0.00  0.00    +0.000 C 
ATOM     11  C   UNL     1       2.040   6.988  18.163  0.00  0.00    +0.000 C 
ATOM     12  C   UNL     1       2.236   8.482  18.421  0.00  0.00    +0.000 C 
ATOM     13  N   UNL     1      -0.029  10.214  20.750  0.00  0.00    +0.000 NA
ENDROOT
BRANCH  10  14
ATOM     14  O   UNL     1       3.752   6.149  19.614  0.00  0.00    +0.000 OA
ATOM     15  H   UNL     1       3.991   5.418  20.217  0.00  0.00    +0.000 HD
ENDBRANCH  10  14
BRANCH  10  16
ATOM     16  C   UNL     1       1.882   4.670  19.103  0.00  0.00    +0.000 C 
BRANCH  16  17
ATOM     17  N   UNL     1       2.138   3.734  20.182  0.00  0.00    +0.000 N 
ATOM     18  C   UNL     1       3.298   3.055  20.414  0.00  0.00    +0.000 A 
ATOM     19  C   UNL     1       3.012   2.215  21.466  0.00  0.00    +0.000 A 
ATOM     20  N   UNL     1       1.730   2.417  21.910  0.00  0.00    +0.000 NA
ATOM     21  C   UNL     1       1.241   3.361  21.142  0.00  0.00    +0.000 A 
ENDBRANCH  16  17
ENDBRANCH  10  16
TORSDOF 3
ENDMDL
MODEL 8
REMARK VINA RESULT:      -5.8      5.383      7.901
REMARK  Name = 
REMARK  4 active torsions:
REMARK  status: ('A' for Active; 'I' for Inactive)
REMARK    1  A    between atoms: C_1  and  C_2
REMARK    2  A    between atoms: C_10  and  O_11
REMARK    3  A    between atoms: C_10  and  C_12
REMARK    4  A    between atoms: C_12  and  N_13
REMARK                            x       y       z     vdW  Elec       q    Type
REMARK                         _______ _______ _______ _____ _____    ______ ____
ROOT
ATOM      1  C   UNL     1       3.154   4.349  17.237  0.00  0.00    +0.000 C 
ATOM      2  C   UNL     1       2.666   4.912  18.536  0.00  0.00    +0.000 A 
ATOM      3  C   UNL     1       2.539   4.125  19.655  0.00  0.00    +0.000 A 
ATOM      4  C   UNL     1       2.124   4.777  20.788  0.00  0.00    +0.000 A 
ATOM      5  N   UNL     1       1.858   6.094  20.837  0.00  0.00    +0.000 NA
ATOM      6  C   UNL     1       2.005   6.803  19.707  0.00  0.00    +0.000 A 
ATOM      7  N   UNL     1       1.734   8.146  19.721  0.00  0.00    +0.000 N 
ATOM      8  C   UNL     1       1.828   8.944  18.515  0.00  0.00    +0.000 C 
ATOM      9  C   UNL     1       0.472   9.610  18.284  0.00  0.00    +0.000 C 
ATOM     10  C   UNL     1      -0.017  10.399  19.514  0.00  0.00    +0.000 C 
ATOM     11  C   UNL     1       0.087   9.550  20.802  0.00  0.00    +0.000 C 
ATOM     12  C   UNL     1       1.445   8.862  20.948  0.00  0.00    +0.000 C 
ATOM     13  N   UNL     1       2.392   6.233  18.552  0.00  0.00    +0.000 NA
ENDROOT
BRANCH  10  14
ATOM     14  O   UNL     1       0.818  11.552  19.708  0.00  0.00    +0.000 OA
ATOM     15  H   UNL     1       1.404  11.645  18.931  0.00  0.00    +0.000 HD
ENDBRANCH  10  14
BRANCH  10  16
ATOM     16  C   UNL     1      -1.492  10.855  19.358  0.00  0.00    +0.000 C 
BRANCH  16  17
ATOM     17  N   UNL     1      -2.031  10.656  18.025  0.00  0.00    +0.000 N 
ATOM     18  C   UNL     1      -1.865  11.475  16.947  0.00  0.00    +0.000 A 
ATOM     19  C   UNL     1      -2.654  10.928  15.962  0.00  0.00    +0.000 A 
ATOM     20  N   UNL     1      -3.241   9.769  16.401  0.00  0.00    +0.000 NA
ATOM     21  C   UNL     1      -2.819   9.612  17.634  0.00  0.00    +0.000 A 
ENDBRANCH  16  17
ENDBRANCH  10  16
TORSDOF 3
ENDMDL
MODEL 9
REMARK VINA RESULT:      -5.8      3.277      7.337
REMARK  Name = 
REMARK  4 active torsions:
REMARK  status: ('A' for Active; 'I' for Inactive)
REMARK    1  A    between atoms: C_1  and  C_2
REMARK    2  A    between atoms: C_10  and  O_11
REMARK    3  A    between atoms: C_10  and  C_12
REMARK    4  A    between atoms: C_12  and  N_13
REMARK                            x       y       z     vdW  Elec       q    Type
REMARK                         _______ _______ _______ _____ _____    ______ ____
ROOT
ATOM      1  C   UNL     1       0.691  10.915  18.693  0.00  0.00    +0.000 C 
ATOM      2  C   UNL     1       1.079   9.795  19.609  0.00  0.00    +0.000 A 
ATOM      3  C   UNL     1       0.941   9.904  20.971  0.00  0.00    +0.000 A 
ATOM      4  C   UNL     1       1.292   8.789  21.689  0.00  0.00    +0.000 A 
ATOM      5  N   UNL     1       1.738   7.649  21.128  0.00  0.00    +0.000 NA
ATOM      6  C   UNL     1       1.846   7.613  19.791  0.00  0.00    +0.000 A 
ATOM      7  N   UNL     1       2.304   6.471  19.189  0.00  0.00    +0.000 N 
ATOM      8  C   UNL     1       2.487   6.399  17.754  0.00  0.00    +0.000 C 
ATOM      9  C   UNL     1       3.944   6.025  17.483  0.00  0.00    +0.000 C 
ATOM     10  C   UNL     1       4.375   4.746  18.229  0.00  0.00    +0.000 C 
ATOM     11  C   UNL     1       3.979   4.808  19.722  0.00  0.00    +0.000 C 
ATOM     12  C   UNL     1       2.529   5.245  19.931  0.00  0.00    +0.000 C 
ATOM     13  N   UNL     1       1.536   8.670  19.020  0.00  0.00    +0.000 NA
ENDROOT
BRANCH  10  14
ATOM     14  O   UNL     1       3.698   3.611  17.666  0.00  0.00    +0.000 OA
ATOM     15  H   UNL     1       4.173   3.337  16.857  0.00  0.00    +0.000 HD
ENDBRANCH  10  14
BRANCH  10  16
ATOM     16  C   UNL     1       5.908   4.520  18.147  0.00  0.00    +0.000 C 
BRANCH  16  17
ATOM     17  N   UNL     1       6.683   5.746  18.120  0.00  0.00    +0.000 N 
ATOM     18  C   UNL     1       6.600   6.744  17.192  0.00  0.00    +0.000 A 
ATOM     19  C   UNL     1       7.605   7.622  17.527  0.00  0.00    +0.000 A 
ATOM     20  N   UNL     1       8.248   7.210  18.666  0.00  0.00    +0.000 NA
ATOM     21  C   UNL     1       7.648   6.098  19.020  0.00  0.00    +0.000 A 
ENDBRANCH  16  17
ENDBRANCH  10  16
TORSDOF 3
ENDMDL
