MODEL 1
REMARK VINA RESULT:      -8.8      0.000      0.000
REMARK  Name = 
REMARK  9 active torsions:
REMARK  status: ('A' for Active; 'I' for Inactive)
REMARK    1  A    between atoms: C_1  and  O_2
REMARK    2  A    between atoms: O_2  and  C_3
REMARK    3  A    between atoms: C_6  and  N_7
REMARK    4  A    between atoms: C_8  and  C_10
REMARK    5  A    between atoms: C_13  and  C_14
REMARK    6  A    between atoms: C_14  and  N_15
REMARK    7  A    between atoms: C_26  and  C_27
REMARK    8  A    between atoms: N_29  and  C_30
REMARK    9  A    between atoms: C_30  and  C_31
REMARK                            x       y       z     vdW  Elec       q    Type
REMARK                         _______ _______ _______ _____ _____    ______ ____
ROOT
ATOM      1  N   UNL     1       1.038   8.642  20.016  0.00  0.00    +0.000 N 
ATOM      2  C   UNL     1       1.783   7.583  20.539  0.00  0.00    +0.000 C 
ATOM      3  O   UNL     1       1.975   7.376  21.733  0.00  0.00    +0.000 OA
ATOM      4  H   UNL     1       0.919   8.713  19.005  0.00  0.00    +0.000 HD
ENDROOT
BRANCH   2   5
ATOM      5  C   UNL     1       2.372   6.607  19.561  0.00  0.00    +0.000 A 
ATOM      6  C   UNL     1       3.197   7.127  18.555  0.00  0.00    +0.000 A 
ATOM      7  C   UNL     1       3.689   6.295  17.554  0.00  0.00    +0.000 A 
ATOM      8  C   UNL     1       3.405   4.921  17.550  0.00  0.00    +0.000 A 
ATOM      9  C   UNL     1       2.632   4.356  18.602  0.00  0.00    +0.000 A 
ATOM     10  C   UNL     1       2.418   2.960  18.707  0.00  0.00    +0.000 A 
ATOM     11  C   UNL     1       1.669   2.396  19.739  0.00  0.00    +0.000 A 
ATOM     12  C   UNL     1       1.074   3.218  20.674  0.00  0.00    +0.000 A 
ATOM     13  C   UNL     1       1.264   4.599  20.598  0.00  0.00    +0.000 A 
ATOM     14  C   UNL     1       2.070   5.210  19.600  0.00  0.00    +0.000 A 
BRANCH   8  15
ATOM     15  C   UNL     1       3.963   4.088  16.409  0.00  0.00    +0.000 C 
BRANCH  15  16
ATOM     16  N   UNL     1       5.322   4.437  16.022  0.00  0.00    +0.000 N 
ATOM     17  C   UNL     1       5.816   4.885  14.833  0.00  0.00    +0.000 A 
ATOM     18  C   UNL     1       7.167   4.986  15.050  0.00  0.00    +0.000 A 
ATOM     19  N   UNL     1       7.449   4.629  16.337  0.00  0.00    +0.000 NA
ATOM     20  N   UNL     1       6.311   4.298  16.928  0.00  0.00    +0.000 NA
ENDBRANCH  15  16
ENDBRANCH   8  15
ENDBRANCH   2   5
BRANCH   1  24
ATOM     21  C   UNL     1      -0.609  11.790  22.241  0.00  0.00    +0.000 A 
ATOM     22  C   UNL     1      -0.872  10.501  22.642  0.00  0.00    +0.000 A 
ATOM     23  C   UNL     1      -0.343   9.453  21.895  0.00  0.00    +0.000 A 
ATOM     24  C   UNL     1       0.438   9.704  20.758  0.00  0.00    +0.000 A 
ATOM     25  C   UNL     1       0.614  11.065  20.417  0.00  0.00    +0.000 A 
ATOM     26  N   UNL     1       0.116  12.102  21.149  0.00  0.00    +0.000 NA
BRANCH  25  27
ATOM     27  C   UNL     1       1.350  11.534  19.185  0.00  0.00    +0.000 C 
ATOM     28  O   UNL     1       1.482  10.781  18.217  0.00  0.00    +0.000 OA
ATOM     29  N   UNL     1       1.845  12.838  19.218  0.00  0.00    +0.000 N 
ATOM     30  H   UNL     1       1.810  13.300  20.122  0.00  0.00    +0.000 HD
BRANCH  29  31
ATOM     31  C   UNL     1       2.564  13.443  18.102  0.00  0.00    +0.000 C 
BRANCH  31  32
ATOM     32  C   UNL     1       3.734  14.381  18.503  0.00  0.00    +0.000 C 
ATOM     33  C   UNL     1       3.931  15.535  17.491  0.00  0.00    +0.000 C 
ATOM     34  C   UNL     1       2.840  16.608  17.559  0.00  0.00    +0.000 C 
ATOM     35  C   UNL     1       2.628  17.130  18.979  0.00  0.00    +0.000 C 
ATOM     36  C   UNL     1       2.438  15.997  19.982  0.00  0.00    +0.000 C 
ATOM     37  C   UNL     1       3.589  14.997  19.905  0.00  0.00    +0.000 C 
ENDBRANCH  31  32
ENDBRANCH  29  31
ENDBRANCH  25  27
BRANCH  21  39
ATOM     38  C   UNL     1      -2.532  12.643  23.229  0.00  0.00    +0.000 C 
ATOM     39  O   UNL     1      -1.135  12.802  23.014  0.00  0.00    +0.000 OA
ENDBRANCH  21  39
ENDBRANCH   1  24
TORSDOF 8
ENDMDL
MODEL 2
REMARK VINA RESULT:      -8.8      0.514      1.181
REMARK  Name = 
REMARK  9 active torsions:
REMARK  status: ('A' for Active; 'I' for Inactive)
REMARK    1  A    between atoms: C_1  and  O_2
REMARK    2  A    between atoms: O_2  and  C_3
REMARK    3  A    between atoms: C_6  and  N_7
REMARK    4  A    between atoms: C_8  and  C_10
REMARK    5  A    between atoms: C_13  and  C_14
REMARK    6  A    between atoms: C_14  and  N_15
REMARK    7  A    between atoms: C_26  and  C_27
REMARK    8  A    between atoms: N_29  and  C_30
REMARK    9  A    between atoms: C_30  and  C_31
REMARK                            x       y       z     vdW  Elec       q    Type
REMARK                         _______ _______ _______ _____ _____    ______ ____
ROOT
ATOM      1  N   UNL     1       1.089   8.561  20.072  0.00  0.00    +0.000 N 
ATOM      2  C   UNL     1       1.765   7.443  20.566  0.00  0.00    +0.000 C 
ATOM      3  O   UNL     1       1.891   7.163  21.754  0.00  0.00    +0.000 OA
ATOM      4  H   UNL     1       1.022   8.693  19.062  0.00  0.00    +0.000 HD
ENDROOT
BRANCH   2   5
ATOM      5  C   UNL     1       2.360   6.499  19.561  0.00  0.00    +0.000 A 
ATOM      6  C   UNL     1       3.179   7.052  18.568  0.00  0.00    +0.000 A 
ATOM      7  C   UNL     1       3.675   6.251  17.544  0.00  0.00    +0.000 A 
ATOM      8  C   UNL     1       3.403   4.875  17.504  0.00  0.00    +0.000 A 
ATOM      9  C   UNL     1       2.636   4.276  18.543  0.00  0.00    +0.000 A 
ATOM     10  C   UNL     1       2.435   2.876  18.612  0.00  0.00    +0.000 A 
ATOM     11  C   UNL     1       1.693   2.278  19.630  0.00  0.00    +0.000 A 
ATOM     12  C   UNL     1       1.093   3.071  20.587  0.00  0.00    +0.000 A 
ATOM     13  C   UNL     1       1.271   4.455  20.548  0.00  0.00    +0.000 A 
ATOM     14  C   UNL     1       2.069   5.099  19.564  0.00  0.00    +0.000 A 
BRANCH   8  15
ATOM     15  C   UNL     1       3.965   4.077  16.342  0.00  0.00    +0.000 C 
BRANCH  15  16
ATOM     16  N   UNL     1       5.335   4.420  15.987  0.00  0.00    +0.000 N 
ATOM     17  C   UNL     1       5.859   4.866  14.810  0.00  0.00    +0.000 A 
ATOM     18  C   UNL     1       7.206   4.960  15.060  0.00  0.00    +0.000 A 
ATOM     19  N   UNL     1       7.455   4.601  16.353  0.00  0.00    +0.000 NA
ATOM     20  N   UNL     1       6.301   4.274  16.917  0.00  0.00    +0.000 NA
ENDBRANCH  15  16
ENDBRANCH   8  15
ENDBRANCH   2   5
BRANCH   1  24
ATOM     21  C   UNL     1      -0.531  11.658  22.386  0.00  0.00    +0.000 A 
ATOM     22  C   UNL     1      -0.766  10.360  22.776  0.00  0.00    +0.000 A 
ATOM     23  C   UNL     1      -0.246   9.329  22.000  0.00  0.00    +0.000 A 
ATOM     24  C   UNL     1       0.498   9.606  20.845  0.00  0.00    +0.000 A 
ATOM     25  C   UNL     1       0.648  10.973  20.518  0.00  0.00    +0.000 A 
ATOM     26  N   UNL     1       0.158  11.994  21.278  0.00  0.00    +0.000 NA
BRANCH  25  27
ATOM     27  C   UNL     1       1.341  11.468  19.272  0.00  0.00    +0.000 C 
ATOM     28  O   UNL     1       1.570  10.693  18.340  0.00  0.00    +0.000 OA
ATOM     29  N   UNL     1       1.685  12.820  19.249  0.00  0.00    +0.000 N 
ATOM     30  H   UNL     1       1.585  13.315  20.131  0.00  0.00    +0.000 HD
BRANCH  29  31
ATOM     31  C   UNL     1       2.344  13.453  18.113  0.00  0.00    +0.000 C 
BRANCH  31  32
ATOM     32  C   UNL     1       2.622  14.972  18.274  0.00  0.00    +0.000 C 
ATOM     33  C   UNL     1       2.938  15.356  19.740  0.00  0.00    +0.000 C 
ATOM     34  C   UNL     1       4.318  14.892  20.214  0.00  0.00    +0.000 C 
ATOM     35  C   UNL     1       5.434  15.323  19.263  0.00  0.00    +0.000 C 
ATOM     36  C   UNL     1       5.126  14.951  17.816  0.00  0.00    +0.000 C 
ATOM     37  C   UNL     1       3.765  15.495  17.387  0.00  0.00    +0.000 C 
ENDBRANCH  31  32
ENDBRANCH  29  31
ENDBRANCH  25  27
BRANCH  21  39
ATOM     38  C   UNL     1      -2.407  12.935  22.885  0.00  0.00    +0.000 C 
ATOM     39  O   UNL     1      -1.047  12.653  23.188  0.00  0.00    +0.000 OA
ENDBRANCH  21  39
ENDBRANCH   1  24
TORSDOF 8
ENDMDL
MODEL 3
REMARK VINA RESULT:      -8.6      2.278      9.688
REMARK  Name = 
REMARK  9 active torsions:
REMARK  status: ('A' for Active; 'I' for Inactive)
REMARK    1  A    between atoms: C_1  and  O_2
REMARK    2  A    between atoms: O_2  and  C_3
REMARK    3  A    between atoms: C_6  and  N_7
REMARK    4  A    between atoms: C_8  and  C_10
REMARK    5  A    between atoms: C_13  and  C_14
REMARK    6  A    between atoms: C_14  and  N_15
REMARK    7  A    between atoms: C_26  and  C_27
REMARK    8  A    between atoms: N_29  and  C_30
REMARK    9  A    between atoms: C_30  and  C_31
REMARK                            x       y       z     vdW  Elec       q    Type
REMARK                         _______ _______ _______ _____ _____    ______ ____
ROOT
ATOM      1  N   UNL     1       3.538   8.092  17.848  0.00  0.00    +0.000 N 
ATOM      2  C   UNL     1       2.174   8.386  17.905  0.00  0.00    +0.000 C 
ATOM      3  O   UNL     1       1.279   7.669  17.471  0.00  0.00    +0.000 OA
ATOM      4  H   UNL     1       4.205   8.747  18.259  0.00  0.00    +0.000 HD
ENDROOT
BRANCH   2   5
ATOM      5  C   UNL     1       1.775   9.670  18.574  0.00  0.00    +0.000 A 
ATOM      6  C   UNL     1       2.121  10.864  17.929  0.00  0.00    +0.000 A 
ATOM      7  C   UNL     1       1.878  12.088  18.545  0.00  0.00    +0.000 A 
ATOM      8  C   UNL     1       1.248  12.156  19.797  0.00  0.00    +0.000 A 
ATOM      9  C   UNL     1       0.818  10.960  20.437  0.00  0.00    +0.000 A 
ATOM     10  C   UNL     1       0.074  10.984  21.643  0.00  0.00    +0.000 A 
ATOM     11  C   UNL     1      -0.359   9.818  22.274  0.00  0.00    +0.000 A 
ATOM     12  C   UNL     1      -0.022   8.592  21.739  0.00  0.00    +0.000 A 
ATOM     13  C   UNL     1       0.712   8.534  20.553  0.00  0.00    +0.000 A 
ATOM     14  C   UNL     1       1.120   9.696  19.845  0.00  0.00    +0.000 A 
BRANCH   8  15
ATOM     15  C   UNL     1       1.038  13.530  20.408  0.00  0.00    +0.000 C 
BRANCH  15  16
ATOM     16  N   UNL     1       2.267  14.270  20.655  0.00  0.00    +0.000 N 
ATOM     17  C   UNL     1       2.760  15.393  20.058  0.00  0.00    +0.000 A 
ATOM     18  C   UNL     1       3.975  15.587  20.666  0.00  0.00    +0.000 A 
ATOM     19  N   UNL     1       4.173  14.619  21.607  0.00  0.00    +0.000 NA
ATOM     20  N   UNL     1       3.119  13.816  21.597  0.00  0.00    +0.000 NA
ENDBRANCH  15  16
ENDBRANCH   8  15
ENDBRANCH   2   5
BRANCH   1  24
ATOM     21  C   UNL     1       5.393   4.777  16.074  0.00  0.00    +0.000 A 
ATOM     22  C   UNL     1       5.362   5.960  15.373  0.00  0.00    +0.000 A 
ATOM     23  C   UNL     1       4.730   7.057  15.950  0.00  0.00    +0.000 A 
ATOM     24  C   UNL     1       4.137   6.960  17.216  0.00  0.00    +0.000 A 
ATOM     25  C   UNL     1       4.196   5.688  17.831  0.00  0.00    +0.000 A 
ATOM     26  N   UNL     1       4.826   4.609  17.285  0.00  0.00    +0.000 NA
BRANCH  25  27
ATOM     27  C   UNL     1       3.544   5.362  19.153  0.00  0.00    +0.000 C 
ATOM     28  O   UNL     1       4.215   5.345  20.188  0.00  0.00    +0.000 OA
ATOM     29  N   UNL     1       2.175   5.098  19.120  0.00  0.00    +0.000 N 
ATOM     30  H   UNL     1       1.768   4.990  18.195  0.00  0.00    +0.000 HD
BRANCH  29  31
ATOM     31  C   UNL     1       1.398   4.783  20.314  0.00  0.00    +0.000 C 
BRANCH  31  32
ATOM     32  C   UNL     1       0.963   3.298  20.445  0.00  0.00    +0.000 C 
ATOM     33  C   UNL     1       0.709   2.639  19.068  0.00  0.00    +0.000 C 
ATOM     34  C   UNL     1       1.989   2.359  18.274  0.00  0.00    +0.000 C 
ATOM     35  C   UNL     1       3.021   1.584  19.090  0.00  0.00    +0.000 C 
ATOM     36  C   UNL     1       3.272   2.226  20.451  0.00  0.00    +0.000 C 
ATOM     37  C   UNL     1       1.965   2.421  21.216  0.00  0.00    +0.000 C 
ENDBRANCH  31  32
ENDBRANCH  29  31
ENDBRANCH  25  27
BRANCH  21  39
ATOM     38  C   UNL     1       6.284   3.945  14.096  0.00  0.00    +0.000 C 
ATOM     39  O   UNL     1       6.041   3.717  15.479  0.00  0.00    +0.000 OA
ENDBRANCH  21  39
ENDBRANCH   1  24
TORSDOF 8
ENDMDL
MODEL 4
REMARK VINA RESULT:      -8.5      1.456      1.932
REMARK  Name = 
REMARK  9 active torsions:
REMARK  status: ('A' for Active; 'I' for Inactive)
REMARK    1  A    between atoms: C_1  and  O_2
REMARK    2  A    between atoms: O_2  and  C_3
REMARK    3  A    between atoms: C_6  and  N_7
REMARK    4  A    between atoms: C_8  and  C_10
REMARK    5  A    between atoms: C_13  and  C_14
REMARK    6  A    between atoms: C_14  and  N_15
REMARK    7  A    between atoms: C_26  and  C_27
REMARK    8  A    between atoms: N_29  and  C_30
REMARK    9  A    between atoms: C_30  and  C_31
REMARK                            x       y       z     vdW  Elec       q    Type
REMARK                         _______ _______ _______ _____ _____    ______ ____
ROOT
ATOM      1  N   UNL     1       2.063   8.355  19.654  0.00  0.00    +0.000 N 
ATOM      2  C   UNL     1       1.994   7.724  18.410  0.00  0.00    +0.000 C 
ATOM      3  O   UNL     1       1.098   7.881  17.587  0.00  0.00    +0.000 OA
ATOM      4  H   UNL     1       2.865   8.174  20.259  0.00  0.00    +0.000 HD
ENDROOT
BRANCH   2   5
ATOM      5  C   UNL     1       3.121   6.801  18.044  0.00  0.00    +0.000 A 
ATOM      6  C   UNL     1       4.358   7.385  17.747  0.00  0.00    +0.000 A 
ATOM      7  C   UNL     1       5.414   6.599  17.296  0.00  0.00    +0.000 A 
ATOM      8  C   UNL     1       5.277   5.207  17.168  0.00  0.00    +0.000 A 
ATOM      9  C   UNL     1       4.054   4.581  17.536  0.00  0.00    +0.000 A 
ATOM     10  C   UNL     1       3.905   3.172  17.538  0.00  0.00    +0.000 A 
ATOM     11  C   UNL     1       2.714   2.549  17.905  0.00  0.00    +0.000 A 
ATOM     12  C   UNL     1       1.619   3.320  18.239  0.00  0.00    +0.000 A 
ATOM     13  C   UNL     1       1.731   4.711  18.246  0.00  0.00    +0.000 A 
ATOM     14  C   UNL     1       2.944   5.386  17.939  0.00  0.00    +0.000 A 
BRANCH   8  15
ATOM     15  C   UNL     1       6.471   4.425  16.650  0.00  0.00    +0.000 C 
BRANCH  15  16
ATOM     16  N   UNL     1       6.746   4.621  15.234  0.00  0.00    +0.000 N 
ATOM     17  C   UNL     1       6.201   4.026  14.135  0.00  0.00    +0.000 A 
ATOM     18  C   UNL     1       6.894   4.570  13.083  0.00  0.00    +0.000 A 
ATOM     19  N   UNL     1       7.803   5.473  13.554  0.00  0.00    +0.000 NA
ATOM     20  N   UNL     1       7.703   5.502  14.876  0.00  0.00    +0.000 NA
ENDBRANCH  15  16
ENDBRANCH   8  15
ENDBRANCH   2   5
BRANCH   1  24
ATOM     21  C   UNL     1      -0.727  10.958  21.389  0.00  0.00    +0.000 A 
ATOM     22  C   UNL     1      -0.784   9.624  21.722  0.00  0.00    +0.000 A 
ATOM     23  C   UNL     1       0.128   8.755  21.133  0.00  0.00    +0.000 A 
ATOM     24  C   UNL     1       1.082   9.225  20.220  0.00  0.00    +0.000 A 
ATOM     25  C   UNL     1       1.027  10.606  19.924  0.00  0.00    +0.000 A 
ATOM     26  N   UNL     1       0.150  11.473  20.506  0.00  0.00    +0.000 NA
BRANCH  25  27
ATOM     27  C   UNL     1       1.912  11.283  18.906  0.00  0.00    +0.000 C 
ATOM     28  O   UNL     1       2.253  10.684  17.883  0.00  0.00    +0.000 OA
ATOM     29  N   UNL     1       2.296  12.593  19.193  0.00  0.00    +0.000 N 
ATOM     30  H   UNL     1       2.082  12.921  20.131  0.00  0.00    +0.000 HD
BRANCH  29  31
ATOM     31  C   UNL     1       3.136  13.388  18.303  0.00  0.00    +0.000 C 
BRANCH  31  32
ATOM     32  C   UNL     1       2.527  14.746  17.861  0.00  0.00    +0.000 C 
ATOM     33  C   UNL     1       1.682  15.401  18.980  0.00  0.00    +0.000 C 
ATOM     34  C   UNL     1       2.519  15.971  20.130  0.00  0.00    +0.000 C 
ATOM     35  C   UNL     1       3.624  16.903  19.637  0.00  0.00    +0.000 C 
ATOM     36  C   UNL     1       4.458  16.264  18.530  0.00  0.00    +0.000 C 
ATOM     37  C   UNL     1       3.570  15.774  17.388  0.00  0.00    +0.000 C 
ENDBRANCH  31  32
ENDBRANCH  29  31
ENDBRANCH  25  27
BRANCH  21  39
ATOM     38  C   UNL     1      -0.999  12.813  22.762  0.00  0.00    +0.000 C 
ATOM     39  O   UNL     1      -1.635  11.792  22.004  0.00  0.00    +0.000 OA
ENDBRANCH  21  39
ENDBRANCH   1  24
TORSDOF 8
ENDMDL
MODEL 5
REMARK VINA RESULT:      -8.5      2.802      4.116
REMARK  Name = 
REMARK  9 active torsions:
REMARK  status: ('A' for Active; 'I' for Inactive)
REMARK    1  A    between atoms: C_1  and  O_2
REMARK    2  A    between atoms: O_2  and  C_3
REMARK    3  A    between atoms: C_6  and  N_7
REMARK    4  A    between atoms: C_8  and  C_10
REMARK    5  A    between atoms: C_13  and  C_14
REMARK    6  A    between atoms: C_14  and  N_15
REMARK    7  A    between atoms: C_26  and  C_27
REMARK    8  A    between atoms: N_29  and  C_30
REMARK    9  A    between atoms: C_30  and  C_31
REMARK                            x       y       z     vdW  Elec       q    Type
REMARK                         _______ _______ _______ _____ _____    ______ ____
ROOT
ATOM      1  N   UNL     1       2.025   7.722  20.104  0.00  0.00    +0.000 N 
ATOM      2  C   UNL     1       1.995   6.352  20.370  0.00  0.00    +0.000 C 
ATOM      3  O   UNL     1       1.294   5.812  21.219  0.00  0.00    +0.000 OA
ATOM      4  H   UNL     1       2.629   8.070  19.358  0.00  0.00    +0.000 HD
ENDROOT
BRANCH   2   5
ATOM      5  C   UNL     1       2.873   5.469  19.529  0.00  0.00    +0.000 A 
ATOM      6  C   UNL     1       4.142   5.957  19.195  0.00  0.00    +0.000 A 
ATOM      7  C   UNL     1       4.964   5.240  18.331  0.00  0.00    +0.000 A 
ATOM      8  C   UNL     1       4.560   4.000  17.811  0.00  0.00    +0.000 A 
ATOM      9  C   UNL     1       3.307   3.447  18.196  0.00  0.00    +0.000 A 
ATOM     10  C   UNL     1       2.907   2.149  17.793  0.00  0.00    +0.000 A 
ATOM     11  C   UNL     1       1.685   1.594  18.172  0.00  0.00    +0.000 A 
ATOM     12  C   UNL     1       0.806   2.342  18.930  0.00  0.00    +0.000 A 
ATOM     13  C   UNL     1       1.169   3.625  19.342  0.00  0.00    +0.000 A 
ATOM     14  C   UNL     1       2.429   4.204  19.031  0.00  0.00    +0.000 A 
BRANCH   8  15
ATOM     15  C   UNL     1       5.507   3.291  16.859  0.00  0.00    +0.000 C 
BRANCH  15  16
ATOM     16  N   UNL     1       6.098   4.156  15.848  0.00  0.00    +0.000 N 
ATOM     17  C   UNL     1       5.633   4.532  14.623  0.00  0.00    +0.000 A 
ATOM     18  C   UNL     1       6.644   5.303  14.105  0.00  0.00    +0.000 A 
ATOM     19  N   UNL     1       7.659   5.392  15.013  0.00  0.00    +0.000 NA
ATOM     20  N   UNL     1       7.315   4.688  16.082  0.00  0.00    +0.000 NA
ENDBRANCH  15  16
ENDBRANCH   8  15
ENDBRANCH   2   5
BRANCH   1  24
ATOM     21  C   UNL     1       0.027  10.793  22.142  0.00  0.00    +0.000 A 
ATOM     22  C   UNL     1       0.738   9.875  22.880  0.00  0.00    +0.000 A 
ATOM     23  C   UNL     1       1.386   8.843  22.208  0.00  0.00    +0.000 A 
ATOM     24  C   UNL     1       1.316   8.739  20.812  0.00  0.00    +0.000 A 
ATOM     25  C   UNL     1       0.529   9.715  20.158  0.00  0.00    +0.000 A 
ATOM     26  N   UNL     1      -0.097  10.741  20.801  0.00  0.00    +0.000 NA
BRANCH  25  27
ATOM     27  C   UNL     1       0.263   9.723  18.672  0.00  0.00    +0.000 C 
ATOM     28  O   UNL     1       1.132   9.339  17.885  0.00  0.00    +0.000 OA
ATOM     29  N   UNL     1      -0.995  10.173  18.270  0.00  0.00    +0.000 N 
ATOM     30  H   UNL     1      -1.561  10.605  18.994  0.00  0.00    +0.000 HD
BRANCH  29  31
ATOM     31  C   UNL     1      -1.410  10.225  16.873  0.00  0.00    +0.000 C 
BRANCH  31  32
ATOM     32  C   UNL     1      -2.767   9.536  16.562  0.00  0.00    +0.000 C 
ATOM     33  C   UNL     1      -3.718   9.541  17.783  0.00  0.00    +0.000 C 
ATOM     34  C   UNL     1      -4.309  10.918  18.099  0.00  0.00    +0.000 C 
ATOM     35  C   UNL     1      -4.956  11.566  16.876  0.00  0.00    +0.000 C 
ATOM     36  C   UNL     1      -4.024  11.561  15.668  0.00  0.00    +0.000 C 
ATOM     37  C   UNL     1      -3.520  10.151  15.370  0.00  0.00    +0.000 C 
ENDBRANCH  31  32
ENDBRANCH  29  31
ENDBRANCH  25  27
BRANCH  21  39
ATOM     38  C   UNL     1      -0.446  13.067  22.190  0.00  0.00    +0.000 C 
ATOM     39  O   UNL     1      -0.587  11.810  22.839  0.00  0.00    +0.000 OA
ENDBRANCH  21  39
ENDBRANCH   1  24
TORSDOF 8
ENDMDL
MODEL 6
REMARK VINA RESULT:      -8.4      0.958      1.094
REMARK  Name = 
REMARK  9 active torsions:
REMARK  status: ('A' for Active; 'I' for Inactive)
REMARK    1  A    between atoms: C_1  and  O_2
REMARK    2  A    between atoms: O_2  and  C_3
REMARK    3  A    between atoms: C_6  and  N_7
REMARK    4  A    between atoms: C_8  and  C_10
REMARK    5  A    between atoms: C_13  and  C_14
REMARK    6  A    between atoms: C_14  and  N_15
REMARK    7  A    between atoms: C_26  and  C_27
REMARK    8  A    between atoms: N_29  and  C_30
REMARK    9  A    between atoms: C_30  and  C_31
REMARK                            x       y       z     vdW  Elec       q    Type
REMARK                         _______ _______ _______ _____ _____    ______ ____
ROOT
ATOM      1  N   UNL     1       1.023   9.312  20.218  0.00  0.00    +0.000 N 
ATOM      2  C   UNL     1       1.513   8.089  20.683  0.00  0.00    +0.000 C 
ATOM      3  O   UNL     1       1.404   7.675  21.832  0.00  0.00    +0.000 OA
ATOM      4  H   UNL     1       1.147   9.555  19.235  0.00  0.00    +0.000 HD
ENDROOT
BRANCH   2   5
ATOM      5  C   UNL     1       2.206   7.203  19.687  0.00  0.00    +0.000 A 
ATOM      6  C   UNL     1       2.938   7.830  18.671  0.00  0.00    +0.000 A 
ATOM      7  C   UNL     1       3.514   7.073  17.655  0.00  0.00    +0.000 A 
ATOM      8  C   UNL     1       3.410   5.674  17.646  0.00  0.00    +0.000 A 
ATOM      9  C   UNL     1       2.736   5.009  18.708  0.00  0.00    +0.000 A 
ATOM     10  C   UNL     1       2.706   3.596  18.807  0.00  0.00    +0.000 A 
ATOM     11  C   UNL     1       2.056   2.935  19.848  0.00  0.00    +0.000 A 
ATOM     12  C   UNL     1       1.377   3.670  20.799  0.00  0.00    +0.000 A 
ATOM     13  C   UNL     1       1.385   5.064  20.730  0.00  0.00    +0.000 A 
ATOM     14  C   UNL     1       2.087   5.779  19.722  0.00  0.00    +0.000 A 
BRANCH   8  15
ATOM     15  C   UNL     1       4.050   4.925  16.490  0.00  0.00    +0.000 C 
BRANCH  15  16
ATOM     16  N   UNL     1       5.506   4.931  16.506  0.00  0.00    +0.000 N 
ATOM     17  C   UNL     1       6.384   4.378  17.390  0.00  0.00    +0.000 A 
ATOM     18  C   UNL     1       7.616   4.760  16.919  0.00  0.00    +0.000 A 
ATOM     19  N   UNL     1       7.460   5.495  15.780  0.00  0.00    +0.000 NA
ATOM     20  N   UNL     1       6.162   5.593  15.530  0.00  0.00    +0.000 NA
ENDBRANCH  15  16
ENDBRANCH   8  15
ENDBRANCH   2   5
BRANCH   1  24
ATOM     21  C   UNL     1      -0.745  12.293  22.576  0.00  0.00    +0.000 A 
ATOM     22  C   UNL     1      -1.111  10.985  22.795  0.00  0.00    +0.000 A 
ATOM     23  C   UNL     1      -0.541   9.995  22.002  0.00  0.00    +0.000 A 
ATOM     24  C   UNL     1       0.384  10.321  21.000  0.00  0.00    +0.000 A 
ATOM     25  C   UNL     1       0.661  11.698  20.838  0.00  0.00    +0.000 A 
ATOM     26  N   UNL     1       0.123  12.678  21.620  0.00  0.00    +0.000 NA
BRANCH  25  27
ATOM     27  C   UNL     1       1.562  12.254  19.763  0.00  0.00    +0.000 C 
ATOM     28  O   UNL     1       1.674  11.667  18.683  0.00  0.00    +0.000 OA
ATOM     29  N   UNL     1       2.229  13.441  20.065  0.00  0.00    +0.000 N 
ATOM     30  H   UNL     1       2.177  13.742  21.034  0.00  0.00    +0.000 HD
BRANCH  29  31
ATOM     31  C   UNL     1       3.121  14.112  19.126  0.00  0.00    +0.000 C 
BRANCH  31  32
ATOM     32  C   UNL     1       3.456  15.588  19.474  0.00  0.00    +0.000 C 
ATOM     33  C   UNL     1       4.090  16.341  18.280  0.00  0.00    +0.000 C 
ATOM     34  C   UNL     1       3.098  16.665  17.159  0.00  0.00    +0.000 C 
ATOM     35  C   UNL     1       1.848  17.376  17.677  0.00  0.00    +0.000 C 
ATOM     36  C   UNL     1       1.221  16.640  18.857  0.00  0.00    +0.000 C 
ATOM     37  C   UNL     1       2.247  16.403  19.964  0.00  0.00    +0.000 C 
ENDBRANCH  31  32
ENDBRANCH  29  31
ENDBRANCH  25  27
BRANCH  21  39
ATOM     38  C   UNL     1      -2.731  13.287  23.258  0.00  0.00    +0.000 C 
ATOM     39  O   UNL     1      -1.317  13.245  23.392  0.00  0.00    +0.000 OA
ENDBRANCH  21  39
ENDBRANCH   1  24
TORSDOF 8
ENDMDL
MODEL 7
REMARK VINA RESULT:      -8.4      1.363      1.594
REMARK  Name = 
REMARK  9 active torsions:
REMARK  status: ('A' for Active; 'I' for Inactive)
REMARK    1  A    between atoms: C_1  and  O_2
REMARK    2  A    between atoms: O_2  and  C_3
REMARK    3  A    between atoms: C_6  and  N_7
REMARK    4  A    between atoms: C_8  and  C_10
REMARK    5  A    between atoms: C_13  and  C_14
REMARK    6  A    between atoms: C_14  and  N_15
REMARK    7  A    between atoms: C_26  and  C_27
REMARK    8  A    between atoms: N_29  and  C_30
REMARK    9  A    between atoms: C_30  and  C_31
REMARK                            x       y       z     vdW  Elec       q    Type
REMARK                         _______ _______ _______ _____ _____    ______ ____
ROOT
ATOM      1  N   UNL     1       2.053   8.361  19.853  0.00  0.00    +0.000 N 
ATOM      2  C   UNL     1       1.989   7.654  18.651  0.00  0.00    +0.000 C 
ATOM      3  O   UNL     1       1.065   7.710  17.847  0.00  0.00    +0.000 OA
ATOM      4  H   UNL     1       2.879   8.261  20.445  0.00  0.00    +0.000 HD
ENDROOT
BRANCH   2   5
ATOM      5  C   UNL     1       3.158   6.776  18.306  0.00  0.00    +0.000 A 
ATOM      6  C   UNL     1       4.109   7.292  17.417  0.00  0.00    +0.000 A 
ATOM      7  C   UNL     1       5.158   6.494  16.972  0.00  0.00    +0.000 A 
ATOM      8  C   UNL     1       5.310   5.176  17.430  0.00  0.00    +0.000 A 
ATOM      9  C   UNL     1       4.400   4.654  18.392  0.00  0.00    +0.000 A 
ATOM     10  C   UNL     1       4.580   3.374  18.973  0.00  0.00    +0.000 A 
ATOM     11  C   UNL     1       3.701   2.856  19.922  0.00  0.00    +0.000 A 
ATOM     12  C   UNL     1       2.587   3.587  20.286  0.00  0.00    +0.000 A 
ATOM     13  C   UNL     1       2.380   4.851  19.731  0.00  0.00    +0.000 A 
ATOM     14  C   UNL     1       3.284   5.442  18.807  0.00  0.00    +0.000 A 
BRANCH   8  15
ATOM     15  C   UNL     1       6.470   4.366  16.879  0.00  0.00    +0.000 C 
BRANCH  15  16
ATOM     16  N   UNL     1       6.694   4.537  15.451  0.00  0.00    +0.000 N 
ATOM     17  C   UNL     1       6.092   3.940  14.383  0.00  0.00    +0.000 A 
ATOM     18  C   UNL     1       6.756   4.453  13.297  0.00  0.00    +0.000 A 
ATOM     19  N   UNL     1       7.702   5.341  13.719  0.00  0.00    +0.000 NA
ATOM     20  N   UNL     1       7.655   5.390  15.043  0.00  0.00    +0.000 NA
ENDBRANCH  15  16
ENDBRANCH   8  15
ENDBRANCH   2   5
BRANCH   1  24
ATOM     21  C   UNL     1      -0.840  10.899  21.515  0.00  0.00    +0.000 A 
ATOM     22  C   UNL     1      -0.811   9.586  21.924  0.00  0.00    +0.000 A 
ATOM     23  C   UNL     1       0.135   8.736  21.361  0.00  0.00    +0.000 A 
ATOM     24  C   UNL     1       1.037   9.205  20.396  0.00  0.00    +0.000 A 
ATOM     25  C   UNL     1       0.896  10.561  20.024  0.00  0.00    +0.000 A 
ATOM     26  N   UNL     1      -0.016  11.410  20.580  0.00  0.00    +0.000 NA
BRANCH  25  27
ATOM     27  C   UNL     1       1.715  11.227  18.945  0.00  0.00    +0.000 C 
ATOM     28  O   UNL     1       2.076  10.585  17.955  0.00  0.00    +0.000 OA
ATOM     29  N   UNL     1       2.017  12.575  19.138  0.00  0.00    +0.000 N 
ATOM     30  H   UNL     1       1.799  12.948  20.058  0.00  0.00    +0.000 HD
BRANCH  29  31
ATOM     31  C   UNL     1       2.785  13.363  18.181  0.00  0.00    +0.000 C 
BRANCH  31  32
ATOM     32  C   UNL     1       3.622  14.516  18.796  0.00  0.00    +0.000 C 
ATOM     33  C   UNL     1       4.170  15.481  17.718  0.00  0.00    +0.000 C 
ATOM     34  C   UNL     1       3.099  16.380  17.093  0.00  0.00    +0.000 C 
ATOM     35  C   UNL     1       2.274  17.119  18.146  0.00  0.00    +0.000 C 
ATOM     36  C   UNL     1       1.735  16.173  19.215  0.00  0.00    +0.000 C 
ATOM     37  C   UNL     1       2.860  15.352  19.840  0.00  0.00    +0.000 C 
ENDBRANCH  31  32
ENDBRANCH  29  31
ENDBRANCH  25  27
BRANCH  21  39
ATOM     38  C   UNL     1      -1.724  13.046  21.608  0.00  0.00    +0.000 C 
ATOM     39  O   UNL     1      -1.779  11.716  22.107  0.00  0.00    +0.000 OA
ENDBRANCH  21  39
ENDBRANCH   1  24
TORSDOF 8
ENDMDL
MODEL 8
REMARK VINA RESULT:      -8.4      2.767      4.045
REMARK  Name = 
REMARK  9 active torsions:
REMARK  status: ('A' for Active; 'I' for Inactive)
REMARK    1  A    between atoms: C_1  and  O_2
REMARK    2  A    between atoms: O_2  and  C_3
REMARK    3  A    between atoms: C_6  and  N_7
REMARK    4  A    between atoms: C_8  and  C_10
REMARK    5  A    between atoms: C_13  and  C_14
REMARK    6  A    between atoms: C_14  and  N_15
REMARK    7  A    between atoms: C_26  and  C_27
REMARK    8  A    between atoms: N_29  and  C_30
REMARK    9  A    between atoms: C_30  and  C_31
REMARK                            x       y       z     vdW  Elec       q    Type
REMARK                         _______ _______ _______ _____ _____    ______ ____
ROOT
ATOM      1  N   UNL     1       0.907   8.764  20.335  0.00  0.00    +0.000 N 
ATOM      2  C   UNL     1       1.253   7.464  20.708  0.00  0.00    +0.000 C 
ATOM      3  O   UNL     1       0.925   6.919  21.757  0.00  0.00    +0.000 OA
ATOM      4  H   UNL     1       1.212   9.118  19.428  0.00  0.00    +0.000 HD
ENDROOT
BRANCH   2   5
ATOM      5  C   UNL     1       2.070   6.664  19.735  0.00  0.00    +0.000 A 
ATOM      6  C   UNL     1       2.879   7.375  18.839  0.00  0.00    +0.000 A 
ATOM      7  C   UNL     1       3.577   6.702  17.841  0.00  0.00    +0.000 A 
ATOM      8  C   UNL     1       3.521   5.304  17.735  0.00  0.00    +0.000 A 
ATOM      9  C   UNL     1       2.767   4.553  18.680  0.00  0.00    +0.000 A 
ATOM     10  C   UNL     1       2.775   3.136  18.687  0.00  0.00    +0.000 A 
ATOM     11  C   UNL     1       2.047   2.392  19.613  0.00  0.00    +0.000 A 
ATOM     12  C   UNL     1       1.253   3.044  20.534  0.00  0.00    +0.000 A 
ATOM     13  C   UNL     1       1.221   4.439  20.554  0.00  0.00    +0.000 A 
ATOM     14  C   UNL     1       1.996   5.237  19.668  0.00  0.00    +0.000 A 
BRANCH   8  15
ATOM     15  C   UNL     1       4.297   4.650  16.605  0.00  0.00    +0.000 C 
BRANCH  15  16
ATOM     16  N   UNL     1       5.733   4.573  16.831  0.00  0.00    +0.000 N 
ATOM     17  C   UNL     1       6.448   4.567  17.992  0.00  0.00    +0.000 A 
ATOM     18  C   UNL     1       7.756   4.536  17.578  0.00  0.00    +0.000 A 
ATOM     19  N   UNL     1       7.801   4.502  16.214  0.00  0.00    +0.000 NA
ATOM     20  N   UNL     1       6.555   4.520  15.763  0.00  0.00    +0.000 NA
ENDBRANCH  15  16
ENDBRANCH   8  15
ENDBRANCH   2   5
BRANCH   1  24
ATOM     21  C   UNL     1      -1.116  11.623  22.640  0.00  0.00    +0.000 A 
ATOM     22  C   UNL     1      -0.573  10.534  23.281  0.00  0.00    +0.000 A 
ATOM     23  C   UNL     1       0.083   9.573  22.517  0.00  0.00    +0.000 A 
ATOM     24  C   UNL     1       0.185   9.710  21.126  0.00  0.00    +0.000 A 
ATOM     25  C   UNL     1      -0.439  10.849  20.568  0.00  0.00    +0.000 A 
ATOM     26  N   UNL     1      -1.070  11.807  21.306  0.00  0.00    +0.000 NA
BRANCH  25  27
ATOM     27  C   UNL     1      -0.511  11.128  19.086  0.00  0.00    +0.000 C 
ATOM     28  O   UNL     1       0.511  11.077  18.396  0.00  0.00    +0.000 OA
ATOM     29  N   UNL     1      -1.772  11.430  18.572  0.00  0.00    +0.000 N 
ATOM     30  H   UNL     1      -2.501  11.593  19.260  0.00  0.00    +0.000 HD
BRANCH  29  31
ATOM     31  C   UNL     1      -2.008  11.707  17.160  0.00  0.00    +0.000 C 
BRANCH  31  32
ATOM     32  C   UNL     1      -2.994  10.737  16.453  0.00  0.00    +0.000 C 
ATOM     33  C   UNL     1      -3.515   9.635  17.408  0.00  0.00    +0.000 C 
ATOM     34  C   UNL     1      -4.515  10.145  18.450  0.00  0.00    +0.000 C 
ATOM     35  C   UNL     1      -5.661  10.934  17.818  0.00  0.00    +0.000 C 
ATOM     36  C   UNL     1      -5.153  12.019  16.873  0.00  0.00    +0.000 C 
ATOM     37  C   UNL     1      -4.211  11.435  15.822  0.00  0.00    +0.000 C 
ENDBRANCH  31  32
ENDBRANCH  29  31
ENDBRANCH  25  27
BRANCH  21  39
ATOM     38  C   UNL     1      -3.137  12.316  23.552  0.00  0.00    +0.000 C 
ATOM     39  O   UNL     1      -1.742  12.562  23.430  0.00  0.00    +0.000 OA
ENDBRANCH  21  39
ENDBRANCH   1  24
TORSDOF 8
ENDMDL
MODEL 9
REMARK VINA RESULT:      -8.3      3.274      9.959
REMARK  Name = 
REMARK  9 active torsions:
REMARK  status: ('A' for Active; 'I' for Inactive)
REMARK    1  A    between atoms: C_1  and  O_2
REMARK    2  A    between atoms: O_2  and  C_3
REMARK    3  A    between atoms: C_6  and  N_7
REMARK    4  A    between atoms: C_8  and  C_10
REMARK    5  A    between atoms: C_13  and  C_14
REMARK    6  A    between atoms: C_14  and  N_15
REMARK    7  A    between atoms: C_26  and  C_27
REMARK    8  A    between atoms: N_29  and  C_30
REMARK    9  A    between atoms: C_30  and  C_31
REMARK                            x       y       z     vdW  Elec       q    Type
REMARK                         _______ _______ _______ _____ _____    ______ ____
ROOT
ATOM      1  N   UNL     1       2.593   8.151  17.952  0.00  0.00    +0.000 N 
ATOM      2  C   UNL     1       2.033   8.290  19.223  0.00  0.00    +0.000 C 
ATOM      3  O   UNL     1       2.369   7.655  20.217  0.00  0.00    +0.000 OA
ATOM      4  H   UNL     1       2.256   8.745  17.193  0.00  0.00    +0.000 HD
ENDROOT
BRANCH   2   5
ATOM      5  C   UNL     1       0.951   9.319  19.389  0.00  0.00    +0.000 A 
ATOM      6  C   UNL     1       0.483   9.951  18.230  0.00  0.00    +0.000 A 
ATOM      7  C   UNL     1      -0.439  10.988  18.321  0.00  0.00    +0.000 A 
ATOM      8  C   UNL     1      -0.950  11.396  19.564  0.00  0.00    +0.000 A 
ATOM      9  C   UNL     1      -0.547  10.719  20.749  0.00  0.00    +0.000 A 
ATOM     10  C   UNL     1      -1.121  11.014  22.010  0.00  0.00    +0.000 A 
ATOM     11  C   UNL     1      -0.740  10.351  23.175  0.00  0.00    +0.000 A 
ATOM     12  C   UNL     1       0.261   9.403  23.121  0.00  0.00    +0.000 A 
ATOM     13  C   UNL     1       0.848   9.090  21.894  0.00  0.00    +0.000 A 
ATOM     14  C   UNL     1       0.447   9.696  20.673  0.00  0.00    +0.000 A 
BRANCH   8  15
ATOM     15  C   UNL     1      -1.937  12.549  19.577  0.00  0.00    +0.000 C 
BRANCH  15  16
ATOM     16  N   UNL     1      -3.314  12.162  19.309  0.00  0.00    +0.000 N 
ATOM     17  C   UNL     1      -3.857  11.495  18.251  0.00  0.00    +0.000 A 
ATOM     18  C   UNL     1      -5.201  11.473  18.524  0.00  0.00    +0.000 A 
ATOM     19  N   UNL     1      -5.433  12.089  19.720  0.00  0.00    +0.000 NA
ATOM     20  N   UNL     1      -4.269  12.506  20.198  0.00  0.00    +0.000 NA
ENDBRANCH  15  16
ENDBRANCH   8  15
ENDBRANCH   2   5
BRANCH   1  24
ATOM     21  C   UNL     1       5.546   5.355  16.934  0.00  0.00    +0.000 A 
ATOM     22  C   UNL     1       5.791   6.684  16.681  0.00  0.00    +0.000 A 
ATOM     23  C   UNL     1       4.806   7.613  17.000  0.00  0.00    +0.000 A 
ATOM     24  C   UNL     1       3.589   7.205  17.563  0.00  0.00    +0.000 A 
ATOM     25  C   UNL     1       3.430   5.812  17.747  0.00  0.00    +0.000 A 
ATOM     26  N   UNL     1       4.393   4.892  17.455  0.00  0.00    +0.000 NA
BRANCH  25  27
ATOM     27  C   UNL     1       2.163   5.172  18.261  0.00  0.00    +0.000 C 
ATOM     28  O   UNL     1       1.234   4.927  17.487  0.00  0.00    +0.000 OA
ATOM     29  N   UNL     1       2.124   4.881  19.624  0.00  0.00    +0.000 N 
ATOM     30  H   UNL     1       2.881   5.269  20.180  0.00  0.00    +0.000 HD
BRANCH  29  31
ATOM     31  C   UNL     1       0.979   4.248  20.269  0.00  0.00    +0.000 C 
BRANCH  31  32
ATOM     32  C   UNL     1       1.190   2.765  20.679  0.00  0.00    +0.000 C 
ATOM     33  C   UNL     1       1.076   1.803  19.472  0.00  0.00    +0.000 C 
ATOM     34  C   UNL     1       2.270   1.873  18.514  0.00  0.00    +0.000 C 
ATOM     35  C   UNL     1       3.605   1.716  19.239  0.00  0.00    +0.000 C 
ATOM     36  C   UNL     1       3.721   2.659  20.433  0.00  0.00    +0.000 C 
ATOM     37  C   UNL     1       2.533   2.495  21.378  0.00  0.00    +0.000 C 
ENDBRANCH  31  32
ENDBRANCH  29  31
ENDBRANCH  25  27
BRANCH  21  39
ATOM     38  C   UNL     1       6.650   4.238  15.221  0.00  0.00    +0.000 C 
ATOM     39  O   UNL     1       6.551   4.465  16.621  0.00  0.00    +0.000 OA
ENDBRANCH  21  39
ENDBRANCH   1  24
TORSDOF 8
ENDMDL
