MODEL 1
REMARK VINA RESULT:      -7.3      0.000      0.000
REMARK  Name = 
REMARK  6 active torsions:
REMARK  status: ('A' for Active; 'I' for Inactive)
REMARK    1  A    between atoms: C_1  and  O_2
REMARK    2  A    between atoms: O_2  and  C_3
REMARK    3  A    between atoms: C_9  and  C_10
REMARK    4  A    between atoms: C_10  and  N_11
REMARK    5  A    between atoms: C_12  and  C_14
REMARK    6  A    between atoms: C_18  and  C_19
REMARK                            x       y       z     vdW  Elec       q    Type
REMARK                         _______ _______ _______ _____ _____    ______ ____
ROOT
ATOM      1  C   UNL     1       2.254   7.397  18.444  0.00  0.00    +0.000 A 
ATOM      2  C   UNL     1       1.934   7.938  19.781  0.00  0.00    +0.000 A 
ATOM      3  C   UNL     1       1.823   7.045  20.775  0.00  0.00    +0.000 A 
ATOM      4  C   UNL     1       2.020   5.675  20.490  0.00  0.00    +0.000 A 
ATOM      5  N   UNL     1       2.005   4.594  21.237  0.00  0.00    +0.000 NA
ATOM      6  N   UNL     1       2.272   3.516  20.422  0.00  0.00    +0.000 NA
ATOM      7  C   UNL     1       2.431   3.960  19.188  0.00  0.00    +0.000 A 
ATOM      8  N   UNL     1       2.297   5.326  19.182  0.00  0.00    +0.000 N 
ATOM      9  N   UNL     1       2.434   6.161  18.112  0.00  0.00    +0.000 NA
ENDROOT
BRANCH   1  11
ATOM     10  C   UNL     1       1.707   9.640  17.959  0.00  0.00    +0.000 C 
ATOM     11  O   UNL     1       2.342   8.418  17.561  0.00  0.00    +0.000 OA
ENDBRANCH   1  11
BRANCH   7  12
ATOM     12  C   UNL     1       2.712   3.165  17.970  0.00  0.00    +0.000 C 
BRANCH  12  13
ATOM     13  N   UNL     1       3.739   3.815  17.185  0.00  0.00    +0.000 N 
ATOM     14  C   UNL     1       5.035   3.924  17.643  0.00  0.00    +0.000 C 
ATOM     15  O   UNL     1       5.362   3.451  18.729  0.00  0.00    +0.000 OA
ATOM     16  H   UNL     1       3.493   4.212  16.288  0.00  0.00    +0.000 HD
BRANCH  14  17
ATOM     17  C   UNL     1       5.966   4.612  16.773  0.00  0.00    +0.000 A 
ATOM     18  S   UNL     1       6.105   4.275  15.098  0.00  0.00    +0.000 S 
ATOM     19  N   UNL     1       7.307   5.402  14.857  0.00  0.00    +0.000 NA
ATOM     20  N   UNL     1       7.631   6.046  15.962  0.00  0.00    +0.000 NA
ATOM     21  C   UNL     1       6.884   5.617  17.057  0.00  0.00    +0.000 A 
ATOM     22  C   UNL     1       7.155   6.263  18.368  0.00  0.00    +0.000 C 
ENDBRANCH  14  17
ENDBRANCH  12  13
ENDBRANCH   7  12
TORSDOF 4
ENDMDL
MODEL 2
REMARK VINA RESULT:      -7.3      0.977      1.376
REMARK  Name = 
REMARK  6 active torsions:
REMARK  status: ('A' for Active; 'I' for Inactive)
REMARK    1  A    between atoms: C_1  and  O_2
REMARK    2  A    between atoms: O_2  and  C_3
REMARK    3  A    between atoms: C_9  and  C_10
REMARK    4  A    between atoms: C_10  and  N_11
REMARK    5  A    between atoms: C_12  and  C_14
REMARK    6  A    between atoms: C_18  and  C_19
REMARK                            x       y       z     vdW  Elec       q    Type
REMARK                         _______ _______ _______ _____ _____    ______ ____
ROOT
ATOM      1  C   UNL     1       2.394   7.436  18.593  0.00  0.00    +0.000 A 
ATOM      2  C   UNL     1       1.858   7.913  19.884  0.00  0.00    +0.000 A 
ATOM      3  C   UNL     1       1.578   6.973  20.798  0.00  0.00    +0.000 A 
ATOM      4  C   UNL     1       1.813   5.617  20.479  0.00  0.00    +0.000 A 
ATOM      5  N   UNL     1       1.668   4.500  21.157  0.00  0.00    +0.000 NA
ATOM      6  N   UNL     1       2.062   3.460  20.343  0.00  0.00    +0.000 NA
ATOM      7  C   UNL     1       2.428   3.963  19.178  0.00  0.00    +0.000 A 
ATOM      8  N   UNL     1       2.304   5.329  19.220  0.00  0.00    +0.000 N 
ATOM      9  N   UNL     1       2.621   6.215  18.233  0.00  0.00    +0.000 NA
ENDROOT
BRANCH   1  11
ATOM     10  C   UNL     1       1.757   9.618  17.966  0.00  0.00    +0.000 C 
ATOM     11  O   UNL     1       2.634   8.498  17.791  0.00  0.00    +0.000 OA
ENDBRANCH   1  11
BRANCH   7  12
ATOM     12  C   UNL     1       2.904   3.227  17.984  0.00  0.00    +0.000 C 
BRANCH  12  13
ATOM     13  N   UNL     1       3.950   3.981  17.327  0.00  0.00    +0.000 N 
ATOM     14  C   UNL     1       5.196   4.133  17.897  0.00  0.00    +0.000 C 
ATOM     15  O   UNL     1       5.463   3.612  18.976  0.00  0.00    +0.000 OA
ATOM     16  H   UNL     1       3.752   4.419  16.436  0.00  0.00    +0.000 HD
BRANCH  14  17
ATOM     17  C   UNL     1       6.150   4.924  17.148  0.00  0.00    +0.000 A 
ATOM     18  S   UNL     1       7.020   6.233  17.832  0.00  0.00    +0.000 S 
ATOM     19  N   UNL     1       7.827   6.580  16.417  0.00  0.00    +0.000 NA
ATOM     20  N   UNL     1       7.498   5.769  15.429  0.00  0.00    +0.000 NA
ATOM     21  C   UNL     1       6.554   4.823  15.821  0.00  0.00    +0.000 A 
ATOM     22  C   UNL     1       6.095   3.848  14.799  0.00  0.00    +0.000 C 
ENDBRANCH  14  17
ENDBRANCH  12  13
ENDBRANCH   7  12
TORSDOF 4
ENDMDL
MODEL 3
REMARK VINA RESULT:      -7.1      1.445      1.785
REMARK  Name = 
REMARK  6 active torsions:
REMARK  status: ('A' for Active; 'I' for Inactive)
REMARK    1  A    between atoms: C_1  and  O_2
REMARK    2  A    between atoms: O_2  and  C_3
REMARK    3  A    between atoms: C_9  and  C_10
REMARK    4  A    between atoms: C_10  and  N_11
REMARK    5  A    between atoms: C_12  and  C_14
REMARK    6  A    between atoms: C_18  and  C_19
REMARK                            x       y       z     vdW  Elec       q    Type
REMARK                         _______ _______ _______ _____ _____    ______ ____
ROOT
ATOM      1  C   UNL     1       2.595   6.639  18.877  0.00  0.00    +0.000 A 
ATOM      2  C   UNL     1       1.848   7.120  20.057  0.00  0.00    +0.000 A 
ATOM      3  C   UNL     1       1.634   6.226  21.033  0.00  0.00    +0.000 A 
ATOM      4  C   UNL     1       2.129   4.912  20.878  0.00  0.00    +0.000 A 
ATOM      5  N   UNL     1       2.103   3.848  21.651  0.00  0.00    +0.000 NA
ATOM      6  N   UNL     1       2.754   2.831  20.988  0.00  0.00    +0.000 NA
ATOM      7  C   UNL     1       3.154   3.291  19.816  0.00  0.00    +0.000 A 
ATOM      8  N   UNL     1       2.796   4.611  19.706  0.00  0.00    +0.000 N 
ATOM      9  N   UNL     1       3.064   5.453  18.667  0.00  0.00    +0.000 NA
ENDROOT
BRANCH   1  11
ATOM     10  C   UNL     1       1.928   8.811  18.247  0.00  0.00    +0.000 C 
ATOM     11  O   UNL     1       2.737   7.655  17.996  0.00  0.00    +0.000 OA
ENDBRANCH   1  11
BRANCH   7  12
ATOM     12  C   UNL     1       3.876   2.553  18.753  0.00  0.00    +0.000 C 
BRANCH  12  13
ATOM     13  N   UNL     1       4.893   3.402  18.171  0.00  0.00    +0.000 N 
ATOM     14  C   UNL     1       4.801   3.849  16.870  0.00  0.00    +0.000 C 
ATOM     15  O   UNL     1       3.836   3.555  16.170  0.00  0.00    +0.000 OA
ATOM     16  H   UNL     1       5.697   3.657  18.730  0.00  0.00    +0.000 HD
BRANCH  14  17
ATOM     17  C   UNL     1       5.891   4.677  16.399  0.00  0.00    +0.000 A 
ATOM     18  S   UNL     1       6.631   5.887  17.362  0.00  0.00    +0.000 S 
ATOM     19  N   UNL     1       7.699   6.341  16.168  0.00  0.00    +0.000 NA
ATOM     20  N   UNL     1       7.556   5.638  15.061  0.00  0.00    +0.000 NA
ATOM     21  C   UNL     1       6.542   4.690  15.170  0.00  0.00    +0.000 A 
ATOM     22  C   UNL     1       6.275   3.831  13.987  0.00  0.00    +0.000 C 
ENDBRANCH  14  17
ENDBRANCH  12  13
ENDBRANCH   7  12
TORSDOF 4
ENDMDL
MODEL 4
REMARK VINA RESULT:      -7.1      2.519      3.593
REMARK  Name = 
REMARK  6 active torsions:
REMARK  status: ('A' for Active; 'I' for Inactive)
REMARK    1  A    between atoms: C_1  and  O_2
REMARK    2  A    between atoms: O_2  and  C_3
REMARK    3  A    between atoms: C_9  and  C_10
REMARK    4  A    between atoms: C_10  and  N_11
REMARK    5  A    between atoms: C_12  and  C_14
REMARK    6  A    between atoms: C_18  and  C_19
REMARK                            x       y       z     vdW  Elec       q    Type
REMARK                         _______ _______ _______ _____ _____    ______ ____
ROOT
ATOM      1  C   UNL     1       0.307   9.183  21.285  0.00  0.00    +0.000 A 
ATOM      2  C   UNL     1      -0.125  10.450  20.662  0.00  0.00    +0.000 A 
ATOM      3  C   UNL     1       0.331  10.693  19.425  0.00  0.00    +0.000 A 
ATOM      4  C   UNL     1       1.173   9.742  18.806  0.00  0.00    +0.000 A 
ATOM      5  N   UNL     1       1.742   9.685  17.623  0.00  0.00    +0.000 NA
ATOM      6  N   UNL     1       2.457   8.509  17.556  0.00  0.00    +0.000 NA
ATOM      7  C   UNL     1       2.320   7.876  18.707  0.00  0.00    +0.000 A 
ATOM      8  N   UNL     1       1.501   8.610  19.528  0.00  0.00    +0.000 N 
ATOM      9  N   UNL     1       1.082   8.278  20.783  0.00  0.00    +0.000 NA
ENDROOT
BRANCH   1  11
ATOM     10  C   UNL     1      -0.782  10.296  23.056  0.00  0.00    +0.000 C 
ATOM     11  O   UNL     1      -0.243   9.082  22.516  0.00  0.00    +0.000 OA
ENDBRANCH   1  11
BRANCH   7  12
ATOM     12  C   UNL     1       2.925   6.584  19.106  0.00  0.00    +0.000 C 
BRANCH  12  13
ATOM     13  N   UNL     1       4.000   6.244  18.200  0.00  0.00    +0.000 N 
ATOM     14  C   UNL     1       4.551   4.980  18.177  0.00  0.00    +0.000 C 
ATOM     15  O   UNL     1       4.128   4.095  18.916  0.00  0.00    +0.000 OA
ATOM     16  H   UNL     1       4.364   6.957  17.581  0.00  0.00    +0.000 HD
BRANCH  14  17
ATOM     17  C   UNL     1       5.632   4.771  17.237  0.00  0.00    +0.000 A 
ATOM     18  S   UNL     1       5.384   4.214  15.635  0.00  0.00    +0.000 S 
ATOM     19  N   UNL     1       7.007   4.234  15.259  0.00  0.00    +0.000 NA
ATOM     20  N   UNL     1       7.759   4.642  16.263  0.00  0.00    +0.000 NA
ATOM     21  C   UNL     1       7.002   4.954  17.391  0.00  0.00    +0.000 A 
ATOM     22  C   UNL     1       7.731   5.425  18.597  0.00  0.00    +0.000 C 
ENDBRANCH  14  17
ENDBRANCH  12  13
ENDBRANCH   7  12
TORSDOF 4
ENDMDL
MODEL 5
REMARK VINA RESULT:      -7.0      3.467      6.775
REMARK  Name = 
REMARK  6 active torsions:
REMARK  status: ('A' for Active; 'I' for Inactive)
REMARK    1  A    between atoms: C_1  and  O_2
REMARK    2  A    between atoms: O_2  and  C_3
REMARK    3  A    between atoms: C_9  and  C_10
REMARK    4  A    between atoms: C_10  and  N_11
REMARK    5  A    between atoms: C_12  and  C_14
REMARK    6  A    between atoms: C_18  and  C_19
REMARK                            x       y       z     vdW  Elec       q    Type
REMARK                         _______ _______ _______ _____ _____    ______ ____
ROOT
ATOM      1  C   UNL     1       5.943   3.525  12.595  0.00  0.00    +0.000 A 
ATOM      2  C   UNL     1       7.103   4.308  12.123  0.00  0.00    +0.000 A 
ATOM      3  C   UNL     1       7.705   5.089  13.031  0.00  0.00    +0.000 A 
ATOM      4  C   UNL     1       7.207   5.111  14.353  0.00  0.00    +0.000 A 
ATOM      5  N   UNL     1       7.589   5.737  15.444  0.00  0.00    +0.000 NA
ATOM      6  N   UNL     1       6.731   5.376  16.459  0.00  0.00    +0.000 NA
ATOM      7  C   UNL     1       5.832   4.545  15.964  0.00  0.00    +0.000 A 
ATOM      8  N   UNL     1       6.101   4.332  14.635  0.00  0.00    +0.000 N 
ATOM      9  N   UNL     1       5.431   3.506  13.781  0.00  0.00    +0.000 NA
ENDROOT
BRANCH   1  11
ATOM     10  C   UNL     1       4.108   3.068  11.186  0.00  0.00    +0.000 C 
ATOM     11  O   UNL     1       5.459   2.785  11.570  0.00  0.00    +0.000 OA
ENDBRANCH   1  11
BRANCH   7  12
ATOM     12  C   UNL     1       4.697   3.912  16.674  0.00  0.00    +0.000 C 
BRANCH  12  13
ATOM     13  N   UNL     1       4.165   4.826  17.662  0.00  0.00    +0.000 N 
ATOM     14  C   UNL     1       2.819   4.861  17.962  0.00  0.00    +0.000 C 
ATOM     15  O   UNL     1       2.031   4.098  17.410  0.00  0.00    +0.000 OA
ATOM     16  H   UNL     1       4.795   5.464  18.130  0.00  0.00    +0.000 HD
BRANCH  14  17
ATOM     17  C   UNL     1       2.409   5.831  18.955  0.00  0.00    +0.000 A 
ATOM     18  S   UNL     1       1.838   5.394  20.511  0.00  0.00    +0.000 S 
ATOM     19  N   UNL     1       1.593   6.971  20.986  0.00  0.00    +0.000 NA
ATOM     20  N   UNL     1       1.917   7.843  20.050  0.00  0.00    +0.000 NA
ATOM     21  C   UNL     1       2.384   7.221  18.895  0.00  0.00    +0.000 A 
ATOM     22  C   UNL     1       2.782   8.093  17.759  0.00  0.00    +0.000 C 
ENDBRANCH  14  17
ENDBRANCH  12  13
ENDBRANCH   7  12
TORSDOF 4
ENDMDL
MODEL 6
REMARK VINA RESULT:      -6.9      2.652      4.340
REMARK  Name = 
REMARK  6 active torsions:
REMARK  status: ('A' for Active; 'I' for Inactive)
REMARK    1  A    between atoms: C_1  and  O_2
REMARK    2  A    between atoms: O_2  and  C_3
REMARK    3  A    between atoms: C_9  and  C_10
REMARK    4  A    between atoms: C_10  and  N_11
REMARK    5  A    between atoms: C_12  and  C_14
REMARK    6  A    between atoms: C_18  and  C_19
REMARK                            x       y       z     vdW  Elec       q    Type
REMARK                         _______ _______ _______ _____ _____    ______ ____
ROOT
ATOM      1  C   UNL     1       3.225   3.283  17.703  0.00  0.00    +0.000 A 
ATOM      2  C   UNL     1       1.868   3.510  18.240  0.00  0.00    +0.000 A 
ATOM      3  C   UNL     1       1.519   4.785  18.463  0.00  0.00    +0.000 A 
ATOM      4  C   UNL     1       2.449   5.809  18.174  0.00  0.00    +0.000 A 
ATOM      5  N   UNL     1       2.392   7.120  18.258  0.00  0.00    +0.000 NA
ATOM      6  N   UNL     1       3.602   7.621  17.831  0.00  0.00    +0.000 NA
ATOM      7  C   UNL     1       4.380   6.604  17.507  0.00  0.00    +0.000 A 
ATOM      8  N   UNL     1       3.688   5.434  17.691  0.00  0.00    +0.000 N 
ATOM      9  N   UNL     1       4.125   4.169  17.429  0.00  0.00    +0.000 NA
ENDROOT
BRANCH   1  11
ATOM     10  C   UNL     1       3.849   1.230  18.681  0.00  0.00    +0.000 C 
ATOM     11  O   UNL     1       3.417   1.956  17.524  0.00  0.00    +0.000 OA
ENDBRANCH   1  11
BRANCH   7  12
ATOM     12  C   UNL     1       5.777   6.654  17.018  0.00  0.00    +0.000 C 
BRANCH  12  13
ATOM     13  N   UNL     1       5.856   6.066  15.698  0.00  0.00    +0.000 N 
ATOM     14  C   UNL     1       6.836   5.152  15.374  0.00  0.00    +0.000 C 
ATOM     15  O   UNL     1       7.664   4.793  16.207  0.00  0.00    +0.000 OA
ATOM     16  H   UNL     1       5.185   6.347  14.995  0.00  0.00    +0.000 HD
BRANCH  14  17
ATOM     17  C   UNL     1       6.819   4.650  14.016  0.00  0.00    +0.000 A 
ATOM     18  S   UNL     1       5.700   3.473  13.468  0.00  0.00    +0.000 S 
ATOM     19  N   UNL     1       6.316   3.446  11.921  0.00  0.00    +0.000 NA
ATOM     20  N   UNL     1       7.328   4.278  11.760  0.00  0.00    +0.000 NA
ATOM     21  C   UNL     1       7.628   4.971  12.930  0.00  0.00    +0.000 A 
ATOM     22  C   UNL     1       8.752   5.941  12.885  0.00  0.00    +0.000 C 
ENDBRANCH  14  17
ENDBRANCH  12  13
ENDBRANCH   7  12
TORSDOF 4
ENDMDL
MODEL 7
REMARK VINA RESULT:      -6.9      2.437      3.079
REMARK  Name = 
REMARK  6 active torsions:
REMARK  status: ('A' for Active; 'I' for Inactive)
REMARK    1  A    between atoms: C_1  and  O_2
REMARK    2  A    between atoms: O_2  and  C_3
REMARK    3  A    between atoms: C_9  and  C_10
REMARK    4  A    between atoms: C_10  and  N_11
REMARK    5  A    between atoms: C_12  and  C_14
REMARK    6  A    between atoms: C_18  and  C_19
REMARK                            x       y       z     vdW  Elec       q    Type
REMARK                         _______ _______ _______ _____ _____    ______ ____
ROOT
ATOM      1  C   UNL     1       3.406   7.039  17.883  0.00  0.00    +0.000 A 
ATOM      2  C   UNL     1       2.194   6.621  18.617  0.00  0.00    +0.000 A 
ATOM      3  C   UNL     1       2.277   5.470  19.300  0.00  0.00    +0.000 A 
ATOM      4  C   UNL     1       3.491   4.747  19.278  0.00  0.00    +0.000 A 
ATOM      5  N   UNL     1       3.879   3.631  19.854  0.00  0.00    +0.000 NA
ATOM      6  N   UNL     1       5.186   3.399  19.483  0.00  0.00    +0.000 NA
ATOM      7  C   UNL     1       5.566   4.373  18.677  0.00  0.00    +0.000 A 
ATOM      8  N   UNL     1       4.532   5.263  18.529  0.00  0.00    +0.000 N 
ATOM      9  N   UNL     1       4.540   6.423  17.812  0.00  0.00    +0.000 NA
ENDROOT
BRANCH   1  11
ATOM     10  C   UNL     1       2.074   8.983  17.786  0.00  0.00    +0.000 C 
ATOM     11  O   UNL     1       3.165   8.216  17.261  0.00  0.00    +0.000 OA
ENDBRANCH   1  11
BRANCH   7  12
ATOM     12  C   UNL     1       6.880   4.536  18.012  0.00  0.00    +0.000 C 
BRANCH  12  13
ATOM     13  N   UNL     1       6.763   4.207  16.608  0.00  0.00    +0.000 N 
ATOM     14  C   UNL     1       7.057   5.128  15.624  0.00  0.00    +0.000 C 
ATOM     15  O   UNL     1       7.448   6.255  15.913  0.00  0.00    +0.000 OA
ATOM     16  H   UNL     1       6.443   3.284  16.346  0.00  0.00    +0.000 HD
BRANCH  14  17
ATOM     17  C   UNL     1       6.884   4.682  14.258  0.00  0.00    +0.000 A 
ATOM     18  S   UNL     1       5.618   3.634  13.768  0.00  0.00    +0.000 S 
ATOM     19  N   UNL     1       6.104   3.611  12.175  0.00  0.00    +0.000 NA
ATOM     20  N   UNL     1       7.173   4.353  11.957  0.00  0.00    +0.000 NA
ATOM     21  C   UNL     1       7.629   4.969  13.119  0.00  0.00    +0.000 A 
ATOM     22  C   UNL     1       8.833   5.834  13.010  0.00  0.00    +0.000 C 
ENDBRANCH  14  17
ENDBRANCH  12  13
ENDBRANCH   7  12
TORSDOF 4
ENDMDL
MODEL 8
REMARK VINA RESULT:      -6.8      3.430      6.999
REMARK  Name = 
REMARK  6 active torsions:
REMARK  status: ('A' for Active; 'I' for Inactive)
REMARK    1  A    between atoms: C_1  and  O_2
REMARK    2  A    between atoms: O_2  and  C_3
REMARK    3  A    between atoms: C_9  and  C_10
REMARK    4  A    between atoms: C_10  and  N_11
REMARK    5  A    between atoms: C_12  and  C_14
REMARK    6  A    between atoms: C_18  and  C_19
REMARK                            x       y       z     vdW  Elec       q    Type
REMARK                         _______ _______ _______ _____ _____    ______ ____
ROOT
ATOM      1  C   UNL     1       5.812   3.268  12.467  0.00  0.00    +0.000 A 
ATOM      2  C   UNL     1       6.886   4.140  11.949  0.00  0.00    +0.000 A 
ATOM      3  C   UNL     1       7.494   4.934  12.842  0.00  0.00    +0.000 A 
ATOM      4  C   UNL     1       7.081   4.886  14.193  0.00  0.00    +0.000 A 
ATOM      5  N   UNL     1       7.491   5.506  15.277  0.00  0.00    +0.000 NA
ATOM      6  N   UNL     1       6.725   5.060  16.332  0.00  0.00    +0.000 NA
ATOM      7  C   UNL     1       5.852   4.185  15.867  0.00  0.00    +0.000 A 
ATOM      8  N   UNL     1       6.048   4.027  14.518  0.00  0.00    +0.000 N 
ATOM      9  N   UNL     1       5.380   3.183  13.682  0.00  0.00    +0.000 NA
ENDROOT
BRANCH   1  11
ATOM     10  C   UNL     1       6.087   1.378  11.084  0.00  0.00    +0.000 C 
ATOM     11  O   UNL     1       5.313   2.527  11.452  0.00  0.00    +0.000 OA
ENDBRANCH   1  11
BRANCH   7  12
ATOM     12  C   UNL     1       4.808   3.458  16.627  0.00  0.00    +0.000 C 
BRANCH  12  13
ATOM     13  N   UNL     1       4.227   4.333  17.623  0.00  0.00    +0.000 N 
ATOM     14  C   UNL     1       2.869   4.357  17.857  0.00  0.00    +0.000 C 
ATOM     15  O   UNL     1       2.109   3.618  17.236  0.00  0.00    +0.000 OA
ATOM     16  H   UNL     1       4.834   4.951  18.147  0.00  0.00    +0.000 HD
BRANCH  14  17
ATOM     17  C   UNL     1       2.409   5.287  18.866  0.00  0.00    +0.000 A 
ATOM     18  S   UNL     1       2.620   6.984  18.741  0.00  0.00    +0.000 S 
ATOM     19  N   UNL     1       1.878   7.296  20.199  0.00  0.00    +0.000 NA
ATOM     20  N   UNL     1       1.461   6.200  20.804  0.00  0.00    +0.000 NA
ATOM     21  C   UNL     1       1.748   5.053  20.068  0.00  0.00    +0.000 A 
ATOM     22  C   UNL     1       1.331   3.747  20.641  0.00  0.00    +0.000 C 
ENDBRANCH  14  17
ENDBRANCH  12  13
ENDBRANCH   7  12
TORSDOF 4
ENDMDL
MODEL 9
REMARK VINA RESULT:      -6.8      2.767      3.859
REMARK  Name = 
REMARK  6 active torsions:
REMARK  status: ('A' for Active; 'I' for Inactive)
REMARK    1  A    between atoms: C_1  and  O_2
REMARK    2  A    between atoms: O_2  and  C_3
REMARK    3  A    between atoms: C_9  and  C_10
REMARK    4  A    between atoms: C_10  and  N_11
REMARK    5  A    between atoms: C_12  and  C_14
REMARK    6  A    between atoms: C_18  and  C_19
REMARK                            x       y       z     vdW  Elec       q    Type
REMARK                         _______ _______ _______ _____ _____    ______ ____
ROOT
ATOM      1  C   UNL     1       0.830   9.659  21.382  0.00  0.00    +0.000 A 
ATOM      2  C   UNL     1       0.619  10.921  20.644  0.00  0.00    +0.000 A 
ATOM      3  C   UNL     1       0.981  10.925  19.353  0.00  0.00    +0.000 A 
ATOM      4  C   UNL     1       1.525   9.748  18.791  0.00  0.00    +0.000 A 
ATOM      5  N   UNL     1       1.938   9.441  17.581  0.00  0.00    +0.000 NA
ATOM      6  N   UNL     1       2.368   8.132  17.603  0.00  0.00    +0.000 NA
ATOM      7  C   UNL     1       2.222   7.669  18.831  0.00  0.00    +0.000 A 
ATOM      8  N   UNL     1       1.675   8.651  19.619  0.00  0.00    +0.000 N 
ATOM      9  N   UNL     1       1.331   8.554  20.935  0.00  0.00    +0.000 NA
ENDROOT
BRANCH   1  11
ATOM     10  C   UNL     1      -0.667  10.745  22.845  0.00  0.00    +0.000 C 
ATOM     11  O   UNL     1       0.406   9.814  22.658  0.00  0.00    +0.000 OA
ENDBRANCH   1  11
BRANCH   7  12
ATOM     12  C   UNL     1       2.570   6.321  19.337  0.00  0.00    +0.000 C 
BRANCH  12  13
ATOM     13  N   UNL     1       3.942   6.009  18.999  0.00  0.00    +0.000 N 
ATOM     14  C   UNL     1       4.251   5.129  17.984  0.00  0.00    +0.000 C 
ATOM     15  O   UNL     1       3.366   4.596  17.319  0.00  0.00    +0.000 OA
ATOM     16  H   UNL     1       4.688   6.436  19.532  0.00  0.00    +0.000 HD
BRANCH  14  17
ATOM     17  C   UNL     1       5.660   4.887  17.754  0.00  0.00    +0.000 A 
ATOM     18  S   UNL     1       6.856   5.108  18.962  0.00  0.00    +0.000 S 
ATOM     19  N   UNL     1       8.109   4.658  17.960  0.00  0.00    +0.000 NA
ATOM     20  N   UNL     1       7.702   4.336  16.747  0.00  0.00    +0.000 NA
ATOM     21  C   UNL     1       6.321   4.456  16.608  0.00  0.00    +0.000 A 
ATOM     22  C   UNL     1       5.733   4.124  15.285  0.00  0.00    +0.000 C 
ENDBRANCH  14  17
ENDBRANCH  12  13
ENDBRANCH   7  12
TORSDOF 4
ENDMDL
