MODEL 1
REMARK VINA RESULT:      -8.3      0.000      0.000
REMARK  Name = 
REMARK  9 active torsions:
REMARK  status: ('A' for Active; 'I' for Inactive)
REMARK    1  A    between atoms: C_1  and  O_2
REMARK    2  A    between atoms: O_2  and  C_3
REMARK    3  A    between atoms: C_3  and  C_4
REMARK    4  A    between atoms: N_7  and  S_8
REMARK    5  A    between atoms: S_8  and  C_11
REMARK    6  A    between atoms: C_11  and  C_12
REMARK    7  A    between atoms: C_15  and  N_16
REMARK    8  A    between atoms: N_16  and  C_17
REMARK    9  A    between atoms: N_16  and  C_18
REMARK                            x       y       z     vdW  Elec       q    Type
REMARK                         _______ _______ _______ _____ _____    ______ ____
ROOT
ATOM      1  C   UNL     1       1.954   7.850  20.078  0.00  0.00    +0.000 C 
ATOM      2  C   UNL     1       1.442   6.519  20.652  0.00  0.00    +0.000 C 
ATOM      3  C   UNL     1       2.485   5.421  20.479  0.00  0.00    +0.000 C 
ATOM      4  C   UNL     1       2.898   5.219  19.010  0.00  0.00    +0.000 C 
ATOM      5  C   UNL     1       3.328   6.556  18.381  0.00  0.00    +0.000 C 
ATOM      6  C   UNL     1       2.269   7.646  18.583  0.00  0.00    +0.000 C 
ENDROOT
BRANCH   4   7
ATOM      7  N   UNL     1       3.939   4.186  18.901  0.00  0.00    +0.000 N 
ATOM      8  C   UNL     1       3.666   2.803  19.259  0.00  0.00    +0.000 C 
BRANCH   7   9
ATOM      9  C   UNL     1       5.223   4.582  18.570  0.00  0.00    +0.000 A 
ATOM     10  N   UNL     1       6.009   5.138  19.538  0.00  0.00    +0.000 NA
ATOM     11  C   UNL     1       7.274   5.499  19.251  0.00  0.00    +0.000 A 
ATOM     12  N   UNL     1       7.905   5.424  18.073  0.00  0.00    +0.000 NA
ATOM     13  C   UNL     1       7.099   4.921  17.128  0.00  0.00    +0.000 A 
ATOM     14  N   UNL     1       7.460   4.759  15.818  0.00  0.00    +0.000 N 
ATOM     15  C   UNL     1       6.413   4.245  15.102  0.00  0.00    +0.000 A 
ATOM     16  C   UNL     1       5.356   4.080  15.978  0.00  0.00    +0.000 A 
ATOM     17  C   UNL     1       5.789   4.488  17.278  0.00  0.00    +0.000 A 
ATOM     18  H   UNL     1       8.367   5.004  15.457  0.00  0.00    +0.000 HD
ENDBRANCH   7   9
ENDBRANCH   4   7
BRANCH   1  19
ATOM     19  C   UNL     1       0.970   9.018  20.276  0.00  0.00    +0.000 C 
BRANCH  19  20
ATOM     20  S   UNL     1       0.650   9.403  22.016  0.00  0.00    +0.000 S 
ATOM     21  O   UNL     1       1.897   9.310  22.745  0.00  0.00    +0.000 OA
ATOM     22  O   UNL     1      -0.527   8.685  22.463  0.00  0.00    +0.000 OA
BRANCH  20  26
ATOM     23  C   UNL     1      -1.685  13.283  21.345  0.00  0.00    +0.000 C 
ATOM     24  C   UNL     1      -0.388  13.048  20.574  0.00  0.00    +0.000 C 
ATOM     25  C   UNL     1       0.013  11.580  20.582  0.00  0.00    +0.000 C 
ATOM     26  N   UNL     1       0.198  11.076  21.973  0.00  0.00    +0.000 NA
ATOM     27  C   UNL     1      -0.999  11.338  22.853  0.00  0.00    +0.000 C 
ATOM     28  C   UNL     1      -1.476  12.791  22.782  0.00  0.00    +0.000 C 
BRANCH  23  29
ATOM     29  C   UNL     1      -2.902  12.629  20.668  0.00  0.00    +0.000 C 
BRANCH  29  31
ATOM     30  C   UNL     1      -3.371  11.621  18.586  0.00  0.00    +0.000 C 
ATOM     31  O   UNL     1      -2.741  12.710  19.252  0.00  0.00    +0.000 OA
ENDBRANCH  29  31
ENDBRANCH  23  29
ENDBRANCH  20  26
ENDBRANCH  19  20
ENDBRANCH   1  19
TORSDOF 7
ENDMDL
MODEL 2
REMARK VINA RESULT:      -7.8      3.473      9.710
REMARK  Name = 
REMARK  9 active torsions:
REMARK  status: ('A' for Active; 'I' for Inactive)
REMARK    1  A    between atoms: C_1  and  O_2
REMARK    2  A    between atoms: O_2  and  C_3
REMARK    3  A    between atoms: C_3  and  C_4
REMARK    4  A    between atoms: N_7  and  S_8
REMARK    5  A    between atoms: S_8  and  C_11
REMARK    6  A    between atoms: C_11  and  C_12
REMARK    7  A    between atoms: C_15  and  N_16
REMARK    8  A    between atoms: N_16  and  C_17
REMARK    9  A    between atoms: N_16  and  C_18
REMARK                            x       y       z     vdW  Elec       q    Type
REMARK                         _______ _______ _______ _____ _____    ______ ____
ROOT
ATOM      1  C   UNL     1       2.544   6.848  19.499  0.00  0.00    +0.000 C 
ATOM      2  C   UNL     1       2.042   7.266  18.107  0.00  0.00    +0.000 C 
ATOM      3  C   UNL     1       1.889   8.780  18.020  0.00  0.00    +0.000 C 
ATOM      4  C   UNL     1       0.943   9.344  19.095  0.00  0.00    +0.000 C 
ATOM      5  C   UNL     1       1.368   8.866  20.495  0.00  0.00    +0.000 C 
ATOM      6  C   UNL     1       1.530   7.342  20.549  0.00  0.00    +0.000 C 
ENDROOT
BRANCH   4   7
ATOM      7  N   UNL     1       0.867  10.811  19.002  0.00  0.00    +0.000 N 
ATOM      8  C   UNL     1       2.016  11.598  18.586  0.00  0.00    +0.000 C 
BRANCH   7   9
ATOM      9  C   UNL     1      -0.287  11.435  19.442  0.00  0.00    +0.000 A 
ATOM     10  N   UNL     1      -0.275  12.057  20.658  0.00  0.00    +0.000 NA
ATOM     11  C   UNL     1      -1.373  12.703  21.094  0.00  0.00    +0.000 A 
ATOM     12  N   UNL     1      -2.564  12.802  20.491  0.00  0.00    +0.000 NA
ATOM     13  C   UNL     1      -2.567  12.145  19.323  0.00  0.00    +0.000 A 
ATOM     14  N   UNL     1      -3.656  12.043  18.502  0.00  0.00    +0.000 N 
ATOM     15  C   UNL     1      -3.347  11.292  17.401  0.00  0.00    +0.000 A 
ATOM     16  C   UNL     1      -2.027  10.901  17.527  0.00  0.00    +0.000 A 
ATOM     17  C   UNL     1      -1.512  11.457  18.739  0.00  0.00    +0.000 A 
ATOM     18  H   UNL     1      -4.549  12.460  18.710  0.00  0.00    +0.000 HD
ENDBRANCH   7   9
ENDBRANCH   4   7
BRANCH   1  19
ATOM     19  C   UNL     1       2.778   5.333  19.633  0.00  0.00    +0.000 C 
BRANCH  19  20
ATOM     20  S   UNL     1       4.451   4.819  19.170  0.00  0.00    +0.000 S 
ATOM     21  O   UNL     1       4.586   3.402  19.431  0.00  0.00    +0.000 OA
ATOM     22  O   UNL     1       5.413   5.766  19.697  0.00  0.00    +0.000 OA
BRANCH  20  26
ATOM     23  C   UNL     1       5.843   5.168  14.822  0.00  0.00    +0.000 C 
ATOM     24  C   UNL     1       5.250   6.392  15.519  0.00  0.00    +0.000 C 
ATOM     25  C   UNL     1       5.249   6.232  17.032  0.00  0.00    +0.000 C 
ATOM     26  N   UNL     1       4.467   5.033  17.450  0.00  0.00    +0.000 NA
ATOM     27  C   UNL     1       4.912   3.773  16.750  0.00  0.00    +0.000 C 
ATOM     28  C   UNL     1       5.013   3.945  15.232  0.00  0.00    +0.000 C 
BRANCH  23  29
ATOM     29  C   UNL     1       7.342   4.990  15.113  0.00  0.00    +0.000 C 
BRANCH  29  31
ATOM     30  C   UNL     1       7.695   5.106  12.783  0.00  0.00    +0.000 C 
ATOM     31  O   UNL     1       8.092   5.594  14.059  0.00  0.00    +0.000 OA
ENDBRANCH  29  31
ENDBRANCH  23  29
ENDBRANCH  20  26
ENDBRANCH  19  20
ENDBRANCH   1  19
TORSDOF 7
ENDMDL
MODEL 3
REMARK VINA RESULT:      -7.8      1.064      1.642
REMARK  Name = 
REMARK  9 active torsions:
REMARK  status: ('A' for Active; 'I' for Inactive)
REMARK    1  A    between atoms: C_1  and  O_2
REMARK    2  A    between atoms: O_2  and  C_3
REMARK    3  A    between atoms: C_3  and  C_4
REMARK    4  A    between atoms: N_7  and  S_8
REMARK    5  A    between atoms: S_8  and  C_11
REMARK    6  A    between atoms: C_11  and  C_12
REMARK    7  A    between atoms: C_15  and  N_16
REMARK    8  A    between atoms: N_16  and  C_17
REMARK    9  A    between atoms: N_16  and  C_18
REMARK                            x       y       z     vdW  Elec       q    Type
REMARK                         _______ _______ _______ _____ _____    ______ ____
ROOT
ATOM      1  C   UNL     1       1.971   7.878  19.804  0.00  0.00    +0.000 C 
ATOM      2  C   UNL     1       1.519   6.602  20.532  0.00  0.00    +0.000 C 
ATOM      3  C   UNL     1       2.606   5.535  20.476  0.00  0.00    +0.000 C 
ATOM      4  C   UNL     1       3.018   5.182  19.037  0.00  0.00    +0.000 C 
ATOM      5  C   UNL     1       3.389   6.453  18.252  0.00  0.00    +0.000 C 
ATOM      6  C   UNL     1       2.286   7.515  18.339  0.00  0.00    +0.000 C 
ENDROOT
BRANCH   4   7
ATOM      7  N   UNL     1       4.101   4.186  19.035  0.00  0.00    +0.000 N 
ATOM      8  C   UNL     1       3.892   2.848  19.566  0.00  0.00    +0.000 C 
BRANCH   7   9
ATOM      9  C   UNL     1       5.362   4.591  18.635  0.00  0.00    +0.000 A 
ATOM     10  N   UNL     1       6.186   5.179  19.552  0.00  0.00    +0.000 NA
ATOM     11  C   UNL     1       7.431   5.550  19.197  0.00  0.00    +0.000 A 
ATOM     12  N   UNL     1       8.007   5.455  17.992  0.00  0.00    +0.000 NA
ATOM     13  C   UNL     1       7.164   4.919  17.098  0.00  0.00    +0.000 A 
ATOM     14  N   UNL     1       7.465   4.731  15.777  0.00  0.00    +0.000 N 
ATOM     15  C   UNL     1       6.393   4.187  15.124  0.00  0.00    +0.000 A 
ATOM     16  C   UNL     1       5.381   4.030  16.053  0.00  0.00    +0.000 A 
ATOM     17  C   UNL     1       5.869   4.473  17.321  0.00  0.00    +0.000 A 
ATOM     18  H   UNL     1       8.351   4.979  15.368  0.00  0.00    +0.000 HD
ENDBRANCH   7   9
ENDBRANCH   4   7
BRANCH   1  19
ATOM     19  C   UNL     1       0.940   9.019  19.876  0.00  0.00    +0.000 C 
BRANCH  19  20
ATOM     20  S   UNL     1       0.221   9.236  21.523  0.00  0.00    +0.000 S 
ATOM     21  O   UNL     1       1.273   9.627  22.437  0.00  0.00    +0.000 OA
ATOM     22  O   UNL     1      -0.647   8.117  21.825  0.00  0.00    +0.000 OA
BRANCH  20  26
ATOM     23  C   UNL     1      -1.350  13.432  20.580  0.00  0.00    +0.000 C 
ATOM     24  C   UNL     1      -1.391  12.924  22.020  0.00  0.00    +0.000 C 
ATOM     25  C   UNL     1      -0.463  11.735  22.224  0.00  0.00    +0.000 C 
ATOM     26  N   UNL     1      -0.823  10.605  21.320  0.00  0.00    +0.000 NA
ATOM     27  C   UNL     1      -0.900  11.019  19.871  0.00  0.00    +0.000 C 
ATOM     28  C   UNL     1      -1.752  12.273  19.660  0.00  0.00    +0.000 C 
BRANCH  23  29
ATOM     29  C   UNL     1       0.013  14.039  20.205  0.00  0.00    +0.000 C 
BRANCH  29  31
ATOM     30  C   UNL     1      -0.004  15.884  18.734  0.00  0.00    +0.000 C 
ATOM     31  O   UNL     1      -0.031  14.466  18.844  0.00  0.00    +0.000 OA
ENDBRANCH  29  31
ENDBRANCH  23  29
ENDBRANCH  20  26
ENDBRANCH  19  20
ENDBRANCH   1  19
TORSDOF 7
ENDMDL
MODEL 4
REMARK VINA RESULT:      -7.8      0.987      1.264
REMARK  Name = 
REMARK  9 active torsions:
REMARK  status: ('A' for Active; 'I' for Inactive)
REMARK    1  A    between atoms: C_1  and  O_2
REMARK    2  A    between atoms: O_2  and  C_3
REMARK    3  A    between atoms: C_3  and  C_4
REMARK    4  A    between atoms: N_7  and  S_8
REMARK    5  A    between atoms: S_8  and  C_11
REMARK    6  A    between atoms: C_11  and  C_12
REMARK    7  A    between atoms: C_15  and  N_16
REMARK    8  A    between atoms: N_16  and  C_17
REMARK    9  A    between atoms: N_16  and  C_18
REMARK                            x       y       z     vdW  Elec       q    Type
REMARK                         _______ _______ _______ _____ _____    ______ ____
ROOT
ATOM      1  C   UNL     1       1.621   7.044  20.734  0.00  0.00    +0.000 C 
ATOM      2  C   UNL     1       1.209   5.567  20.842  0.00  0.00    +0.000 C 
ATOM      3  C   UNL     1       2.422   4.655  20.691  0.00  0.00    +0.000 C 
ATOM      4  C   UNL     1       3.173   4.881  19.367  0.00  0.00    +0.000 C 
ATOM      5  C   UNL     1       3.519   6.370  19.188  0.00  0.00    +0.000 C 
ATOM      6  C   UNL     1       2.285   7.264  19.361  0.00  0.00    +0.000 C 
ENDROOT
BRANCH   4   7
ATOM      7  N   UNL     1       4.360   4.016  19.289  0.00  0.00    +0.000 N 
ATOM      8  C   UNL     1       4.353   2.677  19.858  0.00  0.00    +0.000 C 
BRANCH   7   9
ATOM      9  C   UNL     1       5.528   4.551  18.776  0.00  0.00    +0.000 A 
ATOM     10  N   UNL     1       6.365   5.231  19.614  0.00  0.00    +0.000 NA
ATOM     11  C   UNL     1       7.524   5.731  19.147  0.00  0.00    +0.000 A 
ATOM     12  N   UNL     1       7.993   5.690  17.894  0.00  0.00    +0.000 NA
ATOM     13  C   UNL     1       7.135   5.061  17.080  0.00  0.00    +0.000 A 
ATOM     14  N   UNL     1       7.331   4.898  15.736  0.00  0.00    +0.000 N 
ATOM     15  C   UNL     1       6.268   4.237  15.183  0.00  0.00    +0.000 A 
ATOM     16  C   UNL     1       5.369   3.978  16.201  0.00  0.00    +0.000 A 
ATOM     17  C   UNL     1       5.921   4.480  17.420  0.00  0.00    +0.000 A 
ATOM     18  H   UNL     1       8.143   5.236  15.248  0.00  0.00    +0.000 HD
ENDBRANCH   7   9
ENDBRANCH   4   7
BRANCH   1  19
ATOM     19  C   UNL     1       0.449   8.020  20.940  0.00  0.00    +0.000 C 
BRANCH  19  20
ATOM     20  S   UNL     1       0.820   9.354  22.107  0.00  0.00    +0.000 S 
ATOM     21  O   UNL     1       2.240   9.342  22.384  0.00  0.00    +0.000 OA
ATOM     22  O   UNL     1      -0.147   9.337  23.186  0.00  0.00    +0.000 OA
BRANCH  20  26
ATOM     23  C   UNL     1      -0.828  12.238  18.956  0.00  0.00    +0.000 C 
ATOM     24  C   UNL     1       0.674  11.963  19.007  0.00  0.00    +0.000 C 
ATOM     25  C   UNL     1       0.988  10.697  19.790  0.00  0.00    +0.000 C 
ATOM     26  N   UNL     1       0.483  10.785  21.190  0.00  0.00    +0.000 NA
ATOM     27  C   UNL     1      -0.981  11.143  21.260  0.00  0.00    +0.000 C 
ATOM     28  C   UNL     1      -1.333  12.359  20.399  0.00  0.00    +0.000 C 
BRANCH  23  29
ATOM     29  C   UNL     1      -1.596  11.179  18.148  0.00  0.00    +0.000 C 
BRANCH  29  31
ATOM     30  C   UNL     1      -3.819  11.601  17.477  0.00  0.00    +0.000 C 
ATOM     31  O   UNL     1      -2.967  11.201  18.544  0.00  0.00    +0.000 OA
ENDBRANCH  29  31
ENDBRANCH  23  29
ENDBRANCH  20  26
ENDBRANCH  19  20
ENDBRANCH   1  19
TORSDOF 7
ENDMDL
MODEL 5
REMARK VINA RESULT:      -7.8      3.589      8.965
REMARK  Name = 
REMARK  9 active torsions:
REMARK  status: ('A' for Active; 'I' for Inactive)
REMARK    1  A    between atoms: C_1  and  O_2
REMARK    2  A    between atoms: O_2  and  C_3
REMARK    3  A    between atoms: C_3  and  C_4
REMARK    4  A    between atoms: N_7  and  S_8
REMARK    5  A    between atoms: S_8  and  C_11
REMARK    6  A    between atoms: C_11  and  C_12
REMARK    7  A    between atoms: C_15  and  N_16
REMARK    8  A    between atoms: N_16  and  C_17
REMARK    9  A    between atoms: N_16  and  C_18
REMARK                            x       y       z     vdW  Elec       q    Type
REMARK                         _______ _______ _______ _____ _____    ______ ____
ROOT
ATOM      1  C   UNL     1       3.708   7.117  17.877  0.00  0.00    +0.000 C 
ATOM      2  C   UNL     1       2.953   8.256  17.174  0.00  0.00    +0.000 C 
ATOM      3  C   UNL     1       2.382   9.235  18.193  0.00  0.00    +0.000 C 
ATOM      4  C   UNL     1       1.449   8.557  19.211  0.00  0.00    +0.000 C 
ATOM      5  C   UNL     1       2.148   7.352  19.866  0.00  0.00    +0.000 C 
ATOM      6  C   UNL     1       2.726   6.392  18.819  0.00  0.00    +0.000 C 
ENDROOT
BRANCH   4   7
ATOM      7  N   UNL     1       0.963   9.531  20.201  0.00  0.00    +0.000 N 
ATOM      8  C   UNL     1       0.779   9.157  21.594  0.00  0.00    +0.000 C 
BRANCH   7   9
ATOM      9  C   UNL     1       0.564  10.777  19.751  0.00  0.00    +0.000 A 
ATOM     10  N   UNL     1       1.158  11.888  20.279  0.00  0.00    +0.000 NA
ATOM     11  C   UNL     1       0.813  13.110  19.833  0.00  0.00    +0.000 A 
ATOM     12  N   UNL     1      -0.111  13.422  18.915  0.00  0.00    +0.000 NA
ATOM     13  C   UNL     1      -0.714  12.321  18.447  0.00  0.00    +0.000 A 
ATOM     14  N   UNL     1      -1.723  12.331  17.524  0.00  0.00    +0.000 N 
ATOM     15  C   UNL     1      -2.140  11.054  17.268  0.00  0.00    +0.000 A 
ATOM     16  C   UNL     1      -1.380  10.207  18.054  0.00  0.00    +0.000 A 
ATOM     17  C   UNL     1      -0.451  11.002  18.794  0.00  0.00    +0.000 A 
ATOM     18  H   UNL     1      -2.096  13.174  17.118  0.00  0.00    +0.000 HD
ENDBRANCH   7   9
ENDBRANCH   4   7
BRANCH   1  19
ATOM     19  C   UNL     1       4.362   6.124  16.899  0.00  0.00    +0.000 C 
BRANCH  19  20
ATOM     20  S   UNL     1       5.770   5.235  17.611  0.00  0.00    +0.000 S 
ATOM     21  O   UNL     1       6.171   5.907  18.828  0.00  0.00    +0.000 OA
ATOM     22  O   UNL     1       6.736   4.944  16.571  0.00  0.00    +0.000 OA
BRANCH  20  26
ATOM     23  C   UNL     1       2.899   2.017  19.148  0.00  0.00    +0.000 C 
ATOM     24  C   UNL     1       4.208   2.270  19.894  0.00  0.00    +0.000 C 
ATOM     25  C   UNL     1       4.814   3.617  19.526  0.00  0.00    +0.000 C 
ATOM     26  N   UNL     1       5.085   3.709  18.063  0.00  0.00    +0.000 NA
ATOM     27  C   UNL     1       3.873   3.388  17.223  0.00  0.00    +0.000 C 
ATOM     28  C   UNL     1       3.193   2.082  17.644  0.00  0.00    +0.000 C 
BRANCH  23  29
ATOM     29  C   UNL     1       1.780   2.983  19.573  0.00  0.00    +0.000 C 
BRANCH  29  31
ATOM     30  C   UNL     1       1.304   2.615  21.855  0.00  0.00    +0.000 C 
ATOM     31  O   UNL     1       2.021   3.407  20.914  0.00  0.00    +0.000 OA
ENDBRANCH  29  31
ENDBRANCH  23  29
ENDBRANCH  20  26
ENDBRANCH  19  20
ENDBRANCH   1  19
TORSDOF 7
ENDMDL
MODEL 6
REMARK VINA RESULT:      -7.7      3.187      9.572
REMARK  Name = 
REMARK  9 active torsions:
REMARK  status: ('A' for Active; 'I' for Inactive)
REMARK    1  A    between atoms: C_1  and  O_2
REMARK    2  A    between atoms: O_2  and  C_3
REMARK    3  A    between atoms: C_3  and  C_4
REMARK    4  A    between atoms: N_7  and  S_8
REMARK    5  A    between atoms: S_8  and  C_11
REMARK    6  A    between atoms: C_11  and  C_12
REMARK    7  A    between atoms: C_15  and  N_16
REMARK    8  A    between atoms: N_16  and  C_17
REMARK    9  A    between atoms: N_16  and  C_18
REMARK                            x       y       z     vdW  Elec       q    Type
REMARK                         _______ _______ _______ _____ _____    ______ ____
ROOT
ATOM      1  C   UNL     1       2.042   7.233  19.381  0.00  0.00    +0.000 C 
ATOM      2  C   UNL     1       1.651   7.983  20.665  0.00  0.00    +0.000 C 
ATOM      3  C   UNL     1       0.485   8.929  20.404  0.00  0.00    +0.000 C 
ATOM      4  C   UNL     1       0.784   9.947  19.289  0.00  0.00    +0.000 C 
ATOM      5  C   UNL     1       1.267   9.229  18.016  0.00  0.00    +0.000 C 
ATOM      6  C   UNL     1       2.429   8.272  18.310  0.00  0.00    +0.000 C 
ENDROOT
BRANCH   4   7
ATOM      7  N   UNL     1      -0.386  10.804  19.040  0.00  0.00    +0.000 N 
ATOM      8  C   UNL     1      -1.495  10.342  18.221  0.00  0.00    +0.000 C 
BRANCH   7   9
ATOM      9  C   UNL     1      -0.350  12.109  19.499  0.00  0.00    +0.000 A 
ATOM     10  N   UNL     1       0.043  13.096  18.642  0.00  0.00    +0.000 NA
ATOM     11  C   UNL     1       0.052  14.379  19.052  0.00  0.00    +0.000 A 
ATOM     12  N   UNL     1      -0.253  14.858  20.265  0.00  0.00    +0.000 NA
ATOM     13  C   UNL     1      -0.590  13.867  21.102  0.00  0.00    +0.000 A 
ATOM     14  N   UNL     1      -0.917  14.051  22.417  0.00  0.00    +0.000 N 
ATOM     15  C   UNL     1      -1.189  12.847  23.007  0.00  0.00    +0.000 A 
ATOM     16  C   UNL     1      -1.026  11.870  22.043  0.00  0.00    +0.000 A 
ATOM     17  C   UNL     1      -0.664  12.510  20.817  0.00  0.00    +0.000 A 
ATOM     18  H   UNL     1      -0.934  14.953  22.864  0.00  0.00    +0.000 HD
ENDBRANCH   7   9
ENDBRANCH   4   7
BRANCH   1  19
ATOM     19  C   UNL     1       3.176   6.214  19.591  0.00  0.00    +0.000 C 
BRANCH  19  20
ATOM     20  S   UNL     1       3.006   4.727  18.572  0.00  0.00    +0.000 S 
ATOM     21  O   UNL     1       1.864   4.896  17.700  0.00  0.00    +0.000 OA
ATOM     22  O   UNL     1       3.135   3.550  19.407  0.00  0.00    +0.000 OA
BRANCH  20  26
ATOM     23  C   UNL     1       7.102   5.821  16.845  0.00  0.00    +0.000 C 
ATOM     24  C   UNL     1       5.847   6.072  16.010  0.00  0.00    +0.000 C 
ATOM     25  C   UNL     1       4.590   6.065  16.869  0.00  0.00    +0.000 C 
ATOM     26  N   UNL     1       4.426   4.764  17.580  0.00  0.00    +0.000 NA
ATOM     27  C   UNL     1       5.651   4.373  18.370  0.00  0.00    +0.000 C 
ATOM     28  C   UNL     1       6.939   4.468  17.547  0.00  0.00    +0.000 C 
BRANCH  23  29
ATOM     29  C   UNL     1       7.396   6.966  17.829  0.00  0.00    +0.000 C 
BRANCH  29  31
ATOM     30  C   UNL     1       8.227   9.171  17.958  0.00  0.00    +0.000 C 
ATOM     31  O   UNL     1       7.933   8.072  17.103  0.00  0.00    +0.000 OA
ENDBRANCH  29  31
ENDBRANCH  23  29
ENDBRANCH  20  26
ENDBRANCH  19  20
ENDBRANCH   1  19
TORSDOF 7
ENDMDL
MODEL 7
REMARK VINA RESULT:      -7.7      0.661      1.630
REMARK  Name = 
REMARK  9 active torsions:
REMARK  status: ('A' for Active; 'I' for Inactive)
REMARK    1  A    between atoms: C_1  and  O_2
REMARK    2  A    between atoms: O_2  and  C_3
REMARK    3  A    between atoms: C_3  and  C_4
REMARK    4  A    between atoms: N_7  and  S_8
REMARK    5  A    between atoms: S_8  and  C_11
REMARK    6  A    between atoms: C_11  and  C_12
REMARK    7  A    between atoms: C_15  and  N_16
REMARK    8  A    between atoms: N_16  and  C_17
REMARK    9  A    between atoms: N_16  and  C_18
REMARK                            x       y       z     vdW  Elec       q    Type
REMARK                         _______ _______ _______ _____ _____    ______ ____
ROOT
ATOM      1  C   UNL     1       1.848   7.903  20.108  0.00  0.00    +0.000 C 
ATOM      2  C   UNL     1       1.264   6.598  20.670  0.00  0.00    +0.000 C 
ATOM      3  C   UNL     1       2.219   5.433  20.435  0.00  0.00    +0.000 C 
ATOM      4  C   UNL     1       2.564   5.239  18.948  0.00  0.00    +0.000 C 
ATOM      5  C   UNL     1       3.067   6.557  18.333  0.00  0.00    +0.000 C 
ATOM      6  C   UNL     1       2.096   7.714  18.598  0.00  0.00    +0.000 C 
ENDROOT
BRANCH   4   7
ATOM      7  N   UNL     1       3.525   4.138  18.777  0.00  0.00    +0.000 N 
ATOM      8  C   UNL     1       3.470   2.955  19.621  0.00  0.00    +0.000 C 
BRANCH   7   9
ATOM      9  C   UNL     1       4.563   4.308  17.878  0.00  0.00    +0.000 A 
ATOM     10  N   UNL     1       4.400   3.870  16.595  0.00  0.00    +0.000 NA
ATOM     11  C   UNL     1       5.382   4.056  15.692  0.00  0.00    +0.000 A 
ATOM     12  N   UNL     1       6.585   4.610  15.885  0.00  0.00    +0.000 NA
ATOM     13  C   UNL     1       6.740   4.990  17.161  0.00  0.00    +0.000 A 
ATOM     14  N   UNL     1       7.880   5.555  17.660  0.00  0.00    +0.000 N 
ATOM     15  C   UNL     1       7.734   5.808  18.997  0.00  0.00    +0.000 A 
ATOM     16  C   UNL     1       6.468   5.386  19.360  0.00  0.00    +0.000 A 
ATOM     17  C   UNL     1       5.816   4.882  18.192  0.00  0.00    +0.000 A 
ATOM     18  H   UNL     1       8.700   5.736  17.105  0.00  0.00    +0.000 HD
ENDBRANCH   7   9
ENDBRANCH   4   7
BRANCH   1  19
ATOM     19  C   UNL     1       0.958   9.132  20.367  0.00  0.00    +0.000 C 
BRANCH  19  20
ATOM     20  S   UNL     1       0.662   9.447  22.125  0.00  0.00    +0.000 S 
ATOM     21  O   UNL     1       1.924   9.358  22.828  0.00  0.00    +0.000 OA
ATOM     22  O   UNL     1      -0.490   8.687  22.567  0.00  0.00    +0.000 OA
BRANCH  20  26
ATOM     23  C   UNL     1      -1.693  13.319  21.473  0.00  0.00    +0.000 C 
ATOM     24  C   UNL     1      -0.312  13.167  20.837  0.00  0.00    +0.000 C 
ATOM     25  C   UNL     1       0.126  11.710  20.786  0.00  0.00    +0.000 C 
ATOM     26  N   UNL     1       0.172  11.110  22.150  0.00  0.00    +0.000 NA
ATOM     27  C   UNL     1      -1.121  11.283  22.908  0.00  0.00    +0.000 C 
ATOM     28  C   UNL     1      -1.628  12.728  22.886  0.00  0.00    +0.000 C 
BRANCH  23  29
ATOM     29  C   UNL     1      -2.810  12.693  20.621  0.00  0.00    +0.000 C 
BRANCH  29  31
ATOM     30  C   UNL     1      -2.999  11.656  18.509  0.00  0.00    +0.000 C 
ATOM     31  O   UNL     1      -2.415  12.723  19.249  0.00  0.00    +0.000 OA
ENDBRANCH  29  31
ENDBRANCH  23  29
ENDBRANCH  20  26
ENDBRANCH  19  20
ENDBRANCH   1  19
TORSDOF 7
ENDMDL
MODEL 8
REMARK VINA RESULT:      -7.7      3.297      9.527
REMARK  Name = 
REMARK  9 active torsions:
REMARK  status: ('A' for Active; 'I' for Inactive)
REMARK    1  A    between atoms: C_1  and  O_2
REMARK    2  A    between atoms: O_2  and  C_3
REMARK    3  A    between atoms: C_3  and  C_4
REMARK    4  A    between atoms: N_7  and  S_8
REMARK    5  A    between atoms: S_8  and  C_11
REMARK    6  A    between atoms: C_11  and  C_12
REMARK    7  A    between atoms: C_15  and  N_16
REMARK    8  A    between atoms: N_16  and  C_17
REMARK    9  A    between atoms: N_16  and  C_18
REMARK                            x       y       z     vdW  Elec       q    Type
REMARK                         _______ _______ _______ _____ _____    ______ ____
ROOT
ATOM      1  C   UNL     1       2.211   7.101  19.330  0.00  0.00    +0.000 C 
ATOM      2  C   UNL     1       1.748   7.961  20.517  0.00  0.00    +0.000 C 
ATOM      3  C   UNL     1       0.613   8.890  20.101  0.00  0.00    +0.000 C 
ATOM      4  C   UNL     1       0.997   9.806  18.925  0.00  0.00    +0.000 C 
ATOM      5  C   UNL     1       1.552   8.978  17.752  0.00  0.00    +0.000 C 
ATOM      6  C   UNL     1       2.680   8.041  18.202  0.00  0.00    +0.000 C 
ENDROOT
BRANCH   4   7
ATOM      7  N   UNL     1      -0.143  10.647  18.529  0.00  0.00    +0.000 N 
ATOM      8  C   UNL     1      -1.221  10.115  17.711  0.00  0.00    +0.000 C 
BRANCH   7   9
ATOM      9  C   UNL     1      -0.103  11.994  18.844  0.00  0.00    +0.000 A 
ATOM     10  N   UNL     1       1.012  12.713  18.520  0.00  0.00    +0.000 NA
ATOM     11  C   UNL     1       1.061  14.033  18.783  0.00  0.00    +0.000 A 
ATOM     12  N   UNL     1       0.134  14.787  19.388  0.00  0.00    +0.000 NA
ATOM     13  C   UNL     1      -0.929  14.052  19.739  0.00  0.00    +0.000 A 
ATOM     14  N   UNL     1      -2.018  14.545  20.404  0.00  0.00    +0.000 N 
ATOM     15  C   UNL     1      -2.921  13.544  20.637  0.00  0.00    +0.000 A 
ATOM     16  C   UNL     1      -2.390  12.380  20.111  0.00  0.00    +0.000 A 
ATOM     17  C   UNL     1      -1.129  12.696  19.516  0.00  0.00    +0.000 A 
ATOM     18  H   UNL     1      -2.110  15.509  20.682  0.00  0.00    +0.000 HD
ENDBRANCH   7   9
ENDBRANCH   4   7
BRANCH   1  19
ATOM     19  C   UNL     1       3.316   6.095  19.700  0.00  0.00    +0.000 C 
BRANCH  19  20
ATOM     20  S   UNL     1       3.276   4.583  18.704  0.00  0.00    +0.000 S 
ATOM     21  O   UNL     1       2.258   4.730  17.686  0.00  0.00    +0.000 OA
ATOM     22  O   UNL     1       3.293   3.427  19.576  0.00  0.00    +0.000 OA
BRANCH  20  26
ATOM     23  C   UNL     1       7.269   5.958  16.935  0.00  0.00    +0.000 C 
ATOM     24  C   UNL     1       6.173   5.448  16.001  0.00  0.00    +0.000 C 
ATOM     25  C   UNL     1       4.811   5.449  16.679  0.00  0.00    +0.000 C 
ATOM     26  N   UNL     1       4.814   4.598  17.904  0.00  0.00    +0.000 NA
ATOM     27  C   UNL     1       5.921   4.959  18.863  0.00  0.00    +0.000 C 
ATOM     28  C   UNL     1       7.286   5.059  18.177  0.00  0.00    +0.000 C 
BRANCH  23  29
ATOM     29  C   UNL     1       7.102   7.446  17.286  0.00  0.00    +0.000 C 
BRANCH  29  31
ATOM     30  C   UNL     1       8.376   9.227  18.166  0.00  0.00    +0.000 C 
ATOM     31  O   UNL     1       8.135   7.825  18.196  0.00  0.00    +0.000 OA
ENDBRANCH  29  31
ENDBRANCH  23  29
ENDBRANCH  20  26
ENDBRANCH  19  20
ENDBRANCH   1  19
TORSDOF 7
ENDMDL
MODEL 9
REMARK VINA RESULT:      -7.7      1.525      2.429
REMARK  Name = 
REMARK  9 active torsions:
REMARK  status: ('A' for Active; 'I' for Inactive)
REMARK    1  A    between atoms: C_1  and  O_2
REMARK    2  A    between atoms: O_2  and  C_3
REMARK    3  A    between atoms: C_3  and  C_4
REMARK    4  A    between atoms: N_7  and  S_8
REMARK    5  A    between atoms: S_8  and  C_11
REMARK    6  A    between atoms: C_11  and  C_12
REMARK    7  A    between atoms: C_15  and  N_16
REMARK    8  A    between atoms: N_16  and  C_17
REMARK    9  A    between atoms: N_16  and  C_18
REMARK                            x       y       z     vdW  Elec       q    Type
REMARK                         _______ _______ _______ _____ _____    ______ ____
ROOT
ATOM      1  C   UNL     1       1.436   8.192  19.390  0.00  0.00    +0.000 C 
ATOM      2  C   UNL     1       2.503   8.406  18.305  0.00  0.00    +0.000 C 
ATOM      3  C   UNL     1       2.990   7.070  17.755  0.00  0.00    +0.000 C 
ATOM      4  C   UNL     1       3.554   6.148  18.850  0.00  0.00    +0.000 C 
ATOM      5  C   UNL     1       2.541   5.988  19.998  0.00  0.00    +0.000 C 
ATOM      6  C   UNL     1       2.055   7.346  20.520  0.00  0.00    +0.000 C 
ENDROOT
BRANCH   4   7
ATOM      7  N   UNL     1       3.965   4.856  18.280  0.00  0.00    +0.000 N 
ATOM      8  C   UNL     1       3.094   3.694  18.347  0.00  0.00    +0.000 C 
BRANCH   7   9
ATOM      9  C   UNL     1       5.254   4.736  17.791  0.00  0.00    +0.000 A 
ATOM     10  N   UNL     1       6.300   4.814  18.666  0.00  0.00    +0.000 NA
ATOM     11  C   UNL     1       7.562   4.665  18.221  0.00  0.00    +0.000 A 
ATOM     12  N   UNL     1       7.974   4.476  16.961  0.00  0.00    +0.000 NA
ATOM     13  C   UNL     1       6.935   4.451  16.115  0.00  0.00    +0.000 A 
ATOM     14  N   UNL     1       7.053   4.308  14.760  0.00  0.00    +0.000 N 
ATOM     15  C   UNL     1       5.816   4.344  14.174  0.00  0.00    +0.000 A 
ATOM     16  C   UNL     1       4.888   4.521  15.182  0.00  0.00    +0.000 A 
ATOM     17  C   UNL     1       5.588   4.569  16.428  0.00  0.00    +0.000 A 
ATOM     18  H   UNL     1       7.935   4.205  14.286  0.00  0.00    +0.000 HD
ENDBRANCH   7   9
ENDBRANCH   4   7
BRANCH   1  19
ATOM     19  C   UNL     1       0.857   9.506  19.944  0.00  0.00    +0.000 C 
BRANCH  19  20
ATOM     20  S   UNL     1       0.138   9.335  21.597  0.00  0.00    +0.000 S 
ATOM     21  O   UNL     1       1.160   9.636  22.577  0.00  0.00    +0.000 OA
ATOM     22  O   UNL     1      -0.622   8.104  21.671  0.00  0.00    +0.000 OA
BRANCH  20  26
ATOM     23  C   UNL     1      -1.839  13.420  22.203  0.00  0.00    +0.000 C 
ATOM     24  C   UNL     1      -2.286  12.239  23.061  0.00  0.00    +0.000 C 
ATOM     25  C   UNL     1      -1.264  11.111  23.042  0.00  0.00    +0.000 C 
ATOM     26  N   UNL     1      -1.027  10.617  21.654  0.00  0.00    +0.000 NA
ATOM     27  C   UNL     1      -0.664  11.724  20.695  0.00  0.00    +0.000 C 
ATOM     28  C   UNL     1      -1.628  12.911  20.772  0.00  0.00    +0.000 C 
BRANCH  23  29
ATOM     29  C   UNL     1      -0.593  14.125  22.769  0.00  0.00    +0.000 C 
BRANCH  29  31
ATOM     30  C   UNL     1      -0.691  15.986  24.215  0.00  0.00    +0.000 C 
ATOM     31  O   UNL     1      -0.882  14.582  24.090  0.00  0.00    +0.000 OA
ENDBRANCH  29  31
ENDBRANCH  23  29
ENDBRANCH  20  26
ENDBRANCH  19  20
ENDBRANCH   1  19
TORSDOF 7
ENDMDL
