MODEL 1
REMARK VINA RESULT:      -8.4      0.000      0.000
REMARK  Name = 
REMARK  7 active torsions:
REMARK  status: ('A' for Active; 'I' for Inactive)
REMARK    1  A    between atoms: C_2  and  C_3
REMARK    2  A    between atoms: C_3  and  C_4
REMARK    3  A    between atoms: C_4  and  N_5
REMARK    4  A    between atoms: C_6  and  C_8
REMARK    5  A    between atoms: N_15  and  C_16
REMARK    6  A    between atoms: C_20  and  S_21
REMARK    7  A    between atoms: S_21  and  N_24
REMARK                            x       y       z     vdW  Elec       q    Type
REMARK                         _______ _______ _______ _____ _____    ______ ____
ROOT
ATOM      1  O   UNL     1       1.420   4.008  18.950  0.00  0.00    +0.000 OA
ATOM      2  C   UNL     1       2.156   4.236  19.905  0.00  0.00    +0.000 C 
ATOM      3  N   UNL     1       2.650   5.483  20.281  0.00  0.00    +0.000 N 
ATOM      4  H   UNL     1       3.264   5.505  21.086  0.00  0.00    +0.000 HD
ENDROOT
BRANCH   3   5
ATOM      5  C   UNL     1       2.417   6.728  19.641  0.00  0.00    +0.000 A 
ATOM      6  C   UNL     1       2.847   7.017  18.342  0.00  0.00    +0.000 A 
ATOM      7  C   UNL     1       2.561   8.249  17.742  0.00  0.00    +0.000 A 
ATOM      8  C   UNL     1       1.856   9.227  18.438  0.00  0.00    +0.000 A 
ATOM      9  C   UNL     1       1.456   8.975  19.752  0.00  0.00    +0.000 A 
ATOM     10  C   UNL     1       1.705   7.716  20.342  0.00  0.00    +0.000 A 
BRANCH   9  11
ATOM     11  S   UNL     1       0.500  10.208  20.622  0.00  0.00    +0.000 S 
ATOM     12  O   UNL     1      -0.880   9.795  20.585  0.00  0.00    +0.000 OA
ATOM     13  O   UNL     1       1.176  10.454  21.886  0.00  0.00    +0.000 OA
BRANCH  11  14
ATOM     14  N   UNL     1       0.653  11.637  19.659  0.00  0.00    +0.000 NA
ATOM     15  C   UNL     1      -0.627  12.119  19.077  0.00  0.00    +0.000 C 
ATOM     16  C   UNL     1      -0.468  13.372  18.227  0.00  0.00    +0.000 C 
ATOM     17  C   UNL     1       0.324  14.445  18.955  0.00  0.00    +0.000 C 
ATOM     18  C   UNL     1       1.694  13.889  19.302  0.00  0.00    +0.000 C 
ATOM     19  C   UNL     1       1.580  12.661  20.201  0.00  0.00    +0.000 C 
ENDBRANCH  11  14
ENDBRANCH   9  11
ENDBRANCH   3   5
BRANCH   2  20
ATOM     20  C   UNL     1       2.573   3.122  20.854  0.00  0.00    +0.000 C 
BRANCH  20  21
ATOM     21  C   UNL     1       3.920   2.517  20.456  0.00  0.00    +0.000 C 
BRANCH  21  22
ATOM     22  N   UNL     1       4.313   2.911  19.110  0.00  0.00    +0.000 N 
ATOM     23  C   UNL     1       5.169   3.963  18.875  0.00  0.00    +0.000 C 
ATOM     24  O   UNL     1       5.653   4.629  19.787  0.00  0.00    +0.000 OA
ATOM     25  H   UNL     1       3.916   2.405  18.327  0.00  0.00    +0.000 HD
BRANCH  23  26
ATOM     26  C   UNL     1       5.580   4.240  17.464  0.00  0.00    +0.000 A 
ATOM     27  C   UNL     1       4.538   4.231  16.514  0.00  0.00    +0.000 A 
ATOM     28  C   UNL     1       4.781   4.497  15.166  0.00  0.00    +0.000 A 
ATOM     29  C   UNL     1       6.076   4.767  14.737  0.00  0.00    +0.000 A 
ATOM     30  C   UNL     1       7.123   4.770  15.660  0.00  0.00    +0.000 A 
ATOM     31  C   UNL     1       6.883   4.504  17.019  0.00  0.00    +0.000 A 
ATOM     32 CL   UNL     1       8.274   4.489  18.047  0.00  0.00    +0.000 Cl
ENDBRANCH  23  26
ENDBRANCH  21  22
ENDBRANCH  20  21
ENDBRANCH   2  20
TORSDOF 7
ENDMDL
MODEL 2
REMARK VINA RESULT:      -8.0      1.549      2.039
REMARK  Name = 
REMARK  7 active torsions:
REMARK  status: ('A' for Active; 'I' for Inactive)
REMARK    1  A    between atoms: C_2  and  C_3
REMARK    2  A    between atoms: C_3  and  C_4
REMARK    3  A    between atoms: C_4  and  N_5
REMARK    4  A    between atoms: C_6  and  C_8
REMARK    5  A    between atoms: N_15  and  C_16
REMARK    6  A    between atoms: C_20  and  S_21
REMARK    7  A    between atoms: S_21  and  N_24
REMARK                            x       y       z     vdW  Elec       q    Type
REMARK                         _______ _______ _______ _____ _____    ______ ____
ROOT
ATOM      1  O   UNL     1       1.515   4.540  18.651  0.00  0.00    +0.000 OA
ATOM      2  C   UNL     1       2.057   4.813  19.718  0.00  0.00    +0.000 C 
ATOM      3  N   UNL     1       2.395   6.090  20.163  0.00  0.00    +0.000 N 
ATOM      4  H   UNL     1       2.858   6.150  21.062  0.00  0.00    +0.000 HD
ENDROOT
BRANCH   3   5
ATOM      5  C   UNL     1       2.196   7.318  19.481  0.00  0.00    +0.000 A 
ATOM      6  C   UNL     1       2.770   7.610  18.240  0.00  0.00    +0.000 A 
ATOM      7  C   UNL     1       2.514   8.825  17.592  0.00  0.00    +0.000 A 
ATOM      8  C   UNL     1       1.694   9.781  18.183  0.00  0.00    +0.000 A 
ATOM      9  C   UNL     1       1.148   9.527  19.442  0.00  0.00    +0.000 A 
ATOM     10  C   UNL     1       1.369   8.285  20.077  0.00  0.00    +0.000 A 
BRANCH   9  11
ATOM     11  S   UNL     1       0.048  10.732  20.172  0.00  0.00    +0.000 S 
ATOM     12  O   UNL     1      -0.261  10.287  21.507  0.00  0.00    +0.000 OA
ATOM     13  O   UNL     1       0.636  12.041  19.935  0.00  0.00    +0.000 OA
BRANCH  11  14
ATOM     14  N   UNL     1      -1.399  10.628  19.229  0.00  0.00    +0.000 NA
ATOM     15  C   UNL     1      -2.263  11.835  19.307  0.00  0.00    +0.000 C 
ATOM     16  C   UNL     1      -3.535  11.719  18.477  0.00  0.00    +0.000 C 
ATOM     17  C   UNL     1      -3.238  11.260  17.059  0.00  0.00    +0.000 C 
ATOM     18  C   UNL     1      -2.544   9.911  17.119  0.00  0.00    +0.000 C 
ATOM     19  C   UNL     1      -1.235   9.996  17.897  0.00  0.00    +0.000 C 
ENDBRANCH  11  14
ENDBRANCH   9  11
ENDBRANCH   3   5
BRANCH   2  20
ATOM     20  C   UNL     1       2.375   3.727  20.735  0.00  0.00    +0.000 C 
BRANCH  20  21
ATOM     21  C   UNL     1       3.624   2.935  20.342  0.00  0.00    +0.000 C 
BRANCH  21  22
ATOM     22  N   UNL     1       4.137   3.345  19.042  0.00  0.00    +0.000 N 
ATOM     23  C   UNL     1       5.208   4.201  18.914  0.00  0.00    +0.000 C 
ATOM     24  O   UNL     1       5.794   4.665  19.889  0.00  0.00    +0.000 OA
ATOM     25  H   UNL     1       3.666   3.006  18.211  0.00  0.00    +0.000 HD
BRANCH  23  26
ATOM     26  C   UNL     1       5.716   4.498  17.539  0.00  0.00    +0.000 A 
ATOM     27  C   UNL     1       5.016   3.876  16.485  0.00  0.00    +0.000 A 
ATOM     28  C   UNL     1       5.372   4.088  15.152  0.00  0.00    +0.000 A 
ATOM     29  C   UNL     1       6.445   4.918  14.846  0.00  0.00    +0.000 A 
ATOM     30  C   UNL     1       7.156   5.534  15.877  0.00  0.00    +0.000 A 
ATOM     31  C   UNL     1       6.802   5.326  17.220  0.00  0.00    +0.000 A 
ATOM     32 CL   UNL     1       7.796   6.108  18.398  0.00  0.00    +0.000 Cl
ENDBRANCH  23  26
ENDBRANCH  21  22
ENDBRANCH  20  21
ENDBRANCH   2  20
TORSDOF 7
ENDMDL
MODEL 3
REMARK VINA RESULT:      -8.0      1.990      2.431
REMARK  Name = 
REMARK  7 active torsions:
REMARK  status: ('A' for Active; 'I' for Inactive)
REMARK    1  A    between atoms: C_2  and  C_3
REMARK    2  A    between atoms: C_3  and  C_4
REMARK    3  A    between atoms: C_4  and  N_5
REMARK    4  A    between atoms: C_6  and  C_8
REMARK    5  A    between atoms: N_15  and  C_16
REMARK    6  A    between atoms: C_20  and  S_21
REMARK    7  A    between atoms: S_21  and  N_24
REMARK                            x       y       z     vdW  Elec       q    Type
REMARK                         _______ _______ _______ _____ _____    ______ ____
ROOT
ATOM      1  O   UNL     1       1.178   4.068  17.586  0.00  0.00    +0.000 OA
ATOM      2  C   UNL     1       1.971   3.902  18.507  0.00  0.00    +0.000 C 
ATOM      3  N   UNL     1       2.517   4.900  19.311  0.00  0.00    +0.000 N 
ATOM      4  H   UNL     1       3.175   4.603  20.021  0.00  0.00    +0.000 HD
ENDROOT
BRANCH   3   5
ATOM      5  C   UNL     1       2.282   6.297  19.225  0.00  0.00    +0.000 A 
ATOM      6  C   UNL     1       2.655   7.072  18.123  0.00  0.00    +0.000 A 
ATOM      7  C   UNL     1       2.369   8.442  18.071  0.00  0.00    +0.000 A 
ATOM      8  C   UNL     1       1.721   9.068  19.133  0.00  0.00    +0.000 A 
ATOM      9  C   UNL     1       1.380   8.320  20.261  0.00  0.00    +0.000 A 
ATOM     10  C   UNL     1       1.629   6.931  20.295  0.00  0.00    +0.000 A 
BRANCH   9  11
ATOM     11  S   UNL     1       0.496   9.114  21.596  0.00  0.00    +0.000 S 
ATOM     12  O   UNL     1      -0.642   8.290  21.914  0.00  0.00    +0.000 OA
ATOM     13  O   UNL     1       1.481   9.458  22.611  0.00  0.00    +0.000 OA
BRANCH  11  14
ATOM     14  N   UNL     1      -0.090  10.591  20.912  0.00  0.00    +0.000 NA
ATOM     15  C   UNL     1      -1.023  10.405  19.771  0.00  0.00    +0.000 C 
ATOM     16  C   UNL     1      -1.520  11.717  19.179  0.00  0.00    +0.000 C 
ATOM     17  C   UNL     1      -2.039  12.655  20.256  0.00  0.00    +0.000 C 
ATOM     18  C   UNL     1      -0.917  12.934  21.241  0.00  0.00    +0.000 C 
ATOM     19  C   UNL     1      -0.427  11.647  21.899  0.00  0.00    +0.000 C 
ENDBRANCH  11  14
ENDBRANCH   9  11
ENDBRANCH   3   5
BRANCH   2  20
ATOM     20  C   UNL     1       2.411   2.503  18.917  0.00  0.00    +0.000 C 
BRANCH  20  21
ATOM     21  C   UNL     1       3.746   2.122  18.277  0.00  0.00    +0.000 C 
BRANCH  21  22
ATOM     22  N   UNL     1       4.736   3.181  18.419  0.00  0.00    +0.000 N 
ATOM     23  C   UNL     1       5.071   4.015  17.377  0.00  0.00    +0.000 C 
ATOM     24  O   UNL     1       4.552   3.916  16.267  0.00  0.00    +0.000 OA
ATOM     25  H   UNL     1       5.207   3.281  19.311  0.00  0.00    +0.000 HD
BRANCH  23  26
ATOM     26  C   UNL     1       6.036   5.127  17.642  0.00  0.00    +0.000 A 
ATOM     27  C   UNL     1       6.884   4.943  18.753  0.00  0.00    +0.000 A 
ATOM     28  C   UNL     1       7.846   5.894  19.098  0.00  0.00    +0.000 A 
ATOM     29  C   UNL     1       7.973   7.055  18.342  0.00  0.00    +0.000 A 
ATOM     30  C   UNL     1       7.136   7.258  17.244  0.00  0.00    +0.000 A 
ATOM     31  C   UNL     1       6.166   6.305  16.893  0.00  0.00    +0.000 A 
ATOM     32 CL   UNL     1       5.163   6.704  15.542  0.00  0.00    +0.000 Cl
ENDBRANCH  23  26
ENDBRANCH  21  22
ENDBRANCH  20  21
ENDBRANCH   2  20
TORSDOF 7
ENDMDL
MODEL 4
REMARK VINA RESULT:      -7.9      1.367      1.732
REMARK  Name = 
REMARK  7 active torsions:
REMARK  status: ('A' for Active; 'I' for Inactive)
REMARK    1  A    between atoms: C_2  and  C_3
REMARK    2  A    between atoms: C_3  and  C_4
REMARK    3  A    between atoms: C_4  and  N_5
REMARK    4  A    between atoms: C_6  and  C_8
REMARK    5  A    between atoms: N_15  and  C_16
REMARK    6  A    between atoms: C_20  and  S_21
REMARK    7  A    between atoms: S_21  and  N_24
REMARK                            x       y       z     vdW  Elec       q    Type
REMARK                         _______ _______ _______ _____ _____    ______ ____
ROOT
ATOM      1  O   UNL     1       0.944   3.897  20.206  0.00  0.00    +0.000 OA
ATOM      2  C   UNL     1       2.132   4.012  20.492  0.00  0.00    +0.000 C 
ATOM      3  N   UNL     1       2.907   5.159  20.331  0.00  0.00    +0.000 N 
ATOM      4  H   UNL     1       3.881   5.090  20.598  0.00  0.00    +0.000 HD
ENDROOT
BRANCH   3   5
ATOM      5  C   UNL     1       2.493   6.409  19.801  0.00  0.00    +0.000 A 
ATOM      6  C   UNL     1       2.686   6.778  18.466  0.00  0.00    +0.000 A 
ATOM      7  C   UNL     1       2.227   8.010  17.983  0.00  0.00    +0.000 A 
ATOM      8  C   UNL     1       1.585   8.906  18.833  0.00  0.00    +0.000 A 
ATOM      9  C   UNL     1       1.423   8.575  20.178  0.00  0.00    +0.000 A 
ATOM     10  C   UNL     1       1.845   7.315  20.657  0.00  0.00    +0.000 A 
BRANCH   9  11
ATOM     11  S   UNL     1       0.546   9.702  21.252  0.00  0.00    +0.000 S 
ATOM     12  O   UNL     1      -0.729   9.106  21.560  0.00  0.00    +0.000 OA
ATOM     13  O   UNL     1       1.469  10.086  22.309  0.00  0.00    +0.000 OA
BRANCH  11  14
ATOM     14  N   UNL     1       0.257  11.100  20.275  0.00  0.00    +0.000 NA
ATOM     15  C   UNL     1      -1.174  11.331  19.952  0.00  0.00    +0.000 C 
ATOM     16  C   UNL     1      -1.405  12.561  19.084  0.00  0.00    +0.000 C 
ATOM     17  C   UNL     1      -0.691  13.781  19.641  0.00  0.00    +0.000 C 
ATOM     18  C   UNL     1       0.796  13.482  19.717  0.00  0.00    +0.000 C 
ATOM     19  C   UNL     1       1.075  12.288  20.624  0.00  0.00    +0.000 C 
ENDBRANCH  11  14
ENDBRANCH   9  11
ENDBRANCH   3   5
BRANCH   2  20
ATOM     20  C   UNL     1       2.895   2.866  21.140  0.00  0.00    +0.000 C 
BRANCH  20  21
ATOM     21  C   UNL     1       3.817   2.166  20.140  0.00  0.00    +0.000 C 
BRANCH  21  22
ATOM     22  N   UNL     1       4.806   3.081  19.584  0.00  0.00    +0.000 N 
ATOM     23  C   UNL     1       4.680   3.619  18.324  0.00  0.00    +0.000 C 
ATOM     24  O   UNL     1       3.724   3.361  17.596  0.00  0.00    +0.000 OA
ATOM     25  H   UNL     1       5.624   3.299  20.142  0.00  0.00    +0.000 HD
BRANCH  23  26
ATOM     26  C   UNL     1       5.702   4.613  17.874  0.00  0.00    +0.000 A 
ATOM     27  C   UNL     1       6.322   5.355  18.900  0.00  0.00    +0.000 A 
ATOM     28  C   UNL     1       7.310   6.300  18.619  0.00  0.00    +0.000 A 
ATOM     29  C   UNL     1       7.692   6.530  17.301  0.00  0.00    +0.000 A 
ATOM     30  C   UNL     1       7.083   5.812  16.271  0.00  0.00    +0.000 A 
ATOM     31  C   UNL     1       6.088   4.859  16.548  0.00  0.00    +0.000 A 
ATOM     32 CL   UNL     1       5.381   4.078  15.177  0.00  0.00    +0.000 Cl
ENDBRANCH  23  26
ENDBRANCH  21  22
ENDBRANCH  20  21
ENDBRANCH   2  20
TORSDOF 7
ENDMDL
MODEL 5
REMARK VINA RESULT:      -7.8      1.184      1.262
REMARK  Name = 
REMARK  7 active torsions:
REMARK  status: ('A' for Active; 'I' for Inactive)
REMARK    1  A    between atoms: C_2  and  C_3
REMARK    2  A    between atoms: C_3  and  C_4
REMARK    3  A    between atoms: C_4  and  N_5
REMARK    4  A    between atoms: C_6  and  C_8
REMARK    5  A    between atoms: N_15  and  C_16
REMARK    6  A    between atoms: C_20  and  S_21
REMARK    7  A    between atoms: S_21  and  N_24
REMARK                            x       y       z     vdW  Elec       q    Type
REMARK                         _______ _______ _______ _____ _____    ______ ____
ROOT
ATOM      1  O   UNL     1       1.296   4.736  19.049  0.00  0.00    +0.000 OA
ATOM      2  C   UNL     1       1.901   5.042  20.072  0.00  0.00    +0.000 C 
ATOM      3  N   UNL     1       2.257   6.332  20.460  0.00  0.00    +0.000 N 
ATOM      4  H   UNL     1       2.774   6.419  21.327  0.00  0.00    +0.000 HD
ENDROOT
BRANCH   3   5
ATOM      5  C   UNL     1       2.008   7.540  19.759  0.00  0.00    +0.000 A 
ATOM      6  C   UNL     1       2.398   7.753  18.433  0.00  0.00    +0.000 A 
ATOM      7  C   UNL     1       2.097   8.952  17.774  0.00  0.00    +0.000 A 
ATOM      8  C   UNL     1       1.416   9.970  18.436  0.00  0.00    +0.000 A 
ATOM      9  C   UNL     1       1.058   9.794  19.774  0.00  0.00    +0.000 A 
ATOM     10  C   UNL     1       1.322   8.569  20.425  0.00  0.00    +0.000 A 
BRANCH   9  11
ATOM     11  S   UNL     1       0.133  11.078  20.602  0.00  0.00    +0.000 S 
ATOM     12  O   UNL     1      -1.264  10.857  20.326  0.00  0.00    +0.000 OA
ATOM     13  O   UNL     1       0.626  11.141  21.970  0.00  0.00    +0.000 OA
BRANCH  11  14
ATOM     14  N   UNL     1       0.607  12.539  19.807  0.00  0.00    +0.000 NA
ATOM     15  C   UNL     1      -0.526  13.425  19.434  0.00  0.00    +0.000 C 
ATOM     16  C   UNL     1      -0.087  14.701  18.728  0.00  0.00    +0.000 C 
ATOM     17  C   UNL     1       1.026  15.405  19.486  0.00  0.00    +0.000 C 
ATOM     18  C   UNL     1       2.207  14.458  19.608  0.00  0.00    +0.000 C 
ATOM     19  C   UNL     1       1.822  13.188  20.360  0.00  0.00    +0.000 C 
ENDBRANCH  11  14
ENDBRANCH   9  11
ENDBRANCH   3   5
BRANCH   2  20
ATOM     20  C   UNL     1       2.289   3.986  21.096  0.00  0.00    +0.000 C 
BRANCH  20  21
ATOM     21  C   UNL     1       3.264   2.963  20.511  0.00  0.00    +0.000 C 
BRANCH  21  22
ATOM     22  N   UNL     1       4.199   3.579  19.579  0.00  0.00    +0.000 N 
ATOM     23  C   UNL     1       4.284   3.192  18.262  0.00  0.00    +0.000 C 
ATOM     24  O   UNL     1       3.574   2.305  17.795  0.00  0.00    +0.000 OA
ATOM     25  H   UNL     1       4.823   4.298  19.931  0.00  0.00    +0.000 HD
BRANCH  23  26
ATOM     26  C   UNL     1       5.215   3.940  17.362  0.00  0.00    +0.000 A 
ATOM     27  C   UNL     1       5.096   3.651  15.988  0.00  0.00    +0.000 A 
ATOM     28  C   UNL     1       5.888   4.297  15.037  0.00  0.00    +0.000 A 
ATOM     29  C   UNL     1       6.827   5.238  15.445  0.00  0.00    +0.000 A 
ATOM     30  C   UNL     1       6.967   5.531  16.802  0.00  0.00    +0.000 A 
ATOM     31  C   UNL     1       6.171   4.885  17.763  0.00  0.00    +0.000 A 
ATOM     32 CL   UNL     1       6.481   5.303  19.412  0.00  0.00    +0.000 Cl
ENDBRANCH  23  26
ENDBRANCH  21  22
ENDBRANCH  20  21
ENDBRANCH   2  20
TORSDOF 7
ENDMDL
MODEL 6
REMARK VINA RESULT:      -7.7      1.397      2.064
REMARK  Name = 
REMARK  7 active torsions:
REMARK  status: ('A' for Active; 'I' for Inactive)
REMARK    1  A    between atoms: C_2  and  C_3
REMARK    2  A    between atoms: C_3  and  C_4
REMARK    3  A    between atoms: C_4  and  N_5
REMARK    4  A    between atoms: C_6  and  C_8
REMARK    5  A    between atoms: N_15  and  C_16
REMARK    6  A    between atoms: C_20  and  S_21
REMARK    7  A    between atoms: S_21  and  N_24
REMARK                            x       y       z     vdW  Elec       q    Type
REMARK                         _______ _______ _______ _____ _____    ______ ____
ROOT
ATOM      1  O   UNL     1       1.278   4.015  19.334  0.00  0.00    +0.000 OA
ATOM      2  C   UNL     1       2.071   4.272  20.236  0.00  0.00    +0.000 C 
ATOM      3  N   UNL     1       2.569   5.533  20.555  0.00  0.00    +0.000 N 
ATOM      4  H   UNL     1       3.233   5.579  21.319  0.00  0.00    +0.000 HD
ENDROOT
BRANCH   3   5
ATOM      5  C   UNL     1       2.277   6.762  19.909  0.00  0.00    +0.000 A 
ATOM      6  C   UNL     1       2.610   7.027  18.577  0.00  0.00    +0.000 A 
ATOM      7  C   UNL     1       2.268   8.244  17.974  0.00  0.00    +0.000 A 
ATOM      8  C   UNL     1       1.604   9.229  18.699  0.00  0.00    +0.000 A 
ATOM      9  C   UNL     1       1.303   9.001  20.043  0.00  0.00    +0.000 A 
ATOM     10  C   UNL     1       1.607   7.758  20.639  0.00  0.00    +0.000 A 
BRANCH   9  11
ATOM     11  S   UNL     1       0.398  10.244  20.954  0.00  0.00    +0.000 S 
ATOM     12  O   UNL     1      -0.359   9.568  21.978  0.00  0.00    +0.000 OA
ATOM     13  O   UNL     1       1.345  11.295  21.292  0.00  0.00    +0.000 OA
BRANCH  11  14
ATOM     14  N   UNL     1      -0.722  10.896  19.808  0.00  0.00    +0.000 NA
ATOM     15  C   UNL     1      -0.226  12.098  19.090  0.00  0.00    +0.000 C 
ATOM     16  C   UNL     1      -1.230  12.660  18.092  0.00  0.00    +0.000 C 
ATOM     17  C   UNL     1      -1.779  11.577  17.180  0.00  0.00    +0.000 C 
ATOM     18  C   UNL     1      -2.450  10.515  18.034  0.00  0.00    +0.000 C 
ATOM     19  C   UNL     1      -1.462   9.886  19.012  0.00  0.00    +0.000 C 
ENDBRANCH  11  14
ENDBRANCH   9  11
ENDBRANCH   3   5
BRANCH   2  20
ATOM     20  C   UNL     1       2.565   3.183  21.177  0.00  0.00    +0.000 C 
BRANCH  20  21
ATOM     21  C   UNL     1       3.867   2.554  20.678  0.00  0.00    +0.000 C 
BRANCH  21  22
ATOM     22  N   UNL     1       4.188   2.980  19.322  0.00  0.00    +0.000 N 
ATOM     23  C   UNL     1       5.107   3.970  19.063  0.00  0.00    +0.000 C 
ATOM     24  O   UNL     1       5.713   4.551  19.962  0.00  0.00    +0.000 OA
ATOM     25  H   UNL     1       3.691   2.545  18.553  0.00  0.00    +0.000 HD
BRANCH  23  26
ATOM     26  C   UNL     1       5.432   4.281  17.637  0.00  0.00    +0.000 A 
ATOM     27  C   UNL     1       6.742   4.742  17.398  0.00  0.00    +0.000 A 
ATOM     28  C   UNL     1       7.183   5.045  16.109  0.00  0.00    +0.000 A 
ATOM     29  C   UNL     1       6.315   4.904  15.031  0.00  0.00    +0.000 A 
ATOM     30  C   UNL     1       5.011   4.458  15.249  0.00  0.00    +0.000 A 
ATOM     31  C   UNL     1       4.563   4.150  16.544  0.00  0.00    +0.000 A 
ATOM     32 CL   UNL     1       2.911   3.658  16.680  0.00  0.00    +0.000 Cl
ENDBRANCH  23  26
ENDBRANCH  21  22
ENDBRANCH  20  21
ENDBRANCH   2  20
TORSDOF 7
ENDMDL
MODEL 7
REMARK VINA RESULT:      -7.7      3.782      8.948
REMARK  Name = 
REMARK  7 active torsions:
REMARK  status: ('A' for Active; 'I' for Inactive)
REMARK    1  A    between atoms: C_2  and  C_3
REMARK    2  A    between atoms: C_3  and  C_4
REMARK    3  A    between atoms: C_4  and  N_5
REMARK    4  A    between atoms: C_6  and  C_8
REMARK    5  A    between atoms: N_15  and  C_16
REMARK    6  A    between atoms: C_20  and  S_21
REMARK    7  A    between atoms: S_21  and  N_24
REMARK                            x       y       z     vdW  Elec       q    Type
REMARK                         _______ _______ _______ _____ _____    ______ ____
ROOT
ATOM      1  O   UNL     1       2.499   8.119  17.039  0.00  0.00    +0.000 OA
ATOM      2  C   UNL     1       2.429   8.732  18.100  0.00  0.00    +0.000 C 
ATOM      3  N   UNL     1       2.322   8.167  19.369  0.00  0.00    +0.000 N 
ATOM      4  H   UNL     1       2.254   8.811  20.148  0.00  0.00    +0.000 HD
ENDROOT
BRANCH   3   5
ATOM      5  C   UNL     1       2.262   6.787  19.693  0.00  0.00    +0.000 A 
ATOM      6  C   UNL     1       1.288   6.238  20.533  0.00  0.00    +0.000 A 
ATOM      7  C   UNL     1       1.250   4.862  20.794  0.00  0.00    +0.000 A 
ATOM      8  C   UNL     1       2.200   4.011  20.235  0.00  0.00    +0.000 A 
ATOM      9  C   UNL     1       3.207   4.547  19.431  0.00  0.00    +0.000 A 
ATOM     10  C   UNL     1       3.219   5.927  19.131  0.00  0.00    +0.000 A 
BRANCH   9  11
ATOM     11  S   UNL     1       4.388   3.445  18.668  0.00  0.00    +0.000 S 
ATOM     12  O   UNL     1       5.369   3.101  19.665  0.00  0.00    +0.000 OA
ATOM     13  O   UNL     1       3.625   2.416  17.979  0.00  0.00    +0.000 OA
BRANCH  11  14
ATOM     14  N   UNL     1       5.171   4.411  17.464  0.00  0.00    +0.000 NA
ATOM     15  C   UNL     1       6.573   4.775  17.793  0.00  0.00    +0.000 C 
ATOM     16  C   UNL     1       7.240   5.631  16.725  0.00  0.00    +0.000 C 
ATOM     17  C   UNL     1       7.063   5.034  15.339  0.00  0.00    +0.000 C 
ATOM     18  C   UNL     1       5.578   4.917  15.044  0.00  0.00    +0.000 C 
ATOM     19  C   UNL     1       4.882   4.019  16.062  0.00  0.00    +0.000 C 
ENDBRANCH  11  14
ENDBRANCH   9  11
ENDBRANCH   3   5
BRANCH   2  20
ATOM     20  C   UNL     1       2.516  10.251  18.131  0.00  0.00    +0.000 C 
BRANCH  20  21
ATOM     21  C   UNL     1       1.391  10.863  18.967  0.00  0.00    +0.000 C 
BRANCH  21  22
ATOM     22  N   UNL     1       0.158  10.993  18.201  0.00  0.00    +0.000 N 
ATOM     23  C   UNL     1      -1.034  10.461  18.635  0.00  0.00    +0.000 C 
ATOM     24  O   UNL     1      -1.128   9.848  19.696  0.00  0.00    +0.000 OA
ATOM     25  H   UNL     1       0.197  11.469  17.307  0.00  0.00    +0.000 HD
BRANCH  23  26
ATOM     26  C   UNL     1      -2.262  10.719  17.822  0.00  0.00    +0.000 A 
ATOM     27  C   UNL     1      -2.290  10.106  16.553  0.00  0.00    +0.000 A 
ATOM     28  C   UNL     1      -3.387  10.245  15.702  0.00  0.00    +0.000 A 
ATOM     29  C   UNL     1      -4.477  11.012  16.100  0.00  0.00    +0.000 A 
ATOM     30  C   UNL     1      -4.465  11.635  17.349  0.00  0.00    +0.000 A 
ATOM     31  C   UNL     1      -3.363  11.496  18.209  0.00  0.00    +0.000 A 
ATOM     32 CL   UNL     1      -3.454  12.360  19.705  0.00  0.00    +0.000 Cl
ENDBRANCH  23  26
ENDBRANCH  21  22
ENDBRANCH  20  21
ENDBRANCH   2  20
TORSDOF 7
ENDMDL
MODEL 8
REMARK VINA RESULT:      -7.7      4.273      6.116
REMARK  Name = 
REMARK  7 active torsions:
REMARK  status: ('A' for Active; 'I' for Inactive)
REMARK    1  A    between atoms: C_2  and  C_3
REMARK    2  A    between atoms: C_3  and  C_4
REMARK    3  A    between atoms: C_4  and  N_5
REMARK    4  A    between atoms: C_6  and  C_8
REMARK    5  A    between atoms: N_15  and  C_16
REMARK    6  A    between atoms: C_20  and  S_21
REMARK    7  A    between atoms: S_21  and  N_24
REMARK                            x       y       z     vdW  Elec       q    Type
REMARK                         _______ _______ _______ _____ _____    ______ ____
ROOT
ATOM      1  O   UNL     1       1.437   8.680  20.162  0.00  0.00    +0.000 OA
ATOM      2  C   UNL     1       1.035   9.488  19.331  0.00  0.00    +0.000 C 
ATOM      3  N   UNL     1       0.110  10.505  19.556  0.00  0.00    +0.000 N 
ATOM      4  H   UNL     1      -0.135  11.081  18.759  0.00  0.00    +0.000 HD
ENDROOT
BRANCH   3   5
ATOM      5  C   UNL     1      -0.558  10.807  20.771  0.00  0.00    +0.000 A 
ATOM      6  C   UNL     1      -0.290  10.152  21.977  0.00  0.00    +0.000 A 
ATOM      7  C   UNL     1      -0.952  10.510  23.158  0.00  0.00    +0.000 A 
ATOM      8  C   UNL     1      -1.911  11.520  23.151  0.00  0.00    +0.000 A 
ATOM      9  C   UNL     1      -2.225  12.155  21.949  0.00  0.00    +0.000 A 
ATOM     10  C   UNL     1      -1.526  11.824  20.766  0.00  0.00    +0.000 A 
BRANCH   9  11
ATOM     11  S   UNL     1      -3.413  13.489  21.954  0.00  0.00    +0.000 S 
ATOM     12  O   UNL     1      -3.080  14.364  23.049  0.00  0.00    +0.000 OA
ATOM     13  O   UNL     1      -3.493  13.991  20.590  0.00  0.00    +0.000 OA
BRANCH  11  14
ATOM     14  N   UNL     1      -4.922  12.727  22.321  0.00  0.00    +0.000 NA
ATOM     15  C   UNL     1      -5.530  13.169  23.603  0.00  0.00    +0.000 C 
ATOM     16  C   UNL     1      -6.853  12.480  23.910  0.00  0.00    +0.000 C 
ATOM     17  C   UNL     1      -7.801  12.534  22.724  0.00  0.00    +0.000 C 
ATOM     18  C   UNL     1      -7.137  11.854  21.539  0.00  0.00    +0.000 C 
ATOM     19  C   UNL     1      -5.832  12.550  21.163  0.00  0.00    +0.000 C 
ENDBRANCH  11  14
ENDBRANCH   9  11
ENDBRANCH   3   5
BRANCH   2  20
ATOM     20  C   UNL     1       1.585   9.490  17.912  0.00  0.00    +0.000 C 
BRANCH  20  21
ATOM     21  C   UNL     1       2.709   8.467  17.742  0.00  0.00    +0.000 C 
BRANCH  21  22
ATOM     22  N   UNL     1       2.237   7.105  17.953  0.00  0.00    +0.000 N 
ATOM     23  C   UNL     1       3.098   6.060  18.196  0.00  0.00    +0.000 C 
ATOM     24  O   UNL     1       4.316   6.216  18.251  0.00  0.00    +0.000 OA
ATOM     25  H   UNL     1       1.240   6.927  17.889  0.00  0.00    +0.000 HD
BRANCH  23  26
ATOM     26  C   UNL     1       2.515   4.713  18.483  0.00  0.00    +0.000 A 
ATOM     27  C   UNL     1       2.717   3.738  17.486  0.00  0.00    +0.000 A 
ATOM     28  C   UNL     1       2.245   2.433  17.639  0.00  0.00    +0.000 A 
ATOM     29  C   UNL     1       1.548   2.080  18.790  0.00  0.00    +0.000 A 
ATOM     30  C   UNL     1       1.330   3.035  19.784  0.00  0.00    +0.000 A 
ATOM     31  C   UNL     1       1.804   4.349  19.636  0.00  0.00    +0.000 A 
ATOM     32 CL   UNL     1       1.421   5.444  20.918  0.00  0.00    +0.000 Cl
ENDBRANCH  23  26
ENDBRANCH  21  22
ENDBRANCH  20  21
ENDBRANCH   2  20
TORSDOF 7
ENDMDL
MODEL 9
REMARK VINA RESULT:      -7.7      2.609      3.613
REMARK  Name = 
REMARK  7 active torsions:
REMARK  status: ('A' for Active; 'I' for Inactive)
REMARK    1  A    between atoms: C_2  and  C_3
REMARK    2  A    between atoms: C_3  and  C_4
REMARK    3  A    between atoms: C_4  and  N_5
REMARK    4  A    between atoms: C_6  and  C_8
REMARK    5  A    between atoms: N_15  and  C_16
REMARK    6  A    between atoms: C_20  and  S_21
REMARK    7  A    between atoms: S_21  and  N_24
REMARK                            x       y       z     vdW  Elec       q    Type
REMARK                         _______ _______ _______ _____ _____    ______ ____
ROOT
ATOM      1  O   UNL     1       2.075   8.074  19.294  0.00  0.00    +0.000 OA
ATOM      2  C   UNL     1       1.898   7.339  20.261  0.00  0.00    +0.000 C 
ATOM      3  N   UNL     1       1.133   7.636  21.387  0.00  0.00    +0.000 N 
ATOM      4  H   UNL     1       1.100   6.930  22.112  0.00  0.00    +0.000 HD
ENDROOT
BRANCH   3   5
ATOM      5  C   UNL     1       0.421   8.834  21.651  0.00  0.00    +0.000 A 
ATOM      6  C   UNL     1       0.038   9.233  22.936  0.00  0.00    +0.000 A 
ATOM      7  C   UNL     1      -0.634  10.443  23.147  0.00  0.00    +0.000 A 
ATOM      8  C   UNL     1      -0.955  11.270  22.074  0.00  0.00    +0.000 A 
ATOM      9  C   UNL     1      -0.621  10.868  20.780  0.00  0.00    +0.000 A 
ATOM     10  C   UNL     1       0.095   9.670  20.569  0.00  0.00    +0.000 A 
BRANCH   9  11
ATOM     11  S   UNL     1      -0.981  11.959  19.411  0.00  0.00    +0.000 S 
ATOM     12  O   UNL     1      -1.545  13.168  19.954  0.00  0.00    +0.000 OA
ATOM     13  O   UNL     1       0.208  11.995  18.574  0.00  0.00    +0.000 OA
BRANCH  11  14
ATOM     14  N   UNL     1      -2.223  11.146  18.522  0.00  0.00    +0.000 NA
ATOM     15  C   UNL     1      -3.547  11.820  18.572  0.00  0.00    +0.000 C 
ATOM     16  C   UNL     1      -4.627  11.084  17.790  0.00  0.00    +0.000 C 
ATOM     17  C   UNL     1      -4.162  10.735  16.386  0.00  0.00    +0.000 C 
ATOM     18  C   UNL     1      -2.923   9.863  16.486  0.00  0.00    +0.000 C 
ATOM     19  C   UNL     1      -1.795  10.587  17.216  0.00  0.00    +0.000 C 
ENDBRANCH  11  14
ENDBRANCH   9  11
ENDBRANCH   3   5
BRANCH   2  20
ATOM     20  C   UNL     1       2.483   5.935  20.294  0.00  0.00    +0.000 C 
BRANCH  20  21
ATOM     21  C   UNL     1       2.162   5.160  19.015  0.00  0.00    +0.000 C 
BRANCH  21  22
ATOM     22  N   UNL     1       3.231   5.273  18.032  0.00  0.00    +0.000 N 
ATOM     23  C   UNL     1       4.286   4.390  17.992  0.00  0.00    +0.000 C 
ATOM     24  O   UNL     1       4.385   3.454  18.781  0.00  0.00    +0.000 OA
ATOM     25  H   UNL     1       3.202   6.047  17.378  0.00  0.00    +0.000 HD
BRANCH  23  26
ATOM     26  C   UNL     1       5.291   4.537  16.894  0.00  0.00    +0.000 A 
ATOM     27  C   UNL     1       4.841   4.180  15.607  0.00  0.00    +0.000 A 
ATOM     28  C   UNL     1       5.671   4.292  14.490  0.00  0.00    +0.000 A 
ATOM     29  C   UNL     1       6.975   4.753  14.640  0.00  0.00    +0.000 A 
ATOM     30  C   UNL     1       7.441   5.102  15.909  0.00  0.00    +0.000 A 
ATOM     31  C   UNL     1       6.610   4.993  17.036  0.00  0.00    +0.000 A 
ATOM     32 CL   UNL     1       7.328   5.409  18.553  0.00  0.00    +0.000 Cl
ENDBRANCH  23  26
ENDBRANCH  21  22
ENDBRANCH  20  21
ENDBRANCH   2  20
TORSDOF 7
ENDMDL
