MODEL 1
REMARK VINA RESULT:      -7.0      0.000      0.000
REMARK  Name = 
REMARK  16 active torsions:
REMARK  status: ('A' for Active; 'I' for Inactive)
REMARK    1  A    between atoms: C_1  and  C_2
REMARK    2  A    between atoms: C_2  and  N_3
REMARK    3  A    between atoms: N_3  and  C_4
REMARK    4  A    between atoms: N_3  and  C_6
REMARK    5  A    between atoms: C_4  and  C_5
REMARK    6  A    between atoms: C_6  and  C_7
REMARK    7  A    between atoms: C_7  and  C_8
REMARK    8  A    between atoms: C_8  and  C_9
REMARK    9  A    between atoms: C_9  and  C_10
REMARK   10  A    between atoms: C_10  and  O_11
REMARK   11  A    between atoms: O_11  and  C_12
REMARK   12  A    between atoms: C_13  and  C_14
REMARK   13  A    between atoms: C_17  and  O_18
REMARK   14  A    between atoms: O_18  and  C_19
REMARK   15  A    between atoms: C_20  and  O_21
REMARK   16  A    between atoms: O_21  and  C_22
REMARK                            x       y       z     vdW  Elec       q    Type
REMARK                         _______ _______ _______ _____ _____    ______ ____
ROOT
ATOM      1  C   UNL     1       6.859   5.284  15.715  0.00  0.00    +0.000 A 
ATOM      2  C   UNL     1       5.631   4.741  15.865  0.00  0.00    +0.000 A 
ATOM      3  O   UNL     1       4.974   3.991  14.900  0.00  0.00    +0.000 OA
ATOM      4  C   UNL     1       5.590   3.780  13.697  0.00  0.00    +0.000 A 
ATOM      5  C   UNL     1       4.930   2.969  12.772  0.00  0.00    +0.000 A 
ATOM      6  C   UNL     1       5.492   2.749  11.512  0.00  0.00    +0.000 A 
ATOM      7  C   UNL     1       6.712   3.336  11.176  0.00  0.00    +0.000 A 
ATOM      8  C   UNL     1       7.374   4.139  12.105  0.00  0.00    +0.000 A 
ATOM      9  C   UNL     1       6.810   4.352  13.367  0.00  0.00    +0.000 A 
ATOM     10  C   UNL     1       7.488   5.196  14.361  0.00  0.00    +0.000 A 
ATOM     11  O   UNL     1       8.506   5.803  14.046  0.00  0.00    +0.000 OA
ENDROOT
BRANCH   2  12
ATOM     12  C   UNL     1       4.830   4.895  17.108  0.00  0.00    +0.000 A 
ATOM     13  C   UNL     1       5.073   4.108  18.240  0.00  0.00    +0.000 A 
ATOM     14  C   UNL     1       4.326   4.286  19.405  0.00  0.00    +0.000 A 
ATOM     15  C   UNL     1       3.337   5.271  19.489  0.00  0.00    +0.000 A 
ATOM     16  C   UNL     1       3.088   6.089  18.373  0.00  0.00    +0.000 A 
ATOM     17  C   UNL     1       3.843   5.891  17.200  0.00  0.00    +0.000 A 
BRANCH  15  18
ATOM     18  O   UNL     1       2.735   5.283  20.721  0.00  0.00    +0.000 OA
ATOM     19  C   UNL     1       1.688   4.365  20.990  0.00  0.00    +0.000 C 
ENDBRANCH  15  18
BRANCH  16  20
ATOM     20  O   UNL     1       2.115   7.048  18.477  0.00  0.00    +0.000 OA
ATOM     21  C   UNL     1       2.432   8.377  18.088  0.00  0.00    +0.000 C 
ENDBRANCH  16  20
ENDBRANCH   2  12
BRANCH   1  22
ATOM     22  O   UNL     1       7.450   5.963  16.765  0.00  0.00    +0.000 OA
BRANCH  22  23
ATOM     23  C   UNL     1       7.142   7.336  16.986  0.00  0.00    +0.000 C 
BRANCH  23  24
ATOM     24  C   UNL     1       7.983   7.841  18.155  0.00  0.00    +0.000 C 
BRANCH  24  25
ATOM     25  C   UNL     1       8.248   9.348  18.042  0.00  0.00    +0.000 C 
BRANCH  25  26
ATOM     26  C   UNL     1       9.322   9.797  19.032  0.00  0.00    +0.000 C 
BRANCH  26  27
ATOM     27  C   UNL     1       9.389  11.325  19.201  0.00  0.00    +0.000 C 
BRANCH  27  28
ATOM     28  N   UNL     1       9.640  12.088  17.962  0.00  0.00    +0.000 NA
BRANCH  28  30
ATOM     29  C   UNL     1       8.462  13.874  19.299  0.00  0.00    +0.000 C 
ATOM     30  C   UNL     1       8.899  13.358  17.930  0.00  0.00    +0.000 C 
ENDBRANCH  28  30
BRANCH  28  31
ATOM     31  C   UNL     1      11.084  12.223  17.701  0.00  0.00    +0.000 C 
ATOM     32  C   UNL     1      11.493  13.309  16.709  0.00  0.00    +0.000 C 
ENDBRANCH  28  31
ENDBRANCH  27  28
ENDBRANCH  26  27
ENDBRANCH  25  26
ENDBRANCH  24  25
ENDBRANCH  23  24
ENDBRANCH  22  23
ENDBRANCH   1  22
TORSDOF 12
ENDMDL
MODEL 2
REMARK VINA RESULT:      -6.8      3.021      4.905
REMARK  Name = 
REMARK  16 active torsions:
REMARK  status: ('A' for Active; 'I' for Inactive)
REMARK    1  A    between atoms: C_1  and  C_2
REMARK    2  A    between atoms: C_2  and  N_3
REMARK    3  A    between atoms: N_3  and  C_4
REMARK    4  A    between atoms: N_3  and  C_6
REMARK    5  A    between atoms: C_4  and  C_5
REMARK    6  A    between atoms: C_6  and  C_7
REMARK    7  A    between atoms: C_7  and  C_8
REMARK    8  A    between atoms: C_8  and  C_9
REMARK    9  A    between atoms: C_9  and  C_10
REMARK   10  A    between atoms: C_10  and  O_11
REMARK   11  A    between atoms: O_11  and  C_12
REMARK   12  A    between atoms: C_13  and  C_14
REMARK   13  A    between atoms: C_17  and  O_18
REMARK   14  A    between atoms: O_18  and  C_19
REMARK   15  A    between atoms: C_20  and  O_21
REMARK   16  A    between atoms: O_21  and  C_22
REMARK                            x       y       z     vdW  Elec       q    Type
REMARK                         _______ _______ _______ _____ _____    ______ ____
ROOT
ATOM      1  C   UNL     1       4.164   6.160  18.103  0.00  0.00    +0.000 A 
ATOM      2  C   UNL     1       2.900   6.403  18.516  0.00  0.00    +0.000 A 
ATOM      3  O   UNL     1       1.966   5.424  18.821  0.00  0.00    +0.000 OA
ATOM      4  C   UNL     1       2.322   4.109  18.694  0.00  0.00    +0.000 A 
ATOM      5  C   UNL     1       1.380   3.150  19.069  0.00  0.00    +0.000 A 
ATOM      6  C   UNL     1       1.672   1.792  18.926  0.00  0.00    +0.000 A 
ATOM      7  C   UNL     1       2.905   1.391  18.410  0.00  0.00    +0.000 A 
ATOM      8  C   UNL     1       3.849   2.351  18.044  0.00  0.00    +0.000 A 
ATOM      9  C   UNL     1       3.553   3.710  18.194  0.00  0.00    +0.000 A 
ATOM     10  C   UNL     1       4.531   4.739  17.813  0.00  0.00    +0.000 A 
ATOM     11  O   UNL     1       5.575   4.407  17.262  0.00  0.00    +0.000 OA
ENDROOT
BRANCH   2  12
ATOM     12  C   UNL     1       2.361   7.778  18.687  0.00  0.00    +0.000 A 
ATOM     13  C   UNL     1       2.387   8.711  17.644  0.00  0.00    +0.000 A 
ATOM     14  C   UNL     1       1.853   9.989  17.819  0.00  0.00    +0.000 A 
ATOM     15  C   UNL     1       1.252  10.366  19.024  0.00  0.00    +0.000 A 
ATOM     16  C   UNL     1       1.195   9.440  20.080  0.00  0.00    +0.000 A 
ATOM     17  C   UNL     1       1.748   8.156  19.893  0.00  0.00    +0.000 A 
BRANCH  15  18
ATOM     18  O   UNL     1       0.785  11.653  18.978  0.00  0.00    +0.000 OA
ATOM     19  C   UNL     1      -0.564  11.888  18.608  0.00  0.00    +0.000 C 
ENDBRANCH  15  18
BRANCH  16  20
ATOM     20  O   UNL     1       0.602   9.829  21.252  0.00  0.00    +0.000 OA
ATOM     21  C   UNL     1       1.011   9.199  22.458  0.00  0.00    +0.000 C 
ENDBRANCH  16  20
ENDBRANCH   2  12
BRANCH   1  22
ATOM     22  O   UNL     1       5.036   7.210  17.885  0.00  0.00    +0.000 OA
BRANCH  22  23
ATOM     23  C   UNL     1       6.161   7.033  17.029  0.00  0.00    +0.000 C 
BRANCH  23  24
ATOM     24  C   UNL     1       7.426   7.382  17.809  0.00  0.00    +0.000 C 
BRANCH  24  25
ATOM     25  C   UNL     1       7.863   8.828  17.546  0.00  0.00    +0.000 C 
BRANCH  25  26
ATOM     26  C   UNL     1       8.732   9.360  18.685  0.00  0.00    +0.000 C 
BRANCH  26  27
ATOM     27  C   UNL     1       9.516  10.629  18.307  0.00  0.00    +0.000 C 
BRANCH  27  28
ATOM     28  N   UNL     1       9.146  11.847  19.054  0.00  0.00    +0.000 NA
BRANCH  28  30
ATOM     29  C   UNL     1      11.057  13.067  20.161  0.00  0.00    +0.000 C 
ATOM     30  C   UNL     1       9.954  12.019  20.272  0.00  0.00    +0.000 C 
ENDBRANCH  28  30
BRANCH  28  31
ATOM     31  C   UNL     1       9.121  13.027  18.173  0.00  0.00    +0.000 C 
ATOM     32  C   UNL     1       7.776  13.366  17.534  0.00  0.00    +0.000 C 
ENDBRANCH  28  31
ENDBRANCH  27  28
ENDBRANCH  26  27
ENDBRANCH  25  26
ENDBRANCH  24  25
ENDBRANCH  23  24
ENDBRANCH  22  23
ENDBRANCH   1  22
TORSDOF 12
ENDMDL
MODEL 3
REMARK VINA RESULT:      -6.8      0.998      1.216
REMARK  Name = 
REMARK  16 active torsions:
REMARK  status: ('A' for Active; 'I' for Inactive)
REMARK    1  A    between atoms: C_1  and  C_2
REMARK    2  A    between atoms: C_2  and  N_3
REMARK    3  A    between atoms: N_3  and  C_4
REMARK    4  A    between atoms: N_3  and  C_6
REMARK    5  A    between atoms: C_4  and  C_5
REMARK    6  A    between atoms: C_6  and  C_7
REMARK    7  A    between atoms: C_7  and  C_8
REMARK    8  A    between atoms: C_8  and  C_9
REMARK    9  A    between atoms: C_9  and  C_10
REMARK   10  A    between atoms: C_10  and  O_11
REMARK   11  A    between atoms: O_11  and  C_12
REMARK   12  A    between atoms: C_13  and  C_14
REMARK   13  A    between atoms: C_17  and  O_18
REMARK   14  A    between atoms: O_18  and  C_19
REMARK   15  A    between atoms: C_20  and  O_21
REMARK   16  A    between atoms: O_21  and  C_22
REMARK                            x       y       z     vdW  Elec       q    Type
REMARK                         _______ _______ _______ _____ _____    ______ ____
ROOT
ATOM      1  C   UNL     1       6.620   5.194  16.165  0.00  0.00    +0.000 A 
ATOM      2  C   UNL     1       5.397   4.621  16.216  0.00  0.00    +0.000 A 
ATOM      3  O   UNL     1       4.791   3.957  15.160  0.00  0.00    +0.000 OA
ATOM      4  C   UNL     1       5.455   3.869  13.967  0.00  0.00    +0.000 A 
ATOM      5  C   UNL     1       4.844   3.139  12.946  0.00  0.00    +0.000 A 
ATOM      6  C   UNL     1       5.456   3.046  11.693  0.00  0.00    +0.000 A 
ATOM      7  C   UNL     1       6.677   3.680  11.461  0.00  0.00    +0.000 A 
ATOM      8  C   UNL     1       7.289   4.401  12.486  0.00  0.00    +0.000 A 
ATOM      9  C   UNL     1       6.675   4.487  13.740  0.00  0.00    +0.000 A 
ATOM     10  C   UNL     1       7.301   5.243  14.834  0.00  0.00    +0.000 A 
ATOM     11  O   UNL     1       8.319   5.892  14.616  0.00  0.00    +0.000 OA
ENDROOT
BRANCH   2  12
ATOM     12  C   UNL     1       4.549   4.647  17.436  0.00  0.00    +0.000 A 
ATOM     13  C   UNL     1       4.739   3.735  18.481  0.00  0.00    +0.000 A 
ATOM     14  C   UNL     1       3.946   3.792  19.629  0.00  0.00    +0.000 A 
ATOM     15  C   UNL     1       2.963   4.774  19.784  0.00  0.00    +0.000 A 
ATOM     16  C   UNL     1       2.766   5.715  18.757  0.00  0.00    +0.000 A 
ATOM     17  C   UNL     1       3.567   5.639  17.599  0.00  0.00    +0.000 A 
BRANCH  15  18
ATOM     18  O   UNL     1       2.313   4.657  20.984  0.00  0.00    +0.000 OA
ATOM     19  C   UNL     1       2.074   3.366  21.520  0.00  0.00    +0.000 C 
ENDBRANCH  15  18
BRANCH  16  20
ATOM     20  O   UNL     1       1.799   6.669  18.930  0.00  0.00    +0.000 OA
ATOM     21  C   UNL     1       2.095   7.792  19.749  0.00  0.00    +0.000 C 
ENDBRANCH  16  20
ENDBRANCH   2  12
BRANCH   1  22
ATOM     22  O   UNL     1       7.159   5.780  17.295  0.00  0.00    +0.000 OA
BRANCH  22  23
ATOM     23  C   UNL     1       6.897   7.151  17.579  0.00  0.00    +0.000 C 
BRANCH  23  24
ATOM     24  C   UNL     1       8.132   7.755  18.245  0.00  0.00    +0.000 C 
BRANCH  24  25
ATOM     25  C   UNL     1       8.334   9.216  17.823  0.00  0.00    +0.000 C 
BRANCH  25  26
ATOM     26  C   UNL     1       9.067  10.007  18.905  0.00  0.00    +0.000 C 
BRANCH  26  27
ATOM     27  C   UNL     1       9.456  11.428  18.458  0.00  0.00    +0.000 C 
BRANCH  27  28
ATOM     28  N   UNL     1       9.539  12.430  19.538  0.00  0.00    +0.000 NA
BRANCH  28  30
ATOM     29  C   UNL     1       9.279  12.370  22.047  0.00  0.00    +0.000 C 
ATOM     30  C   UNL     1       9.996  11.843  20.807  0.00  0.00    +0.000 C 
ENDBRANCH  28  30
BRANCH  28  31
ATOM     31  C   UNL     1      10.301  13.615  19.110  0.00  0.00    +0.000 C 
ATOM     32  C   UNL     1       9.672  14.461  18.006  0.00  0.00    +0.000 C 
ENDBRANCH  28  31
ENDBRANCH  27  28
ENDBRANCH  26  27
ENDBRANCH  25  26
ENDBRANCH  24  25
ENDBRANCH  23  24
ENDBRANCH  22  23
ENDBRANCH   1  22
TORSDOF 12
ENDMDL
MODEL 4
REMARK VINA RESULT:      -6.7      0.928      1.771
REMARK  Name = 
REMARK  16 active torsions:
REMARK  status: ('A' for Active; 'I' for Inactive)
REMARK    1  A    between atoms: C_1  and  C_2
REMARK    2  A    between atoms: C_2  and  N_3
REMARK    3  A    between atoms: N_3  and  C_4
REMARK    4  A    between atoms: N_3  and  C_6
REMARK    5  A    between atoms: C_4  and  C_5
REMARK    6  A    between atoms: C_6  and  C_7
REMARK    7  A    between atoms: C_7  and  C_8
REMARK    8  A    between atoms: C_8  and  C_9
REMARK    9  A    between atoms: C_9  and  C_10
REMARK   10  A    between atoms: C_10  and  O_11
REMARK   11  A    between atoms: O_11  and  C_12
REMARK   12  A    between atoms: C_13  and  C_14
REMARK   13  A    between atoms: C_17  and  O_18
REMARK   14  A    between atoms: O_18  and  C_19
REMARK   15  A    between atoms: C_20  and  O_21
REMARK   16  A    between atoms: O_21  and  C_22
REMARK                            x       y       z     vdW  Elec       q    Type
REMARK                         _______ _______ _______ _____ _____    ______ ____
ROOT
ATOM      1  C   UNL     1       6.625   5.541  16.017  0.00  0.00    +0.000 A 
ATOM      2  C   UNL     1       5.349   5.106  16.108  0.00  0.00    +0.000 A 
ATOM      3  O   UNL     1       4.702   4.344  15.145  0.00  0.00    +0.000 OA
ATOM      4  C   UNL     1       5.383   4.002  14.008  0.00  0.00    +0.000 A 
ATOM      5  C   UNL     1       4.725   3.181  13.090  0.00  0.00    +0.000 A 
ATOM      6  C   UNL     1       5.354   2.830  11.893  0.00  0.00    +0.000 A 
ATOM      7  C   UNL     1       6.639   3.296  11.614  0.00  0.00    +0.000 A 
ATOM      8  C   UNL     1       7.297   4.109  12.538  0.00  0.00    +0.000 A 
ATOM      9  C   UNL     1       6.665   4.453  13.737  0.00  0.00    +0.000 A 
ATOM     10  C   UNL     1       7.339   5.309  14.723  0.00  0.00    +0.000 A 
ATOM     11  O   UNL     1       8.424   5.812  14.447  0.00  0.00    +0.000 OA
ENDROOT
BRANCH   2  12
ATOM     12  C   UNL     1       4.478   5.409  17.274  0.00  0.00    +0.000 A 
ATOM     13  C   UNL     1       3.906   6.673  17.454  0.00  0.00    +0.000 A 
ATOM     14  C   UNL     1       3.071   6.930  18.543  0.00  0.00    +0.000 A 
ATOM     15  C   UNL     1       2.758   5.928  19.467  0.00  0.00    +0.000 A 
ATOM     16  C   UNL     1       3.302   4.643  19.297  0.00  0.00    +0.000 A 
ATOM     17  C   UNL     1       4.152   4.402  18.199  0.00  0.00    +0.000 A 
BRANCH  15  18
ATOM     18  O   UNL     1       1.917   6.387  20.447  0.00  0.00    +0.000 OA
ATOM     19  C   UNL     1       1.646   7.776  20.534  0.00  0.00    +0.000 C 
ENDBRANCH  15  18
BRANCH  16  20
ATOM     20  O   UNL     1       2.982   3.677  20.214  0.00  0.00    +0.000 OA
ATOM     21  C   UNL     1       2.869   2.333  19.767  0.00  0.00    +0.000 C 
ENDBRANCH  16  20
ENDBRANCH   2  12
BRANCH   1  22
ATOM     22  O   UNL     1       7.194   6.243  17.063  0.00  0.00    +0.000 OA
BRANCH  22  23
ATOM     23  C   UNL     1       7.378   7.652  16.955  0.00  0.00    +0.000 C 
BRANCH  23  24
ATOM     24  C   UNL     1       8.151   8.137  18.180  0.00  0.00    +0.000 C 
BRANCH  24  25
ATOM     25  C   UNL     1       8.326   9.661  18.161  0.00  0.00    +0.000 C 
BRANCH  25  26
ATOM     26  C   UNL     1       9.544  10.088  18.978  0.00  0.00    +0.000 C 
BRANCH  26  27
ATOM     27  C   UNL     1       9.441  11.529  19.510  0.00  0.00    +0.000 C 
BRANCH  27  28
ATOM     28  N   UNL     1       9.687  12.589  18.514  0.00  0.00    +0.000 NA
BRANCH  28  30
ATOM     29  C   UNL     1       8.108  14.540  18.769  0.00  0.00    +0.000 C 
ATOM     30  C   UNL     1       9.476  13.935  19.070  0.00  0.00    +0.000 C 
ENDBRANCH  28  30
BRANCH  28  31
ATOM     31  C   UNL     1      10.988  12.406  17.848  0.00  0.00    +0.000 C 
ATOM     32  C   UNL     1      11.351  13.433  16.778  0.00  0.00    +0.000 C 
ENDBRANCH  28  31
ENDBRANCH  27  28
ENDBRANCH  26  27
ENDBRANCH  25  26
ENDBRANCH  24  25
ENDBRANCH  23  24
ENDBRANCH  22  23
ENDBRANCH   1  22
TORSDOF 12
ENDMDL
MODEL 5
REMARK VINA RESULT:      -6.7      3.049      4.907
REMARK  Name = 
REMARK  16 active torsions:
REMARK  status: ('A' for Active; 'I' for Inactive)
REMARK    1  A    between atoms: C_1  and  C_2
REMARK    2  A    between atoms: C_2  and  N_3
REMARK    3  A    between atoms: N_3  and  C_4
REMARK    4  A    between atoms: N_3  and  C_6
REMARK    5  A    between atoms: C_4  and  C_5
REMARK    6  A    between atoms: C_6  and  C_7
REMARK    7  A    between atoms: C_7  and  C_8
REMARK    8  A    between atoms: C_8  and  C_9
REMARK    9  A    between atoms: C_9  and  C_10
REMARK   10  A    between atoms: C_10  and  O_11
REMARK   11  A    between atoms: O_11  and  C_12
REMARK   12  A    between atoms: C_13  and  C_14
REMARK   13  A    between atoms: C_17  and  O_18
REMARK   14  A    between atoms: O_18  and  C_19
REMARK   15  A    between atoms: C_20  and  O_21
REMARK   16  A    between atoms: O_21  and  C_22
REMARK                            x       y       z     vdW  Elec       q    Type
REMARK                         _______ _______ _______ _____ _____    ______ ____
ROOT
ATOM      1  C   UNL     1       4.051   6.075  17.924  0.00  0.00    +0.000 A 
ATOM      2  C   UNL     1       2.839   6.350  18.453  0.00  0.00    +0.000 A 
ATOM      3  O   UNL     1       1.917   5.395  18.858  0.00  0.00    +0.000 OA
ATOM      4  C   UNL     1       2.232   4.072  18.712  0.00  0.00    +0.000 A 
ATOM      5  C   UNL     1       1.310   3.137  19.187  0.00  0.00    +0.000 A 
ATOM      6  C   UNL     1       1.558   1.771  19.032  0.00  0.00    +0.000 A 
ATOM      7  C   UNL     1       2.726   1.339  18.404  0.00  0.00    +0.000 A 
ATOM      8  C   UNL     1       3.650   2.274  17.938  0.00  0.00    +0.000 A 
ATOM      9  C   UNL     1       3.400   3.640  18.101  0.00  0.00    +0.000 A 
ATOM     10  C   UNL     1       4.358   4.644  17.615  0.00  0.00    +0.000 A 
ATOM     11  O   UNL     1       5.336   4.283  16.970  0.00  0.00    +0.000 OA
ENDROOT
BRANCH   2  12
ATOM     12  C   UNL     1       2.348   7.738  18.659  0.00  0.00    +0.000 A 
ATOM     13  C   UNL     1       2.353   8.680  17.624  0.00  0.00    +0.000 A 
ATOM     14  C   UNL     1       1.865   9.971  17.833  0.00  0.00    +0.000 A 
ATOM     15  C   UNL     1       1.332  10.354  19.068  0.00  0.00    +0.000 A 
ATOM     16  C   UNL     1       1.296   9.420  20.118  0.00  0.00    +0.000 A 
ATOM     17  C   UNL     1       1.802   8.123  19.896  0.00  0.00    +0.000 A 
BRANCH  15  18
ATOM     18  O   UNL     1       0.901  11.654  19.054  0.00  0.00    +0.000 OA
ATOM     19  C   UNL     1      -0.465  11.929  18.787  0.00  0.00    +0.000 C 
ENDBRANCH  15  18
BRANCH  16  20
ATOM     20  O   UNL     1       0.769   9.816  21.319  0.00  0.00    +0.000 OA
ATOM     21  C   UNL     1      -0.222   8.997  21.924  0.00  0.00    +0.000 C 
ENDBRANCH  16  20
ENDBRANCH   2  12
BRANCH   1  22
ATOM     22  O   UNL     1       4.921   7.104  17.610  0.00  0.00    +0.000 OA
BRANCH  22  23
ATOM     23  C   UNL     1       6.322   6.856  17.552  0.00  0.00    +0.000 C 
BRANCH  23  24
ATOM     24  C   UNL     1       7.032   8.156  17.179  0.00  0.00    +0.000 C 
BRANCH  24  25
ATOM     25  C   UNL     1       8.214   8.435  18.116  0.00  0.00    +0.000 C 
BRANCH  25  26
ATOM     26  C   UNL     1       8.515   9.930  18.196  0.00  0.00    +0.000 C 
BRANCH  26  27
ATOM     27  C   UNL     1       9.370  10.311  19.418  0.00  0.00    +0.000 C 
BRANCH  27  28
ATOM     28  N   UNL     1       9.569  11.759  19.623  0.00  0.00    +0.000 NA
BRANCH  28  30
ATOM     29  C   UNL     1       8.965  12.257  22.021  0.00  0.00    +0.000 C 
ATOM     30  C   UNL     1      10.060  12.067  20.975  0.00  0.00    +0.000 C 
ENDBRANCH  28  30
BRANCH  28  31
ATOM     31  C   UNL     1      10.374  12.347  18.538  0.00  0.00    +0.000 C 
ATOM     32  C   UNL     1      11.736  11.705  18.283  0.00  0.00    +0.000 C 
ENDBRANCH  28  31
ENDBRANCH  27  28
ENDBRANCH  26  27
ENDBRANCH  25  26
ENDBRANCH  24  25
ENDBRANCH  23  24
ENDBRANCH  22  23
ENDBRANCH   1  22
TORSDOF 12
ENDMDL
MODEL 6
REMARK VINA RESULT:      -6.7      1.200      1.985
REMARK  Name = 
REMARK  16 active torsions:
REMARK  status: ('A' for Active; 'I' for Inactive)
REMARK    1  A    between atoms: C_1  and  C_2
REMARK    2  A    between atoms: C_2  and  N_3
REMARK    3  A    between atoms: N_3  and  C_4
REMARK    4  A    between atoms: N_3  and  C_6
REMARK    5  A    between atoms: C_4  and  C_5
REMARK    6  A    between atoms: C_6  and  C_7
REMARK    7  A    between atoms: C_7  and  C_8
REMARK    8  A    between atoms: C_8  and  C_9
REMARK    9  A    between atoms: C_9  and  C_10
REMARK   10  A    between atoms: C_10  and  O_11
REMARK   11  A    between atoms: O_11  and  C_12
REMARK   12  A    between atoms: C_13  and  C_14
REMARK   13  A    between atoms: C_17  and  O_18
REMARK   14  A    between atoms: O_18  and  C_19
REMARK   15  A    between atoms: C_20  and  O_21
REMARK   16  A    between atoms: O_21  and  C_22
REMARK                            x       y       z     vdW  Elec       q    Type
REMARK                         _______ _______ _______ _____ _____    ______ ____
ROOT
ATOM      1  C   UNL     1       6.753   5.640  15.396  0.00  0.00    +0.000 A 
ATOM      2  C   UNL     1       5.484   5.200  15.551  0.00  0.00    +0.000 A 
ATOM      3  O   UNL     1       4.835   4.338  14.679  0.00  0.00    +0.000 OA
ATOM      4  C   UNL     1       5.503   3.893  13.571  0.00  0.00    +0.000 A 
ATOM      5  C   UNL     1       4.843   2.977  12.749  0.00  0.00    +0.000 A 
ATOM      6  C   UNL     1       5.458   2.517  11.583  0.00  0.00    +0.000 A 
ATOM      7  C   UNL     1       6.732   2.970  11.238  0.00  0.00    +0.000 A 
ATOM      8  C   UNL     1       7.393   3.878  12.065  0.00  0.00    +0.000 A 
ATOM      9  C   UNL     1       6.774   4.332  13.234  0.00  0.00    +0.000 A 
ATOM     10  C   UNL     1       7.451   5.291  14.119  0.00  0.00    +0.000 A 
ATOM     11  O   UNL     1       8.523   5.777  13.778  0.00  0.00    +0.000 OA
ENDROOT
BRANCH   2  12
ATOM     12  C   UNL     1       4.627   5.606  16.695  0.00  0.00    +0.000 A 
ATOM     13  C   UNL     1       4.332   6.950  16.951  0.00  0.00    +0.000 A 
ATOM     14  C   UNL     1       3.505   7.308  18.017  0.00  0.00    +0.000 A 
ATOM     15  C   UNL     1       2.924   6.339  18.840  0.00  0.00    +0.000 A 
ATOM     16  C   UNL     1       3.187   4.980  18.592  0.00  0.00    +0.000 A 
ATOM     17  C   UNL     1       4.033   4.634  17.519  0.00  0.00    +0.000 A 
BRANCH  15  18
ATOM     18  O   UNL     1       2.141   6.902  19.814  0.00  0.00    +0.000 OA
ATOM     19  C   UNL     1       1.743   8.258  19.685  0.00  0.00    +0.000 C 
ENDBRANCH  15  18
BRANCH  16  20
ATOM     20  O   UNL     1       2.607   4.047  19.410  0.00  0.00    +0.000 OA
ATOM     21  C   UNL     1       3.447   3.104  20.061  0.00  0.00    +0.000 C 
ENDBRANCH  16  20
ENDBRANCH   2  12
BRANCH   1  22
ATOM     22  O   UNL     1       7.328   6.451  16.357  0.00  0.00    +0.000 OA
BRANCH  22  23
ATOM     23  C   UNL     1       7.625   5.922  17.646  0.00  0.00    +0.000 C 
BRANCH  23  24
ATOM     24  C   UNL     1       8.065   7.069  18.553  0.00  0.00    +0.000 C 
BRANCH  24  25
ATOM     25  C   UNL     1       7.822   8.430  17.889  0.00  0.00    +0.000 C 
BRANCH  25  26
ATOM     26  C   UNL     1       8.977   9.393  18.160  0.00  0.00    +0.000 C 
BRANCH  26  27
ATOM     27  C   UNL     1       8.711  10.340  19.343  0.00  0.00    +0.000 C 
BRANCH  27  28
ATOM     28  N   UNL     1       9.452  11.617  19.309  0.00  0.00    +0.000 NA
BRANCH  28  30
ATOM     29  C   UNL     1       9.840  12.731  21.539  0.00  0.00    +0.000 C 
ATOM     30  C   UNL     1      10.347  11.771  20.467  0.00  0.00    +0.000 C 
ENDBRANCH  28  30
BRANCH  28  31
ATOM     31  C   UNL     1      10.107  11.820  18.006  0.00  0.00    +0.000 C 
ATOM     32  C   UNL     1      11.634  11.813  18.008  0.00  0.00    +0.000 C 
ENDBRANCH  28  31
ENDBRANCH  27  28
ENDBRANCH  26  27
ENDBRANCH  25  26
ENDBRANCH  24  25
ENDBRANCH  23  24
ENDBRANCH  22  23
ENDBRANCH   1  22
TORSDOF 12
ENDMDL
MODEL 7
REMARK VINA RESULT:      -6.7      3.081      5.004
REMARK  Name = 
REMARK  16 active torsions:
REMARK  status: ('A' for Active; 'I' for Inactive)
REMARK    1  A    between atoms: C_1  and  C_2
REMARK    2  A    between atoms: C_2  and  N_3
REMARK    3  A    between atoms: N_3  and  C_4
REMARK    4  A    between atoms: N_3  and  C_6
REMARK    5  A    between atoms: C_4  and  C_5
REMARK    6  A    between atoms: C_6  and  C_7
REMARK    7  A    between atoms: C_7  and  C_8
REMARK    8  A    between atoms: C_8  and  C_9
REMARK    9  A    between atoms: C_9  and  C_10
REMARK   10  A    between atoms: C_10  and  O_11
REMARK   11  A    between atoms: O_11  and  C_12
REMARK   12  A    between atoms: C_13  and  C_14
REMARK   13  A    between atoms: C_17  and  O_18
REMARK   14  A    between atoms: O_18  and  C_19
REMARK   15  A    between atoms: C_20  and  O_21
REMARK   16  A    between atoms: O_21  and  C_22
REMARK                            x       y       z     vdW  Elec       q    Type
REMARK                         _______ _______ _______ _____ _____    ______ ____
ROOT
ATOM      1  C   UNL     1       4.175   6.044  18.254  0.00  0.00    +0.000 A 
ATOM      2  C   UNL     1       2.884   6.308  18.557  0.00  0.00    +0.000 A 
ATOM      3  O   UNL     1       1.915   5.344  18.794  0.00  0.00    +0.000 OA
ATOM      4  C   UNL     1       2.263   4.023  18.712  0.00  0.00    +0.000 A 
ATOM      5  C   UNL     1       1.280   3.081  19.017  0.00  0.00    +0.000 A 
ATOM      6  C   UNL     1       1.565   1.717  18.913  0.00  0.00    +0.000 A 
ATOM      7  C   UNL     1       2.831   1.296  18.506  0.00  0.00    +0.000 A 
ATOM      8  C   UNL     1       3.815   2.239  18.209  0.00  0.00    +0.000 A 
ATOM      9  C   UNL     1       3.526   3.603  18.320  0.00  0.00    +0.000 A 
ATOM     10  C   UNL     1       4.545   4.616  18.010  0.00  0.00    +0.000 A 
ATOM     11  O   UNL     1       5.627   4.264  17.551  0.00  0.00    +0.000 OA
ENDROOT
BRANCH   2  12
ATOM     12  C   UNL     1       2.352   7.691  18.669  0.00  0.00    +0.000 A 
ATOM     13  C   UNL     1       2.435   8.597  17.605  0.00  0.00    +0.000 A 
ATOM     14  C   UNL     1       1.906   9.884  17.722  0.00  0.00    +0.000 A 
ATOM     15  C   UNL     1       1.254  10.296  18.888  0.00  0.00    +0.000 A 
ATOM     16  C   UNL     1       1.138   9.398  19.964  0.00  0.00    +0.000 A 
ATOM     17  C   UNL     1       1.686   8.106  19.835  0.00  0.00    +0.000 A 
BRANCH  15  18
ATOM     18  O   UNL     1       0.802  11.586  18.788  0.00  0.00    +0.000 OA
ATOM     19  C   UNL     1       1.712  12.656  18.985  0.00  0.00    +0.000 C 
ENDBRANCH  15  18
BRANCH  16  20
ATOM     20  O   UNL     1       0.495   9.822  21.096  0.00  0.00    +0.000 OA
ATOM     21  C   UNL     1       0.977   9.373  22.355  0.00  0.00    +0.000 C 
ENDBRANCH  16  20
ENDBRANCH   2  12
BRANCH   1  22
ATOM     22  O   UNL     1       5.076   7.081  18.098  0.00  0.00    +0.000 OA
BRANCH  22  23
ATOM     23  C   UNL     1       6.070   7.010  17.080  0.00  0.00    +0.000 C 
BRANCH  23  24
ATOM     24  C   UNL     1       7.429   7.317  17.704  0.00  0.00    +0.000 C 
BRANCH  24  25
ATOM     25  C   UNL     1       7.853   8.766  17.434  0.00  0.00    +0.000 C 
BRANCH  25  26
ATOM     26  C   UNL     1       8.646   9.338  18.608  0.00  0.00    +0.000 C 
BRANCH  26  27
ATOM     27  C   UNL     1       9.455  10.594  18.238  0.00  0.00    +0.000 C 
BRANCH  27  28
ATOM     28  N   UNL     1      10.172  11.237  19.356  0.00  0.00    +0.000 NA
BRANCH  28  30
ATOM     29  C   UNL     1      10.557  13.074  17.671  0.00  0.00    +0.000 C 
ATOM     30  C   UNL     1      11.056  12.321  18.901  0.00  0.00    +0.000 C 
ENDBRANCH  28  30
BRANCH  28  31
ATOM     31  C   UNL     1       9.245  11.623  20.433  0.00  0.00    +0.000 C 
ATOM     32  C   UNL     1       9.848  12.411  21.595  0.00  0.00    +0.000 C 
ENDBRANCH  28  31
ENDBRANCH  27  28
ENDBRANCH  26  27
ENDBRANCH  25  26
ENDBRANCH  24  25
ENDBRANCH  23  24
ENDBRANCH  22  23
ENDBRANCH   1  22
TORSDOF 12
ENDMDL
MODEL 8
REMARK VINA RESULT:      -6.7      1.418      1.833
REMARK  Name = 
REMARK  16 active torsions:
REMARK  status: ('A' for Active; 'I' for Inactive)
REMARK    1  A    between atoms: C_1  and  C_2
REMARK    2  A    between atoms: C_2  and  N_3
REMARK    3  A    between atoms: N_3  and  C_4
REMARK    4  A    between atoms: N_3  and  C_6
REMARK    5  A    between atoms: C_4  and  C_5
REMARK    6  A    between atoms: C_6  and  C_7
REMARK    7  A    between atoms: C_7  and  C_8
REMARK    8  A    between atoms: C_8  and  C_9
REMARK    9  A    between atoms: C_9  and  C_10
REMARK   10  A    between atoms: C_10  and  O_11
REMARK   11  A    between atoms: O_11  and  C_12
REMARK   12  A    between atoms: C_13  and  C_14
REMARK   13  A    between atoms: C_17  and  O_18
REMARK   14  A    between atoms: O_18  and  C_19
REMARK   15  A    between atoms: C_20  and  O_21
REMARK   16  A    between atoms: O_21  and  C_22
REMARK                            x       y       z     vdW  Elec       q    Type
REMARK                         _______ _______ _______ _____ _____    ______ ____
ROOT
ATOM      1  C   UNL     1       6.233   4.708  16.413  0.00  0.00    +0.000 A 
ATOM      2  C   UNL     1       5.096   4.022  16.164  0.00  0.00    +0.000 A 
ATOM      3  O   UNL     1       4.725   3.532  14.920  0.00  0.00    +0.000 OA
ATOM      4  C   UNL     1       5.549   3.753  13.850  0.00  0.00    +0.000 A 
ATOM      5  C   UNL     1       5.177   3.192  12.628  0.00  0.00    +0.000 A 
ATOM      6  C   UNL     1       5.958   3.416  11.491  0.00  0.00    +0.000 A 
ATOM      7  C   UNL     1       7.110   4.198  11.576  0.00  0.00    +0.000 A 
ATOM      8  C   UNL     1       7.484   4.751  12.801  0.00  0.00    +0.000 A 
ATOM      9  C   UNL     1       6.702   4.519  13.937  0.00  0.00    +0.000 A 
ATOM     10  C   UNL     1       7.075   5.093  15.238  0.00  0.00    +0.000 A 
ATOM     11  O   UNL     1       8.024   5.867  15.307  0.00  0.00    +0.000 OA
ENDROOT
BRANCH   2  12
ATOM     12  C   UNL     1       4.095   3.716  17.219  0.00  0.00    +0.000 A 
ATOM     13  C   UNL     1       3.952   2.427  17.744  0.00  0.00    +0.000 A 
ATOM     14  C   UNL     1       3.023   2.166  18.752  0.00  0.00    +0.000 A 
ATOM     15  C   UNL     1       2.230   3.186  19.288  0.00  0.00    +0.000 A 
ATOM     16  C   UNL     1       2.368   4.494  18.793  0.00  0.00    +0.000 A 
ATOM     17  C   UNL     1       3.303   4.740  17.767  0.00  0.00    +0.000 A 
BRANCH  15  18
ATOM     18  O   UNL     1       1.397   2.718  20.270  0.00  0.00    +0.000 OA
ATOM     19  C   UNL     1       1.770   2.878  21.629  0.00  0.00    +0.000 C 
ENDBRANCH  15  18
BRANCH  16  20
ATOM     20  O   UNL     1       1.582   5.478  19.332  0.00  0.00    +0.000 OA
ATOM     21  C   UNL     1       2.199   6.467  20.145  0.00  0.00    +0.000 C 
ENDBRANCH  16  20
ENDBRANCH   2  12
BRANCH   1  22
ATOM     22  O   UNL     1       6.539   5.100  17.703  0.00  0.00    +0.000 OA
BRANCH  22  23
ATOM     23  C   UNL     1       6.376   6.461  18.089  0.00  0.00    +0.000 C 
BRANCH  23  24
ATOM     24  C   UNL     1       7.754   7.056  18.372  0.00  0.00    +0.000 C 
BRANCH  24  25
ATOM     25  C   UNL     1       8.076   8.202  17.405  0.00  0.00    +0.000 C 
BRANCH  25  26
ATOM     26  C   UNL     1       8.029   9.554  18.115  0.00  0.00    +0.000 C 
BRANCH  26  27
ATOM     27  C   UNL     1       9.200   9.767  19.091  0.00  0.00    +0.000 C 
BRANCH  27  28
ATOM     28  N   UNL     1       9.725  11.145  19.156  0.00  0.00    +0.000 NA
BRANCH  28  30
ATOM     29  C   UNL     1       8.834  13.220  18.032  0.00  0.00    +0.000 C 
ATOM     30  C   UNL     1       9.537  11.873  17.892  0.00  0.00    +0.000 C 
ENDBRANCH  28  30
BRANCH  28  31
ATOM     31  C   UNL     1       9.218  11.853  20.344  0.00  0.00    +0.000 C 
ATOM     32  C   UNL     1      10.268  12.497  21.247  0.00  0.00    +0.000 C 
ENDBRANCH  28  31
ENDBRANCH  27  28
ENDBRANCH  26  27
ENDBRANCH  25  26
ENDBRANCH  24  25
ENDBRANCH  23  24
ENDBRANCH  22  23
ENDBRANCH   1  22
TORSDOF 12
ENDMDL
MODEL 9
REMARK VINA RESULT:      -6.7      3.315      8.118
REMARK  Name = 
REMARK  16 active torsions:
REMARK  status: ('A' for Active; 'I' for Inactive)
REMARK    1  A    between atoms: C_1  and  C_2
REMARK    2  A    between atoms: C_2  and  N_3
REMARK    3  A    between atoms: N_3  and  C_4
REMARK    4  A    between atoms: N_3  and  C_6
REMARK    5  A    between atoms: C_4  and  C_5
REMARK    6  A    between atoms: C_6  and  C_7
REMARK    7  A    between atoms: C_7  and  C_8
REMARK    8  A    between atoms: C_8  and  C_9
REMARK    9  A    between atoms: C_9  and  C_10
REMARK   10  A    between atoms: C_10  and  O_11
REMARK   11  A    between atoms: O_11  and  C_12
REMARK   12  A    between atoms: C_13  and  C_14
REMARK   13  A    between atoms: C_17  and  O_18
REMARK   14  A    between atoms: O_18  and  C_19
REMARK   15  A    between atoms: C_20  and  O_21
REMARK   16  A    between atoms: O_21  and  C_22
REMARK                            x       y       z     vdW  Elec       q    Type
REMARK                         _______ _______ _______ _____ _____    ______ ____
ROOT
ATOM      1  C   UNL     1       2.933   5.609  18.366  0.00  0.00    +0.000 A 
ATOM      2  C   UNL     1       3.967   4.753  18.210  0.00  0.00    +0.000 A 
ATOM      3  O   UNL     1       4.168   3.609  18.970  0.00  0.00    +0.000 OA
ATOM      4  C   UNL     1       3.273   3.309  19.961  0.00  0.00    +0.000 A 
ATOM      5  C   UNL     1       3.470   2.119  20.663  0.00  0.00    +0.000 A 
ATOM      6  C   UNL     1       2.612   1.778  21.711  0.00  0.00    +0.000 A 
ATOM      7  C   UNL     1       1.557   2.624  22.057  0.00  0.00    +0.000 A 
ATOM      8  C   UNL     1       1.358   3.809  21.347  0.00  0.00    +0.000 A 
ATOM      9  C   UNL     1       2.216   4.143  20.296  0.00  0.00    +0.000 A 
ATOM     10  C   UNL     1       2.027   5.387  19.536  0.00  0.00    +0.000 A 
ATOM     11  O   UNL     1       1.171   6.189  19.894  0.00  0.00    +0.000 OA
ENDROOT
BRANCH   2  12
ATOM     12  C   UNL     1       5.027   4.951  17.188  0.00  0.00    +0.000 A 
ATOM     13  C   UNL     1       5.056   4.203  16.006  0.00  0.00    +0.000 A 
ATOM     14  C   UNL     1       6.046   4.422  15.047  0.00  0.00    +0.000 A 
ATOM     15  C   UNL     1       7.018   5.412  15.222  0.00  0.00    +0.000 A 
ATOM     16  C   UNL     1       6.999   6.192  16.392  0.00  0.00    +0.000 A 
ATOM     17  C   UNL     1       5.999   5.952  17.356  0.00  0.00    +0.000 A 
BRANCH  15  18
ATOM     18  O   UNL     1       7.884   5.468  14.161  0.00  0.00    +0.000 OA
ATOM     19  C   UNL     1       7.462   4.984  12.897  0.00  0.00    +0.000 C 
ENDBRANCH  15  18
BRANCH  16  20
ATOM     20  O   UNL     1       7.960   7.157  16.543  0.00  0.00    +0.000 OA
ATOM     21  C   UNL     1       7.838   8.068  17.626  0.00  0.00    +0.000 C 
ENDBRANCH  16  20
ENDBRANCH   2  12
BRANCH   1  22
ATOM     22  O   UNL     1       2.791   6.688  17.514  0.00  0.00    +0.000 OA
BRANCH  22  23
ATOM     23  C   UNL     1       3.024   8.008  17.995  0.00  0.00    +0.000 C 
BRANCH  23  24
ATOM     24  C   UNL     1       1.747   8.826  17.812  0.00  0.00    +0.000 C 
BRANCH  24  25
ATOM     25  C   UNL     1       2.010  10.324  18.012  0.00  0.00    +0.000 C 
BRANCH  25  26
ATOM     26  C   UNL     1       0.855  10.994  18.753  0.00  0.00    +0.000 C 
BRANCH  26  27
ATOM     27  C   UNL     1      -0.331  10.048  19.008  0.00  0.00    +0.000 C 
BRANCH  27  28
ATOM     28  N   UNL     1      -1.629  10.503  18.473  0.00  0.00    +0.000 NA
BRANCH  28  30
ATOM     29  C   UNL     1      -2.480  12.527  19.717  0.00  0.00    +0.000 C 
ATOM     30  C   UNL     1      -1.757  11.969  18.494  0.00  0.00    +0.000 C 
ENDBRANCH  28  30
BRANCH  28  31
ATOM     31  C   UNL     1      -1.912   9.890  17.164  0.00  0.00    +0.000 C 
ATOM     32  C   UNL     1      -2.594  10.785  16.131  0.00  0.00    +0.000 C 
ENDBRANCH  28  31
ENDBRANCH  27  28
ENDBRANCH  26  27
ENDBRANCH  25  26
ENDBRANCH  24  25
ENDBRANCH  23  24
ENDBRANCH  22  23
ENDBRANCH   1  22
TORSDOF 12
ENDMDL
