MODEL 1
REMARK VINA RESULT:      -7.7      0.000      0.000
REMARK  Name = 
REMARK  4 active torsions:
REMARK  status: ('A' for Active; 'I' for Inactive)
REMARK    1  A    between atoms: O_1  and  C_2
REMARK    2  A    between atoms: C_9  and  C_10
REMARK    3  A    between atoms: C_10  and  N_11
REMARK    4  A    between atoms: N_11  and  C_12
REMARK                            x       y       z     vdW  Elec       q    Type
REMARK                         _______ _______ _______ _____ _____    ______ ____
ROOT
ATOM      1  C   UNL     1       7.196   4.871  17.611  0.00  0.00    +0.000 A 
ATOM      2  C   UNL     1       7.132   5.851  16.625  0.00  0.00    +0.000 A 
ATOM      3  C   UNL     1       5.997   6.661  16.530  0.00  0.00    +0.000 A 
ATOM      4  C   UNL     1       4.930   6.489  17.420  0.00  0.00    +0.000 A 
ATOM      5  C   UNL     1       5.028   5.521  18.429  0.00  0.00    +0.000 A 
ATOM      6  C   UNL     1       6.151   4.700  18.512  0.00  0.00    +0.000 A 
ATOM      7  O   UNL     1       4.044   5.302  19.354  0.00  0.00    +0.000 OA
ATOM      8  C   UNL     1       3.117   6.396  19.494  0.00  0.00    +0.000 C 
ATOM      9  C   UNL     1       2.564   6.787  18.125  0.00  0.00    +0.000 C 
ATOM     10  C   UNL     1       3.711   7.361  17.306  0.00  0.00    +0.000 C 
ENDROOT
BRANCH   1  11
ATOM     11  O   UNL     1       8.286   4.058  17.728  0.00  0.00    +0.000 OA
ATOM     12  H   UNL     1       8.904   4.262  17.004  0.00  0.00    +0.000 HD
ENDBRANCH   1  11
BRANCH   8  13
ATOM     13  C   UNL     1       1.978   5.963  20.434  0.00  0.00    +0.000 C 
BRANCH  13  14
ATOM     14  N   UNL     1       2.295   4.833  21.311  0.00  0.00    +0.000 NA
ATOM     15  H   UNL     1       2.223   5.178  22.273  0.00  0.00    +0.000 HD
BRANCH  14  16
ATOM     16  C   UNL     1       1.437   3.643  21.204  0.00  0.00    +0.000 C 
ATOM     17  C   UNL     1       0.780   3.426  19.829  0.00  0.00    +0.000 C 
ATOM     18  C   UNL     1       1.786   3.146  18.710  0.00  0.00    +0.000 C 
ATOM     19  C   UNL     1       2.785   2.046  19.069  0.00  0.00    +0.000 C 
ATOM     20  C   UNL     1       3.413   2.250  20.444  0.00  0.00    +0.000 C 
ATOM     21  C   UNL     1       2.335   2.431  21.514  0.00  0.00    +0.000 C 
ENDBRANCH  14  16
ENDBRANCH  13  14
ENDBRANCH   8  13
TORSDOF 4
ENDMDL
MODEL 2
REMARK VINA RESULT:      -7.3      2.924      5.392
REMARK  Name = 
REMARK  4 active torsions:
REMARK  status: ('A' for Active; 'I' for Inactive)
REMARK    1  A    between atoms: O_1  and  C_2
REMARK    2  A    between atoms: C_9  and  C_10
REMARK    3  A    between atoms: C_10  and  N_11
REMARK    4  A    between atoms: N_11  and  C_12
REMARK                            x       y       z     vdW  Elec       q    Type
REMARK                         _______ _______ _______ _____ _____    ______ ____
ROOT
ATOM      1  C   UNL     1       0.098   9.292  21.923  0.00  0.00    +0.000 A 
ATOM      2  C   UNL     1      -0.151  10.382  21.093  0.00  0.00    +0.000 A 
ATOM      3  C   UNL     1       0.398  10.409  19.808  0.00  0.00    +0.000 A 
ATOM      4  C   UNL     1       1.194   9.349  19.356  0.00  0.00    +0.000 A 
ATOM      5  C   UNL     1       1.403   8.244  20.195  0.00  0.00    +0.000 A 
ATOM      6  C   UNL     1       0.873   8.225  21.482  0.00  0.00    +0.000 A 
ATOM      7  O   UNL     1       2.147   7.156  19.825  0.00  0.00    +0.000 OA
ATOM      8  C   UNL     1       2.328   7.025  18.403  0.00  0.00    +0.000 C 
ATOM      9  C   UNL     1       2.868   8.332  17.825  0.00  0.00    +0.000 C 
ATOM     10  C   UNL     1       1.785   9.390  17.975  0.00  0.00    +0.000 C 
ENDROOT
BRANCH   1  11
ATOM     11  O   UNL     1      -0.416   9.237  23.186  0.00  0.00    +0.000 OA
ATOM     12  H   UNL     1       0.229   8.797  23.766  0.00  0.00    +0.000 HD
ENDBRANCH   1  11
BRANCH   8  13
ATOM     13  C   UNL     1       3.307   5.869  18.132  0.00  0.00    +0.000 C 
BRANCH  13  14
ATOM     14  N   UNL     1       3.459   4.915  19.234  0.00  0.00    +0.000 NA
ATOM     15  H   UNL     1       2.858   5.246  19.994  0.00  0.00    +0.000 HD
BRANCH  14  16
ATOM     16  C   UNL     1       3.097   3.516  18.962  0.00  0.00    +0.000 C 
ATOM     17  C   UNL     1       3.517   2.504  20.043  0.00  0.00    +0.000 C 
ATOM     18  C   UNL     1       2.815   2.718  21.385  0.00  0.00    +0.000 C 
ATOM     19  C   UNL     1       1.297   2.842  21.249  0.00  0.00    +0.000 C 
ATOM     20  C   UNL     1       0.883   3.825  20.158  0.00  0.00    +0.000 C 
ATOM     21  C   UNL     1       1.562   3.482  18.831  0.00  0.00    +0.000 C 
ENDBRANCH  14  16
ENDBRANCH  13  14
ENDBRANCH   8  13
TORSDOF 4
ENDMDL
MODEL 3
REMARK VINA RESULT:      -7.2      1.955      2.743
REMARK  Name = 
REMARK  4 active torsions:
REMARK  status: ('A' for Active; 'I' for Inactive)
REMARK    1  A    between atoms: O_1  and  C_2
REMARK    2  A    between atoms: C_9  and  C_10
REMARK    3  A    between atoms: C_10  and  N_11
REMARK    4  A    between atoms: N_11  and  C_12
REMARK                            x       y       z     vdW  Elec       q    Type
REMARK                         _______ _______ _______ _____ _____    ______ ____
ROOT
ATOM      1  C   UNL     1       7.635   5.670  19.638  0.00  0.00    +0.000 A 
ATOM      2  C   UNL     1       8.056   6.587  18.679  0.00  0.00    +0.000 A 
ATOM      3  C   UNL     1       7.376   6.671  17.461  0.00  0.00    +0.000 A 
ATOM      4  C   UNL     1       6.279   5.839  17.204  0.00  0.00    +0.000 A 
ATOM      5  C   UNL     1       5.849   4.947  18.197  0.00  0.00    +0.000 A 
ATOM      6  C   UNL     1       6.538   4.849  19.404  0.00  0.00    +0.000 A 
ATOM      7  O   UNL     1       4.774   4.115  18.040  0.00  0.00    +0.000 OA
ATOM      8  C   UNL     1       3.871   4.515  16.992  0.00  0.00    +0.000 C 
ATOM      9  C   UNL     1       4.645   4.730  15.693  0.00  0.00    +0.000 C 
ATOM     10  C   UNL     1       5.559   5.932  15.888  0.00  0.00    +0.000 C 
ENDROOT
BRANCH   1  11
ATOM     11  O   UNL     1       8.280   5.558  20.836  0.00  0.00    +0.000 OA
ATOM     12  H   UNL     1       9.213   5.343  20.667  0.00  0.00    +0.000 HD
ENDBRANCH   1  11
BRANCH   8  13
ATOM     13  C   UNL     1       2.805   3.420  16.811  0.00  0.00    +0.000 C 
BRANCH  13  14
ATOM     14  N   UNL     1       1.635   3.545  17.684  0.00  0.00    +0.000 NA
ATOM     15  H   UNL     1       0.828   3.705  17.074  0.00  0.00    +0.000 HD
BRANCH  14  16
ATOM     16  C   UNL     1       1.317   2.396  18.545  0.00  0.00    +0.000 C 
ATOM     17  C   UNL     1       2.525   1.725  19.222  0.00  0.00    +0.000 C 
ATOM     18  C   UNL     1       3.245   2.632  20.222  0.00  0.00    +0.000 C 
ATOM     19  C   UNL     1       2.293   3.286  21.224  0.00  0.00    +0.000 C 
ATOM     20  C   UNL     1       1.082   3.926  20.552  0.00  0.00    +0.000 C 
ATOM     21  C   UNL     1       0.372   2.922  19.641  0.00  0.00    +0.000 C 
ENDBRANCH  14  16
ENDBRANCH  13  14
ENDBRANCH   8  13
TORSDOF 4
ENDMDL
MODEL 4
REMARK VINA RESULT:      -6.9      3.275      5.446
REMARK  Name = 
REMARK  4 active torsions:
REMARK  status: ('A' for Active; 'I' for Inactive)
REMARK    1  A    between atoms: O_1  and  C_2
REMARK    2  A    between atoms: C_9  and  C_10
REMARK    3  A    between atoms: C_10  and  N_11
REMARK    4  A    between atoms: N_11  and  C_12
REMARK                            x       y       z     vdW  Elec       q    Type
REMARK                         _______ _______ _______ _____ _____    ______ ____
ROOT
ATOM      1  C   UNL     1       0.254   9.974  22.209  0.00  0.00    +0.000 A 
ATOM      2  C   UNL     1      -0.260  10.877  21.282  0.00  0.00    +0.000 A 
ATOM      3  C   UNL     1       0.052  10.728  19.928  0.00  0.00    +0.000 A 
ATOM      4  C   UNL     1       0.877   9.679  19.504  0.00  0.00    +0.000 A 
ATOM      5  C   UNL     1       1.356   8.759  20.448  0.00  0.00    +0.000 A 
ATOM      6  C   UNL     1       1.061   8.918  21.800  0.00  0.00    +0.000 A 
ATOM      7  O   UNL     1       2.148   7.692  20.118  0.00  0.00    +0.000 OA
ATOM      8  C   UNL     1       2.096   7.332  18.725  0.00  0.00    +0.000 C 
ATOM      9  C   UNL     1       2.370   8.561  17.860  0.00  0.00    +0.000 C 
ATOM     10  C   UNL     1       1.212   9.531  18.046  0.00  0.00    +0.000 C 
ENDROOT
BRANCH   1  11
ATOM     11  O   UNL     1      -0.025  10.094  23.539  0.00  0.00    +0.000 OA
ATOM     12  H   UNL     1      -0.970   9.909  23.676  0.00  0.00    +0.000 HD
ENDBRANCH   1  11
BRANCH   8  13
ATOM     13  C   UNL     1       3.142   6.237  18.456  0.00  0.00    +0.000 C 
BRANCH  13  14
ATOM     14  N   UNL     1       3.222   5.192  19.480  0.00  0.00    +0.000 NA
ATOM     15  H   UNL     1       3.250   5.670  20.386  0.00  0.00    +0.000 HD
BRANCH  14  16
ATOM     16  C   UNL     1       2.120   4.219  19.529  0.00  0.00    +0.000 C 
ATOM     17  C   UNL     1       1.616   3.724  18.162  0.00  0.00    +0.000 C 
ATOM     18  C   UNL     1       2.660   2.925  17.379  0.00  0.00    +0.000 C 
ATOM     19  C   UNL     1       3.303   1.814  18.210  0.00  0.00    +0.000 C 
ATOM     20  C   UNL     1       3.777   2.301  19.576  0.00  0.00    +0.000 C 
ATOM     21  C   UNL     1       2.645   3.008  20.324  0.00  0.00    +0.000 C 
ENDBRANCH  14  16
ENDBRANCH  13  14
ENDBRANCH   8  13
TORSDOF 4
ENDMDL
MODEL 5
REMARK VINA RESULT:      -6.9      3.321      5.792
REMARK  Name = 
REMARK  4 active torsions:
REMARK  status: ('A' for Active; 'I' for Inactive)
REMARK    1  A    between atoms: O_1  and  C_2
REMARK    2  A    between atoms: C_9  and  C_10
REMARK    3  A    between atoms: C_10  and  N_11
REMARK    4  A    between atoms: N_11  and  C_12
REMARK                            x       y       z     vdW  Elec       q    Type
REMARK                         _______ _______ _______ _____ _____    ______ ____
ROOT
ATOM      1  C   UNL     1       0.176   9.540  22.460  0.00  0.00    +0.000 A 
ATOM      2  C   UNL     1      -0.489  10.481  21.678  0.00  0.00    +0.000 A 
ATOM      3  C   UNL     1      -0.237  10.538  20.305  0.00  0.00    +0.000 A 
ATOM      4  C   UNL     1       0.677   9.655  19.716  0.00  0.00    +0.000 A 
ATOM      5  C   UNL     1       1.310   8.691  20.515  0.00  0.00    +0.000 A 
ATOM      6  C   UNL     1       1.074   8.647  21.887  0.00  0.00    +0.000 A 
ATOM      7  O   UNL     1       2.198   7.776  20.018  0.00  0.00    +0.000 OA
ATOM      8  C   UNL     1       2.110   7.586  18.594  0.00  0.00    +0.000 C 
ATOM      9  C   UNL     1       2.195   8.935  17.883  0.00  0.00    +0.000 C 
ATOM     10  C   UNL     1       0.946   9.729  18.239  0.00  0.00    +0.000 C 
ENDROOT
BRANCH   1  11
ATOM     11  O   UNL     1      -0.041   9.461  23.805  0.00  0.00    +0.000 OA
ATOM     12  H   UNL     1      -0.969   9.694  23.984  0.00  0.00    +0.000 HD
ENDBRANCH   1  11
BRANCH   8  13
ATOM     13  C   UNL     1       3.259   6.665  18.144  0.00  0.00    +0.000 C 
BRANCH  13  14
ATOM     14  N   UNL     1       3.457   5.473  18.973  0.00  0.00    +0.000 NA
ATOM     15  H   UNL     1       2.548   5.007  19.040  0.00  0.00    +0.000 HD
BRANCH  14  16
ATOM     16  C   UNL     1       4.430   4.480  18.494  0.00  0.00    +0.000 C 
ATOM     17  C   UNL     1       4.599   3.238  19.387  0.00  0.00    +0.000 C 
ATOM     18  C   UNL     1       3.339   2.375  19.476  0.00  0.00    +0.000 C 
ATOM     19  C   UNL     1       2.749   2.041  18.106  0.00  0.00    +0.000 C 
ATOM     20  C   UNL     1       2.608   3.270  17.213  0.00  0.00    +0.000 C 
ATOM     21  C   UNL     1       3.936   4.022  17.108  0.00  0.00    +0.000 C 
ENDBRANCH  14  16
ENDBRANCH  13  14
ENDBRANCH   8  13
TORSDOF 4
ENDMDL
MODEL 6
REMARK VINA RESULT:      -6.9      3.291      6.359
REMARK  Name = 
REMARK  4 active torsions:
REMARK  status: ('A' for Active; 'I' for Inactive)
REMARK    1  A    between atoms: O_1  and  C_2
REMARK    2  A    between atoms: C_9  and  C_10
REMARK    3  A    between atoms: C_10  and  N_11
REMARK    4  A    between atoms: N_11  and  C_12
REMARK                            x       y       z     vdW  Elec       q    Type
REMARK                         _______ _______ _______ _____ _____    ______ ____
ROOT
ATOM      1  C   UNL     1       0.401   9.774  22.238  0.00  0.00    +0.000 A 
ATOM      2  C   UNL     1      -0.139  10.703  21.352  0.00  0.00    +0.000 A 
ATOM      3  C   UNL     1       0.130  10.589  19.985  0.00  0.00    +0.000 A 
ATOM      4  C   UNL     1       0.937   9.548  19.508  0.00  0.00    +0.000 A 
ATOM      5  C   UNL     1       1.441   8.602  20.412  0.00  0.00    +0.000 A 
ATOM      6  C   UNL     1       1.189   8.727  21.777  0.00  0.00    +0.000 A 
ATOM      7  O   UNL     1       2.216   7.541  20.030  0.00  0.00    +0.000 OA
ATOM      8  C   UNL     1       2.119   7.218  18.630  0.00  0.00    +0.000 C 
ATOM      9  C   UNL     1       2.372   8.468  17.789  0.00  0.00    +0.000 C 
ATOM     10  C   UNL     1       1.225   9.437  18.036  0.00  0.00    +0.000 C 
ENDROOT
BRANCH   1  11
ATOM     11  O   UNL     1       0.164   9.861  23.579  0.00  0.00    +0.000 OA
ATOM     12  H   UNL     1       0.161   8.962  23.953  0.00  0.00    +0.000 HD
ENDBRANCH   1  11
BRANCH   8  13
ATOM     13  C   UNL     1       3.152   6.126  18.300  0.00  0.00    +0.000 C 
BRANCH  13  14
ATOM     14  N   UNL     1       4.367   6.604  17.636  0.00  0.00    +0.000 NA
ATOM     15  H   UNL     1       4.885   7.150  18.330  0.00  0.00    +0.000 HD
BRANCH  14  16
ATOM     16  C   UNL     1       5.284   5.583  17.104  0.00  0.00    +0.000 C 
ATOM     17  C   UNL     1       6.581   6.125  16.479  0.00  0.00    +0.000 C 
ATOM     18  C   UNL     1       7.498   6.824  17.485  0.00  0.00    +0.000 C 
ATOM     19  C   UNL     1       7.749   5.989  18.741  0.00  0.00    +0.000 C 
ATOM     20  C   UNL     1       6.462   5.432  19.343  0.00  0.00    +0.000 C 
ATOM     21  C   UNL     1       5.654   4.672  18.289  0.00  0.00    +0.000 C 
ENDBRANCH  14  16
ENDBRANCH  13  14
ENDBRANCH   8  13
TORSDOF 4
ENDMDL
MODEL 7
REMARK VINA RESULT:      -6.8      3.477      5.739
REMARK  Name = 
REMARK  4 active torsions:
REMARK  status: ('A' for Active; 'I' for Inactive)
REMARK    1  A    between atoms: O_1  and  C_2
REMARK    2  A    between atoms: C_9  and  C_10
REMARK    3  A    between atoms: C_10  and  N_11
REMARK    4  A    between atoms: N_11  and  C_12
REMARK                            x       y       z     vdW  Elec       q    Type
REMARK                         _______ _______ _______ _____ _____    ______ ____
ROOT
ATOM      1  C   UNL     1       0.195   9.680  22.609  0.00  0.00    +0.000 A 
ATOM      2  C   UNL     1      -0.582  10.577  21.880  0.00  0.00    +0.000 A 
ATOM      3  C   UNL     1      -0.438  10.643  20.492  0.00  0.00    +0.000 A 
ATOM      4  C   UNL     1       0.481   9.815  19.835  0.00  0.00    +0.000 A 
ATOM      5  C   UNL     1       1.228   8.894  20.583  0.00  0.00    +0.000 A 
ATOM      6  C   UNL     1       1.100   8.841  21.969  0.00  0.00    +0.000 A 
ATOM      7  O   UNL     1       2.130   8.031  20.021  0.00  0.00    +0.000 OA
ATOM      8  C   UNL     1       1.947   7.830  18.607  0.00  0.00    +0.000 C 
ATOM      9  C   UNL     1       1.897   9.179  17.893  0.00  0.00    +0.000 C 
ATOM     10  C   UNL     1       0.633   9.898  18.342  0.00  0.00    +0.000 C 
ENDROOT
BRANCH   1  11
ATOM     11  O   UNL     1       0.085   9.594  23.966  0.00  0.00    +0.000 OA
ATOM     12  H   UNL     1       0.353   8.701  24.244  0.00  0.00    +0.000 HD
ENDBRANCH   1  11
BRANCH   8  13
ATOM     13  C   UNL     1       3.112   6.978  18.072  0.00  0.00    +0.000 C 
BRANCH  13  14
ATOM     14  N   UNL     1       2.824   5.548  17.943  0.00  0.00    +0.000 NA
ATOM     15  H   UNL     1       3.493   5.173  17.265  0.00  0.00    +0.000 HD
BRANCH  14  16
ATOM     16  C   UNL     1       2.926   4.732  19.163  0.00  0.00    +0.000 C 
ATOM     17  C   UNL     1       1.637   4.001  19.577  0.00  0.00    +0.000 C 
ATOM     18  C   UNL     1       1.187   2.940  18.569  0.00  0.00    +0.000 C 
ATOM     19  C   UNL     1       2.311   1.982  18.174  0.00  0.00    +0.000 C 
ATOM     20  C   UNL     1       3.596   2.710  17.790  0.00  0.00    +0.000 C 
ATOM     21  C   UNL     1       4.020   3.682  18.893  0.00  0.00    +0.000 C 
ENDBRANCH  14  16
ENDBRANCH  13  14
ENDBRANCH   8  13
TORSDOF 4
ENDMDL
MODEL 8
REMARK VINA RESULT:      -6.8      2.476      5.895
REMARK  Name = 
REMARK  4 active torsions:
REMARK  status: ('A' for Active; 'I' for Inactive)
REMARK    1  A    between atoms: O_1  and  C_2
REMARK    2  A    between atoms: C_9  and  C_10
REMARK    3  A    between atoms: C_10  and  N_11
REMARK    4  A    between atoms: N_11  and  C_12
REMARK                            x       y       z     vdW  Elec       q    Type
REMARK                         _______ _______ _______ _____ _____    ______ ____
ROOT
ATOM      1  C   UNL     1       1.293   9.633  19.328  0.00  0.00    +0.000 A 
ATOM      2  C   UNL     1       0.865   9.294  20.608  0.00  0.00    +0.000 A 
ATOM      3  C   UNL     1       1.073   7.996  21.083  0.00  0.00    +0.000 A 
ATOM      4  C   UNL     1       1.707   7.041  20.278  0.00  0.00    +0.000 A 
ATOM      5  C   UNL     1       2.163   7.413  19.005  0.00  0.00    +0.000 A 
ATOM      6  C   UNL     1       1.938   8.701  18.524  0.00  0.00    +0.000 A 
ATOM      7  O   UNL     1       2.812   6.552  18.162  0.00  0.00    +0.000 OA
ATOM      8  C   UNL     1       3.373   5.400  18.819  0.00  0.00    +0.000 C 
ATOM      9  C   UNL     1       2.301   4.708  19.659  0.00  0.00    +0.000 C 
ATOM     10  C   UNL     1       1.920   5.646  20.795  0.00  0.00    +0.000 C 
ENDROOT
BRANCH   1  11
ATOM     11  O   UNL     1       1.100  10.889  18.831  0.00  0.00    +0.000 OA
ATOM     12  H   UNL     1       1.710  11.499  19.282  0.00  0.00    +0.000 HD
ENDBRANCH   1  11
BRANCH   8  13
ATOM     13  C   UNL     1       3.926   4.440  17.751  0.00  0.00    +0.000 C 
BRANCH  13  14
ATOM     14  N   UNL     1       5.334   4.071  17.921  0.00  0.00    +0.000 NA
ATOM     15  H   UNL     1       5.362   3.051  18.009  0.00  0.00    +0.000 HD
BRANCH  14  16
ATOM     16  C   UNL     1       6.259   4.447  16.840  0.00  0.00    +0.000 C 
ATOM     17  C   UNL     1       5.968   5.799  16.165  0.00  0.00    +0.000 C 
ATOM     18  C   UNL     1       6.133   6.997  17.102  0.00  0.00    +0.000 C 
ATOM     19  C   UNL     1       7.464   6.984  17.855  0.00  0.00    +0.000 C 
ATOM     20  C   UNL     1       7.762   5.634  18.500  0.00  0.00    +0.000 C 
ATOM     21  C   UNL     1       7.662   4.506  17.471  0.00  0.00    +0.000 C 
ENDBRANCH  14  16
ENDBRANCH  13  14
ENDBRANCH   8  13
TORSDOF 4
ENDMDL
MODEL 9
REMARK VINA RESULT:      -6.8      1.764      2.287
REMARK  Name = 
REMARK  4 active torsions:
REMARK  status: ('A' for Active; 'I' for Inactive)
REMARK    1  A    between atoms: O_1  and  C_2
REMARK    2  A    between atoms: C_9  and  C_10
REMARK    3  A    between atoms: C_10  and  N_11
REMARK    4  A    between atoms: N_11  and  C_12
REMARK                            x       y       z     vdW  Elec       q    Type
REMARK                         _______ _______ _______ _____ _____    ______ ____
ROOT
ATOM      1  C   UNL     1       7.393   5.302  19.395  0.00  0.00    +0.000 A 
ATOM      2  C   UNL     1       8.007   5.044  18.172  0.00  0.00    +0.000 A 
ATOM      3  C   UNL     1       7.226   4.677  17.073  0.00  0.00    +0.000 A 
ATOM      4  C   UNL     1       5.835   4.569  17.198  0.00  0.00    +0.000 A 
ATOM      5  C   UNL     1       5.233   4.868  18.429  0.00  0.00    +0.000 A 
ATOM      6  C   UNL     1       6.012   5.215  19.530  0.00  0.00    +0.000 A 
ATOM      7  O   UNL     1       3.880   4.812  18.632  0.00  0.00    +0.000 OA
ATOM      8  C   UNL     1       3.102   4.853  17.421  0.00  0.00    +0.000 C 
ATOM      9  C   UNL     1       3.598   3.785  16.449  0.00  0.00    +0.000 C 
ATOM     10  C   UNL     1       5.004   4.168  16.011  0.00  0.00    +0.000 C 
ENDROOT
BRANCH   1  11
ATOM     11  O   UNL     1       8.126   5.655  20.490  0.00  0.00    +0.000 OA
ATOM     12  H   UNL     1       7.605   6.279  21.026  0.00  0.00    +0.000 HD
ENDBRANCH   1  11
BRANCH   8  13
ATOM     13  C   UNL     1       1.623   4.619  17.774  0.00  0.00    +0.000 C 
BRANCH  13  14
ATOM     14  N   UNL     1       1.352   4.408  19.198  0.00  0.00    +0.000 NA
ATOM     15  H   UNL     1       0.582   5.035  19.447  0.00  0.00    +0.000 HD
BRANCH  14  16
ATOM     16  C   UNL     1       0.966   3.050  19.612  0.00  0.00    +0.000 C 
ATOM     17  C   UNL     1       1.854   1.918  19.065  0.00  0.00    +0.000 C 
ATOM     18  C   UNL     1       3.294   1.968  19.581  0.00  0.00    +0.000 C 
ATOM     19  C   UNL     1       3.376   2.103  21.101  0.00  0.00    +0.000 C 
ATOM     20  C   UNL     1       2.474   3.208  21.643  0.00  0.00    +0.000 C 
ATOM     21  C   UNL     1       1.037   3.028  21.150  0.00  0.00    +0.000 C 
ENDBRANCH  14  16
ENDBRANCH  13  14
ENDBRANCH   8  13
TORSDOF 4
ENDMDL
