MODEL 1
REMARK VINA RESULT:      -7.3      0.000      0.000
REMARK  Name = 
REMARK  9 active torsions:
REMARK  status: ('A' for Active; 'I' for Inactive)
REMARK    1  A    between atoms: C_1  and  C_2
REMARK    2  A    between atoms: C_2  and  O_3
REMARK    3  A    between atoms: C_2  and  C_8
REMARK    4  A    between atoms: O_3  and  P_4
REMARK    5  A    between atoms: P_4  and  O_6
REMARK    6  A    between atoms: P_4  and  O_7
REMARK    7  A    between atoms: C_10  and  N_11
REMARK    8  A    between atoms: C_21  and  O_22
REMARK    9  A    between atoms: C_23  and  O_24
REMARK                            x       y       z     vdW  Elec       q    Type
REMARK                         _______ _______ _______ _____ _____    ______ ____
ROOT
ATOM      1  C   UNL     1       3.052   5.299  19.960  0.00  0.00    +0.000 C 
ATOM      2  O   UNL     1       4.337   5.164  19.292  0.00  0.00    +0.000 OA
ATOM      3  C   UNL     1       4.602   6.370  18.539  0.00  0.00    +0.000 C 
ATOM      4  C   UNL     1       3.237   6.836  18.043  0.00  0.00    +0.000 C 
ATOM      5  C   UNL     1       2.291   6.375  19.165  0.00  0.00    +0.000 C 
ENDROOT
BRANCH   3   6
ATOM      6  N   UNL     1       5.693   6.100  17.622  0.00  0.00    +0.000 N 
ATOM      7  C   UNL     1       6.790   6.936  17.553  0.00  0.00    +0.000 A 
ATOM      8  N   UNL     1       7.510   6.738  16.475  0.00  0.00    +0.000 NA
ATOM      9  C   UNL     1       6.904   5.670  15.848  0.00  0.00    +0.000 A 
ATOM     10  C   UNL     1       7.188   5.032  14.625  0.00  0.00    +0.000 A 
ATOM     11  N   UNL     1       8.138   5.481  13.728  0.00  0.00    +0.000 N 
ATOM     12  N   UNL     1       6.475   3.925  14.310  0.00  0.00    +0.000 NA
ATOM     13  C   UNL     1       5.504   3.527  15.158  0.00  0.00    +0.000 A 
ATOM     14  N   UNL     1       5.081   4.116  16.308  0.00  0.00    +0.000 NA
ATOM     15  C   UNL     1       5.818   5.201  16.591  0.00  0.00    +0.000 A 
ATOM     16  H   UNL     1       8.833   6.119  14.096  0.00  0.00    +0.000 HD
ATOM     17  H   UNL     1       8.371   4.843  12.989  0.00  0.00    +0.000 HD
ENDBRANCH   3   6
BRANCH   1  19
ATOM     18  C   UNL     1       1.071   3.885  20.819  0.00  0.00    +0.000 C 
ATOM     19  C   UNL     1       2.372   3.887  20.036  0.00  0.00    +0.000 C 
BRANCH  19  20
ATOM     20  O   UNL     1       3.233   2.873  20.636  0.00  0.00    +0.000 OA
BRANCH  20  21
ATOM     21  P   UNL     1       3.694   1.744  19.409  0.00  0.00    +0.000 P 
ATOM     22  O   UNL     1       2.711   2.391  18.436  0.00  0.00    +0.000 OA
BRANCH  21  23
ATOM     23  O   UNL     1       5.071   2.567  19.140  0.00  0.00    +0.000 OA
ATOM     24  H   UNL     1       5.393   2.243  18.274  0.00  0.00    +0.000 HD
ENDBRANCH  21  23
BRANCH  21  25
ATOM     25  O   UNL     1       4.157   0.616  18.182  0.00  0.00    +0.000 OA
ATOM     26  H   UNL     1       4.003   1.030  17.314  0.00  0.00    +0.000 HD
ENDBRANCH  21  25
ENDBRANCH  20  21
ENDBRANCH  19  20
ENDBRANCH   1  19
BRANCH   4  27
ATOM     27  O   UNL     1       3.175   8.253  17.885  0.00  0.00    +0.000 OA
ATOM     28  H   UNL     1       4.032   8.541  17.506  0.00  0.00    +0.000 HD
ENDBRANCH   4  27
BRANCH   5  29
ATOM     29  O   UNL     1       1.922   7.468  20.019  0.00  0.00    +0.000 OA
ATOM     30  H   UNL     1       0.976   7.394  20.244  0.00  0.00    +0.000 HD
ENDBRANCH   5  29
TORSDOF 8
ENDMDL
MODEL 2
REMARK VINA RESULT:      -7.2      1.167      1.440
REMARK  Name = 
REMARK  9 active torsions:
REMARK  status: ('A' for Active; 'I' for Inactive)
REMARK    1  A    between atoms: C_1  and  C_2
REMARK    2  A    between atoms: C_2  and  O_3
REMARK    3  A    between atoms: C_2  and  C_8
REMARK    4  A    between atoms: O_3  and  P_4
REMARK    5  A    between atoms: P_4  and  O_6
REMARK    6  A    between atoms: P_4  and  O_7
REMARK    7  A    between atoms: C_10  and  N_11
REMARK    8  A    between atoms: C_21  and  O_22
REMARK    9  A    between atoms: C_23  and  O_24
REMARK                            x       y       z     vdW  Elec       q    Type
REMARK                         _______ _______ _______ _____ _____    ______ ____
ROOT
ATOM      1  C   UNL     1       3.022   5.500  20.352  0.00  0.00    +0.000 C 
ATOM      2  O   UNL     1       4.269   5.284  19.634  0.00  0.00    +0.000 OA
ATOM      3  C   UNL     1       4.513   6.417  18.769  0.00  0.00    +0.000 C 
ATOM      4  C   UNL     1       3.133   6.867  18.304  0.00  0.00    +0.000 C 
ATOM      5  C   UNL     1       2.238   6.521  19.507  0.00  0.00    +0.000 C 
ENDROOT
BRANCH   3   6
ATOM      6  N   UNL     1       5.552   6.049  17.825  0.00  0.00    +0.000 N 
ATOM      7  C   UNL     1       6.742   6.747  17.767  0.00  0.00    +0.000 A 
ATOM      8  N   UNL     1       7.419   6.501  16.671  0.00  0.00    +0.000 NA
ATOM      9  C   UNL     1       6.679   5.539  16.018  0.00  0.00    +0.000 A 
ATOM     10  C   UNL     1       6.867   4.916  14.769  0.00  0.00    +0.000 A 
ATOM     11  N   UNL     1       7.854   5.278  13.872  0.00  0.00    +0.000 N 
ATOM     12  N   UNL     1       6.020   3.917  14.428  0.00  0.00    +0.000 NA
ATOM     13  C   UNL     1       5.018   3.610  15.278  0.00  0.00    +0.000 A 
ATOM     14  N   UNL     1       4.685   4.204  16.454  0.00  0.00    +0.000 NA
ATOM     15  C   UNL     1       5.552   5.179  16.761  0.00  0.00    +0.000 A 
ATOM     16  H   UNL     1       8.626   5.813  14.249  0.00  0.00    +0.000 HD
ATOM     17  H   UNL     1       7.997   4.644  13.107  0.00  0.00    +0.000 HD
ENDBRANCH   3   6
BRANCH   1  19
ATOM     18  C   UNL     1       3.264   2.931  20.423  0.00  0.00    +0.000 C 
ATOM     19  C   UNL     1       2.324   4.114  20.581  0.00  0.00    +0.000 C 
BRANCH  19  20
ATOM     20  O   UNL     1       1.198   3.888  19.679  0.00  0.00    +0.000 OA
BRANCH  20  21
ATOM     21  P   UNL     1       1.687   2.767  18.456  0.00  0.00    +0.000 P 
ATOM     22  O   UNL     1       0.297   2.135  18.470  0.00  0.00    +0.000 OA
BRANCH  21  23
ATOM     23  O   UNL     1       1.555   3.919  17.317  0.00  0.00    +0.000 OA
ATOM     24  H   UNL     1       1.182   3.460  16.535  0.00  0.00    +0.000 HD
ENDBRANCH  21  23
BRANCH  21  25
ATOM     25  O   UNL     1       2.176   1.646  17.232  0.00  0.00    +0.000 OA
ATOM     26  H   UNL     1       2.043   2.067  16.363  0.00  0.00    +0.000 HD
ENDBRANCH  21  25
ENDBRANCH  20  21
ENDBRANCH  19  20
ENDBRANCH   1  19
BRANCH   4  27
ATOM     27  O   UNL     1       3.085   8.267  18.030  0.00  0.00    +0.000 OA
ATOM     28  H   UNL     1       2.150   8.548  18.114  0.00  0.00    +0.000 HD
ENDBRANCH   4  27
BRANCH   5  29
ATOM     29  O   UNL     1       1.931   7.688  20.283  0.00  0.00    +0.000 OA
ATOM     30  H   UNL     1       1.523   8.360  19.704  0.00  0.00    +0.000 HD
ENDBRANCH   5  29
TORSDOF 8
ENDMDL
MODEL 3
REMARK VINA RESULT:      -7.1      1.688      2.234
REMARK  Name = 
REMARK  9 active torsions:
REMARK  status: ('A' for Active; 'I' for Inactive)
REMARK    1  A    between atoms: C_1  and  C_2
REMARK    2  A    between atoms: C_2  and  O_3
REMARK    3  A    between atoms: C_2  and  C_8
REMARK    4  A    between atoms: O_3  and  P_4
REMARK    5  A    between atoms: P_4  and  O_6
REMARK    6  A    between atoms: P_4  and  O_7
REMARK    7  A    between atoms: C_10  and  N_11
REMARK    8  A    between atoms: C_21  and  O_22
REMARK    9  A    between atoms: C_23  and  O_24
REMARK                            x       y       z     vdW  Elec       q    Type
REMARK                         _______ _______ _______ _____ _____    ______ ____
ROOT
ATOM      1  C   UNL     1       2.560   5.301  20.829  0.00  0.00    +0.000 C 
ATOM      2  O   UNL     1       3.669   5.254  19.888  0.00  0.00    +0.000 OA
ATOM      3  C   UNL     1       3.776   6.536  19.227  0.00  0.00    +0.000 C 
ATOM      4  C   UNL     1       2.341   7.033  19.090  0.00  0.00    +0.000 C 
ATOM      5  C   UNL     1       1.655   6.444  20.335  0.00  0.00    +0.000 C 
ENDROOT
BRANCH   3   6
ATOM      6  N   UNL     1       4.640   6.378  18.072  0.00  0.00    +0.000 N 
ATOM      7  C   UNL     1       4.230   6.774  16.815  0.00  0.00    +0.000 A 
ATOM      8  N   UNL     1       4.977   6.276  15.860  0.00  0.00    +0.000 NA
ATOM      9  C   UNL     1       5.971   5.588  16.523  0.00  0.00    +0.000 A 
ATOM     10  C   UNL     1       7.036   4.804  16.039  0.00  0.00    +0.000 A 
ATOM     11  N   UNL     1       7.208   4.484  14.705  0.00  0.00    +0.000 N 
ATOM     12  N   UNL     1       7.929   4.328  16.937  0.00  0.00    +0.000 NA
ATOM     13  C   UNL     1       7.721   4.588  18.245  0.00  0.00    +0.000 A 
ATOM     14  N   UNL     1       6.685   5.245  18.830  0.00  0.00    +0.000 NA
ATOM     15  C   UNL     1       5.830   5.710  17.907  0.00  0.00    +0.000 A 
ATOM     16  H   UNL     1       6.713   5.063  14.039  0.00  0.00    +0.000 HD
ATOM     17  H   UNL     1       8.096   4.079  14.469  0.00  0.00    +0.000 HD
ENDBRANCH   3   6
BRANCH   1  19
ATOM     18  C   UNL     1       2.892   2.743  20.743  0.00  0.00    +0.000 C 
ATOM     19  C   UNL     1       1.898   3.880  20.901  0.00  0.00    +0.000 C 
BRANCH  19  20
ATOM     20  O   UNL     1       0.861   3.684  19.893  0.00  0.00    +0.000 OA
BRANCH  20  21
ATOM     21  P   UNL     1       1.521   2.748  18.596  0.00  0.00    +0.000 P 
ATOM     22  O   UNL     1       0.211   1.971  18.482  0.00  0.00    +0.000 OA
BRANCH  21  23
ATOM     23  O   UNL     1       1.304   3.986  17.564  0.00  0.00    +0.000 OA
ATOM     24  H   UNL     1       1.823   4.726  17.944  0.00  0.00    +0.000 HD
ENDBRANCH  21  23
BRANCH  21  25
ATOM     25  O   UNL     1       2.182   1.813  17.299  0.00  0.00    +0.000 OA
ATOM     26  H   UNL     1       3.153   1.836  17.371  0.00  0.00    +0.000 HD
ENDBRANCH  21  25
ENDBRANCH  20  21
ENDBRANCH  19  20
ENDBRANCH   1  19
BRANCH   4  27
ATOM     27  O   UNL     1       2.260   8.458  19.099  0.00  0.00    +0.000 OA
ATOM     28  H   UNL     1       2.579   8.773  18.227  0.00  0.00    +0.000 HD
ENDBRANCH   4  27
BRANCH   5  29
ATOM     29  O   UNL     1       1.491   7.436  21.358  0.00  0.00    +0.000 OA
ATOM     30  H   UNL     1       1.108   7.017  22.152  0.00  0.00    +0.000 HD
ENDBRANCH   5  29
TORSDOF 8
ENDMDL
MODEL 4
REMARK VINA RESULT:      -7.1      1.201      1.477
REMARK  Name = 
REMARK  9 active torsions:
REMARK  status: ('A' for Active; 'I' for Inactive)
REMARK    1  A    between atoms: C_1  and  C_2
REMARK    2  A    between atoms: C_2  and  O_3
REMARK    3  A    between atoms: C_2  and  C_8
REMARK    4  A    between atoms: O_3  and  P_4
REMARK    5  A    between atoms: P_4  and  O_6
REMARK    6  A    between atoms: P_4  and  O_7
REMARK    7  A    between atoms: C_10  and  N_11
REMARK    8  A    between atoms: C_21  and  O_22
REMARK    9  A    between atoms: C_23  and  O_24
REMARK                            x       y       z     vdW  Elec       q    Type
REMARK                         _______ _______ _______ _____ _____    ______ ____
ROOT
ATOM      1  C   UNL     1       2.859   4.960  20.489  0.00  0.00    +0.000 C 
ATOM      2  O   UNL     1       3.945   5.107  19.533  0.00  0.00    +0.000 OA
ATOM      3  C   UNL     1       3.880   6.429  18.950  0.00  0.00    +0.000 C 
ATOM      4  C   UNL     1       2.392   6.751  18.862  0.00  0.00    +0.000 C 
ATOM      5  C   UNL     1       1.810   6.009  20.077  0.00  0.00    +0.000 C 
ENDROOT
BRANCH   3   6
ATOM      6  N   UNL     1       4.733   6.449  17.777  0.00  0.00    +0.000 N 
ATOM      7  C   UNL     1       4.356   7.120  16.631  0.00  0.00    +0.000 A 
ATOM      8  N   UNL     1       5.068   6.775  15.585  0.00  0.00    +0.000 NA
ATOM      9  C   UNL     1       6.007   5.898  16.082  0.00  0.00    +0.000 A 
ATOM     10  C   UNL     1       7.014   5.155  15.436  0.00  0.00    +0.000 A 
ATOM     11  N   UNL     1       7.166   5.102  14.063  0.00  0.00    +0.000 N 
ATOM     12  N   UNL     1       7.868   4.444  16.207  0.00  0.00    +0.000 NA
ATOM     13  C   UNL     1       7.676   4.446  17.543  0.00  0.00    +0.000 A 
ATOM     14  N   UNL     1       6.689   5.042  18.262  0.00  0.00    +0.000 NA
ATOM     15  C   UNL     1       5.872   5.745  17.464  0.00  0.00    +0.000 A 
ATOM     16  H   UNL     1       6.715   5.839  13.535  0.00  0.00    +0.000 HD
ATOM     17  H   UNL     1       8.022   4.691  13.738  0.00  0.00    +0.000 HD
ENDBRANCH   3   6
BRANCH   1  19
ATOM     18  C   UNL     1       1.212   3.202  21.417  0.00  0.00    +0.000 C 
ATOM     19  C   UNL     1       2.379   3.466  20.482  0.00  0.00    +0.000 C 
BRANCH  19  20
ATOM     20  O   UNL     1       3.437   2.528  20.845  0.00  0.00    +0.000 OA
BRANCH  20  21
ATOM     21  P   UNL     1       3.864   1.609  19.443  0.00  0.00    +0.000 P 
ATOM     22  O   UNL     1       2.678   2.201  18.686  0.00  0.00    +0.000 OA
BRANCH  21  23
ATOM     23  O   UNL     1       5.070   2.646  19.104  0.00  0.00    +0.000 OA
ATOM     24  H   UNL     1       5.843   2.077  18.905  0.00  0.00    +0.000 HD
ENDBRANCH  21  23
BRANCH  21  25
ATOM     25  O   UNL     1       4.292   0.690  18.041  0.00  0.00    +0.000 OA
ATOM     26  H   UNL     1       3.629  -0.013  17.923  0.00  0.00    +0.000 HD
ENDBRANCH  21  25
ENDBRANCH  20  21
ENDBRANCH  19  20
ENDBRANCH   1  19
BRANCH   4  27
ATOM     27  O   UNL     1       2.136   8.151  18.960  0.00  0.00    +0.000 OA
ATOM     28  H   UNL     1       2.789   8.523  19.590  0.00  0.00    +0.000 HD
ENDBRANCH   4  27
BRANCH   5  29
ATOM     29  O   UNL     1       1.546   6.911  21.162  0.00  0.00    +0.000 OA
ATOM     30  H   UNL     1       1.507   7.823  20.818  0.00  0.00    +0.000 HD
ENDBRANCH   5  29
TORSDOF 8
ENDMDL
MODEL 5
REMARK VINA RESULT:      -7.0      3.597      6.078
REMARK  Name = 
REMARK  9 active torsions:
REMARK  status: ('A' for Active; 'I' for Inactive)
REMARK    1  A    between atoms: C_1  and  C_2
REMARK    2  A    between atoms: C_2  and  O_3
REMARK    3  A    between atoms: C_2  and  C_8
REMARK    4  A    between atoms: O_3  and  P_4
REMARK    5  A    between atoms: P_4  and  O_6
REMARK    6  A    between atoms: P_4  and  O_7
REMARK    7  A    between atoms: C_10  and  N_11
REMARK    8  A    between atoms: C_21  and  O_22
REMARK    9  A    between atoms: C_23  and  O_24
REMARK                            x       y       z     vdW  Elec       q    Type
REMARK                         _______ _______ _______ _____ _____    ______ ____
ROOT
ATOM      1  C   UNL     1       5.922   4.819  19.227  0.00  0.00    +0.000 C 
ATOM      2  O   UNL     1       5.093   6.012  19.148  0.00  0.00    +0.000 OA
ATOM      3  C   UNL     1       3.704   5.623  19.253  0.00  0.00    +0.000 C 
ATOM      4  C   UNL     1       3.616   4.271  18.555  0.00  0.00    +0.000 C 
ATOM      5  C   UNL     1       4.998   3.654  18.831  0.00  0.00    +0.000 C 
ENDROOT
BRANCH   3   6
ATOM      6  N   UNL     1       2.887   6.749  18.838  0.00  0.00    +0.000 N 
ATOM      7  C   UNL     1       2.993   7.276  17.566  0.00  0.00    +0.000 A 
ATOM      8  N   UNL     1       2.439   8.460  17.462  0.00  0.00    +0.000 NA
ATOM      9  C   UNL     1       1.874   8.685  18.699  0.00  0.00    +0.000 A 
ATOM     10  C   UNL     1       1.188   9.802  19.214  0.00  0.00    +0.000 A 
ATOM     11  N   UNL     1       1.052  10.999  18.534  0.00  0.00    +0.000 N 
ATOM     12  N   UNL     1       0.647   9.697  20.449  0.00  0.00    +0.000 NA
ATOM     13  C   UNL     1       0.838   8.551  21.135  0.00  0.00    +0.000 A 
ATOM     14  N   UNL     1       1.558   7.454  20.781  0.00  0.00    +0.000 NA
ATOM     15  C   UNL     1       2.068   7.593  19.548  0.00  0.00    +0.000 A 
ATOM     16  H   UNL     1       1.209  10.965  17.535  0.00  0.00    +0.000 HD
ATOM     17  H   UNL     1       0.393  11.646  18.927  0.00  0.00    +0.000 HD
ENDBRANCH   3   6
BRANCH   1  19
ATOM     18  C   UNL     1       7.548   6.488  18.115  0.00  0.00    +0.000 C 
ATOM     19  C   UNL     1       7.193   5.027  18.331  0.00  0.00    +0.000 C 
BRANCH  19  20
ATOM     20  O   UNL     1       7.063   4.420  17.009  0.00  0.00    +0.000 OA
BRANCH  20  21
ATOM     21  P   UNL     1       6.258   5.539  15.965  0.00  0.00    +0.000 P 
ATOM     22  O   UNL     1       7.418   5.459  14.975  0.00  0.00    +0.000 OA
BRANCH  21  23
ATOM     23  O   UNL     1       5.254   4.369  15.449  0.00  0.00    +0.000 OA
ATOM     24  H   UNL     1       5.766   3.538  15.541  0.00  0.00    +0.000 HD
ENDBRANCH  21  23
BRANCH  21  25
ATOM     25  O   UNL     1       5.452   6.658  14.920  0.00  0.00    +0.000 OA
ATOM     26  H   UNL     1       5.836   7.541  15.064  0.00  0.00    +0.000 HD
ENDBRANCH  21  25
ENDBRANCH  20  21
ENDBRANCH  19  20
ENDBRANCH   1  19
BRANCH   4  27
ATOM     27  O   UNL     1       2.583   3.449  19.097  0.00  0.00    +0.000 OA
ATOM     28  H   UNL     1       2.810   3.278  20.035  0.00  0.00    +0.000 HD
ENDBRANCH   4  27
BRANCH   5  29
ATOM     29  O   UNL     1       4.934   2.680  19.883  0.00  0.00    +0.000 OA
ATOM     30  H   UNL     1       5.093   1.793  19.509  0.00  0.00    +0.000 HD
ENDBRANCH   5  29
TORSDOF 8
ENDMDL
MODEL 6
REMARK VINA RESULT:      -6.9      3.705      6.169
REMARK  Name = 
REMARK  9 active torsions:
REMARK  status: ('A' for Active; 'I' for Inactive)
REMARK    1  A    between atoms: C_1  and  C_2
REMARK    2  A    between atoms: C_2  and  O_3
REMARK    3  A    between atoms: C_2  and  C_8
REMARK    4  A    between atoms: O_3  and  P_4
REMARK    5  A    between atoms: P_4  and  O_6
REMARK    6  A    between atoms: P_4  and  O_7
REMARK    7  A    between atoms: C_10  and  N_11
REMARK    8  A    between atoms: C_21  and  O_22
REMARK    9  A    between atoms: C_23  and  O_24
REMARK                            x       y       z     vdW  Elec       q    Type
REMARK                         _______ _______ _______ _____ _____    ______ ____
ROOT
ATOM      1  C   UNL     1       4.573   4.013  18.849  0.00  0.00    +0.000 C 
ATOM      2  O   UNL     1       4.048   5.140  19.604  0.00  0.00    +0.000 OA
ATOM      3  C   UNL     1       2.644   5.298  19.295  0.00  0.00    +0.000 C 
ATOM      4  C   UNL     1       2.513   4.902  17.829  0.00  0.00    +0.000 C 
ATOM      5  C   UNL     1       3.605   3.830  17.666  0.00  0.00    +0.000 C 
ENDROOT
BRANCH   3   6
ATOM      6  N   UNL     1       2.219   6.600  19.773  0.00  0.00    +0.000 N 
ATOM      7  C   UNL     1       1.625   6.748  21.011  0.00  0.00    +0.000 A 
ATOM      8  N   UNL     1       1.022   7.904  21.147  0.00  0.00    +0.000 NA
ATOM      9  C   UNL     1       1.300   8.578  19.978  0.00  0.00    +0.000 A 
ATOM     10  C   UNL     1       0.885   9.842  19.517  0.00  0.00    +0.000 A 
ATOM     11  N   UNL     1      -0.034  10.635  20.177  0.00  0.00    +0.000 N 
ATOM     12  N   UNL     1       1.409  10.294  18.353  0.00  0.00    +0.000 NA
ATOM     13  C   UNL     1       2.256   9.489  17.679  0.00  0.00    +0.000 A 
ATOM     14  N   UNL     1       2.649   8.222  17.977  0.00  0.00    +0.000 NA
ATOM     15  C   UNL     1       2.118   7.816  19.140  0.00  0.00    +0.000 A 
ATOM     16  H   UNL     1      -0.193  10.417  21.152  0.00  0.00    +0.000 HD
ATOM     17  H   UNL     1      -0.107  11.580  19.846  0.00  0.00    +0.000 HD
ENDBRANCH   3   6
BRANCH   1  19
ATOM     18  C   UNL     1       6.716   5.356  19.364  0.00  0.00    +0.000 C 
ATOM     19  C   UNL     1       6.069   4.306  18.478  0.00  0.00    +0.000 C 
BRANCH  19  20
ATOM     20  O   UNL     1       6.236   4.750  17.097  0.00  0.00    +0.000 OA
BRANCH  20  21
ATOM     21  P   UNL     1       6.804   6.383  17.108  0.00  0.00    +0.000 P 
ATOM     22  O   UNL     1       7.538   6.143  15.791  0.00  0.00    +0.000 OA
BRANCH  21  23
ATOM     23  O   UNL     1       5.346   6.916  16.622  0.00  0.00    +0.000 OA
ATOM     24  H   UNL     1       5.497   7.841  16.337  0.00  0.00    +0.000 HD
ENDBRANCH  21  23
BRANCH  21  25
ATOM     25  O   UNL     1       7.370   8.018  17.118  0.00  0.00    +0.000 OA
ATOM     26  H   UNL     1       8.241   8.041  16.682  0.00  0.00    +0.000 HD
ENDBRANCH  21  25
ENDBRANCH  20  21
ENDBRANCH  19  20
ENDBRANCH   1  19
BRANCH   4  27
ATOM     27  O   UNL     1       1.229   4.358  17.529  0.00  0.00    +0.000 OA
ATOM     28  H   UNL     1       0.592   5.103  17.523  0.00  0.00    +0.000 HD
ENDBRANCH   4  27
BRANCH   5  29
ATOM     29  O   UNL     1       3.045   2.509  17.671  0.00  0.00    +0.000 OA
ATOM     30  H   UNL     1       2.190   2.521  17.202  0.00  0.00    +0.000 HD
ENDBRANCH   5  29
TORSDOF 8
ENDMDL
MODEL 7
REMARK VINA RESULT:      -6.9      3.752      6.086
REMARK  Name = 
REMARK  9 active torsions:
REMARK  status: ('A' for Active; 'I' for Inactive)
REMARK    1  A    between atoms: C_1  and  C_2
REMARK    2  A    between atoms: C_2  and  O_3
REMARK    3  A    between atoms: C_2  and  C_8
REMARK    4  A    between atoms: O_3  and  P_4
REMARK    5  A    between atoms: P_4  and  O_6
REMARK    6  A    between atoms: P_4  and  O_7
REMARK    7  A    between atoms: C_10  and  N_11
REMARK    8  A    between atoms: C_21  and  O_22
REMARK    9  A    between atoms: C_23  and  O_24
REMARK                            x       y       z     vdW  Elec       q    Type
REMARK                         _______ _______ _______ _____ _____    ______ ____
ROOT
ATOM      1  C   UNL     1       5.615   4.751  19.046  0.00  0.00    +0.000 C 
ATOM      2  O   UNL     1       4.839   5.981  19.084  0.00  0.00    +0.000 OA
ATOM      3  C   UNL     1       3.433   5.646  19.139  0.00  0.00    +0.000 C 
ATOM      4  C   UNL     1       3.294   4.376  18.306  0.00  0.00    +0.000 C 
ATOM      5  C   UNL     1       4.645   3.674  18.527  0.00  0.00    +0.000 C 
ENDROOT
BRANCH   3   6
ATOM      6  N   UNL     1       2.671   6.842  18.836  0.00  0.00    +0.000 N 
ATOM      7  C   UNL     1       2.778   7.464  17.607  0.00  0.00    +0.000 A 
ATOM      8  N   UNL     1       2.287   8.680  17.612  0.00  0.00    +0.000 NA
ATOM      9  C   UNL     1       1.762   8.834  18.877  0.00  0.00    +0.000 A 
ATOM     10  C   UNL     1       1.149   9.941  19.496  0.00  0.00    +0.000 A 
ATOM     11  N   UNL     1       1.064  11.194  18.918  0.00  0.00    +0.000 N 
ATOM     12  N   UNL     1       0.629   9.765  20.733  0.00  0.00    +0.000 NA
ATOM     13  C   UNL     1       0.771   8.558  21.320  0.00  0.00    +0.000 A 
ATOM     14  N   UNL     1       1.423   7.457  20.862  0.00  0.00    +0.000 NA
ATOM     15  C   UNL     1       1.913   7.668  19.631  0.00  0.00    +0.000 A 
ATOM     16  H   UNL     1       1.197  11.233  17.916  0.00  0.00    +0.000 HD
ATOM     17  H   UNL     1       0.449  11.841  19.377  0.00  0.00    +0.000 HD
ENDBRANCH   3   6
BRANCH   1  19
ATOM     18  C   UNL     1       8.007   5.716  18.935  0.00  0.00    +0.000 C 
ATOM     19  C   UNL     1       6.903   4.993  18.183  0.00  0.00    +0.000 C 
BRANCH  19  20
ATOM     20  O   UNL     1       6.639   5.761  16.970  0.00  0.00    +0.000 OA
BRANCH  20  21
ATOM     21  P   UNL     1       6.527   4.665  15.637  0.00  0.00    +0.000 P 
ATOM     22  O   UNL     1       5.300   5.411  15.118  0.00  0.00    +0.000 OA
BRANCH  21  23
ATOM     23  O   UNL     1       7.758   5.417  14.886  0.00  0.00    +0.000 OA
ATOM     24  H   UNL     1       8.500   4.778  14.915  0.00  0.00    +0.000 HD
ENDBRANCH  21  23
BRANCH  21  25
ATOM     25  O   UNL     1       6.415   3.569  14.303  0.00  0.00    +0.000 OA
ATOM     26  H   UNL     1       5.504   3.597  13.960  0.00  0.00    +0.000 HD
ENDBRANCH  21  25
ENDBRANCH  20  21
ENDBRANCH  19  20
ENDBRANCH   1  19
BRANCH   4  27
ATOM     27  O   UNL     1       2.221   3.551  18.755  0.00  0.00    +0.000 OA
ATOM     28  H   UNL     1       2.422   2.633  18.473  0.00  0.00    +0.000 HD
ENDBRANCH   4  27
BRANCH   5  29
ATOM     29  O   UNL     1       4.528   2.602  19.474  0.00  0.00    +0.000 OA
ATOM     30  H   UNL     1       3.590   2.493  19.721  0.00  0.00    +0.000 HD
ENDBRANCH   5  29
TORSDOF 8
ENDMDL
MODEL 8
REMARK VINA RESULT:      -6.9      3.897      6.140
REMARK  Name = 
REMARK  9 active torsions:
REMARK  status: ('A' for Active; 'I' for Inactive)
REMARK    1  A    between atoms: C_1  and  C_2
REMARK    2  A    between atoms: C_2  and  O_3
REMARK    3  A    between atoms: C_2  and  C_8
REMARK    4  A    between atoms: O_3  and  P_4
REMARK    5  A    between atoms: P_4  and  O_6
REMARK    6  A    between atoms: P_4  and  O_7
REMARK    7  A    between atoms: C_10  and  N_11
REMARK    8  A    between atoms: C_21  and  O_22
REMARK    9  A    between atoms: C_23  and  O_24
REMARK                            x       y       z     vdW  Elec       q    Type
REMARK                         _______ _______ _______ _____ _____    ______ ____
ROOT
ATOM      1  C   UNL     1       4.716   4.675  19.306  0.00  0.00    +0.000 C 
ATOM      2  O   UNL     1       4.226   6.029  19.100  0.00  0.00    +0.000 OA
ATOM      3  C   UNL     1       2.844   6.096  19.521  0.00  0.00    +0.000 C 
ATOM      4  C   UNL     1       2.256   4.733  19.173  0.00  0.00    +0.000 C 
ATOM      5  C   UNL     1       3.458   3.789  19.345  0.00  0.00    +0.000 C 
ENDROOT
BRANCH   3   6
ATOM      6  N   UNL     1       2.273   7.326  19.005  0.00  0.00    +0.000 N 
ATOM      7  C   UNL     1       2.503   7.729  17.705  0.00  0.00    +0.000 A 
ATOM      8  N   UNL     1       2.195   8.988  17.504  0.00  0.00    +0.000 NA
ATOM      9  C   UNL     1       1.664   9.408  18.704  0.00  0.00    +0.000 A 
ATOM     10  C   UNL     1       1.202  10.672  19.120  0.00  0.00    +0.000 A 
ATOM     11  N   UNL     1       1.317  11.819  18.358  0.00  0.00    +0.000 N 
ATOM     12  N   UNL     1       0.629  10.764  20.343  0.00  0.00    +0.000 NA
ATOM     13  C   UNL     1       0.578   9.655  21.110  0.00  0.00    +0.000 A 
ATOM     14  N   UNL     1       1.074   8.416  20.853  0.00  0.00    +0.000 NA
ATOM     15  C   UNL     1       1.623   8.363  19.630  0.00  0.00    +0.000 A 
ATOM     16  H   UNL     1       1.482  11.684  17.369  0.00  0.00    +0.000 HD
ATOM     17  H   UNL     1       0.791  12.610  18.685  0.00  0.00    +0.000 HD
ENDBRANCH   3   6
BRANCH   1  19
ATOM     18  C   UNL     1       7.015   5.193  18.253  0.00  0.00    +0.000 C 
ATOM     19  C   UNL     1       5.761   4.340  18.185  0.00  0.00    +0.000 C 
BRANCH  19  20
ATOM     20  O   UNL     1       5.218   4.487  16.838  0.00  0.00    +0.000 OA
BRANCH  20  21
ATOM     21  P   UNL     1       6.497   4.960  15.775  0.00  0.00    +0.000 P 
ATOM     22  O   UNL     1       6.202   3.762  14.876  0.00  0.00    +0.000 OA
BRANCH  21  23
ATOM     23  O   UNL     1       5.566   6.133  15.141  0.00  0.00    +0.000 OA
ATOM     24  H   UNL     1       5.448   5.881  14.201  0.00  0.00    +0.000 HD
ENDBRANCH  21  23
BRANCH  21  25
ATOM     25  O   UNL     1       7.777   5.434  14.712  0.00  0.00    +0.000 OA
ATOM     26  H   UNL     1       8.620   5.135  15.097  0.00  0.00    +0.000 HD
ENDBRANCH  21  25
ENDBRANCH  20  21
ENDBRANCH  19  20
ENDBRANCH   1  19
BRANCH   4  27
ATOM     27  O   UNL     1       1.196   4.362  20.053  0.00  0.00    +0.000 OA
ATOM     28  H   UNL     1       1.005   3.414  19.894  0.00  0.00    +0.000 HD
ENDBRANCH   4  27
BRANCH   5  29
ATOM     29  O   UNL     1       3.384   3.071  20.586  0.00  0.00    +0.000 OA
ATOM     30  H   UNL     1       3.612   3.674  21.319  0.00  0.00    +0.000 HD
ENDBRANCH   5  29
TORSDOF 8
ENDMDL
MODEL 9
REMARK VINA RESULT:      -6.9      4.024      6.529
REMARK  Name = 
REMARK  9 active torsions:
REMARK  status: ('A' for Active; 'I' for Inactive)
REMARK    1  A    between atoms: C_1  and  C_2
REMARK    2  A    between atoms: C_2  and  O_3
REMARK    3  A    between atoms: C_2  and  C_8
REMARK    4  A    between atoms: O_3  and  P_4
REMARK    5  A    between atoms: P_4  and  O_6
REMARK    6  A    between atoms: P_4  and  O_7
REMARK    7  A    between atoms: C_10  and  N_11
REMARK    8  A    between atoms: C_21  and  O_22
REMARK    9  A    between atoms: C_23  and  O_24
REMARK                            x       y       z     vdW  Elec       q    Type
REMARK                         _______ _______ _______ _____ _____    ______ ____
ROOT
ATOM      1  C   UNL     1       4.630   5.401  18.239  0.00  0.00    +0.000 C 
ATOM      2  O   UNL     1       4.011   6.703  18.431  0.00  0.00    +0.000 OA
ATOM      3  C   UNL     1       2.788   6.533  19.184  0.00  0.00    +0.000 C 
ATOM      4  C   UNL     1       2.225   5.192  18.729  0.00  0.00    +0.000 C 
ATOM      5  C   UNL     1       3.492   4.380  18.411  0.00  0.00    +0.000 C 
ENDROOT
BRANCH   3   6
ATOM      6  N   UNL     1       2.018   7.758  19.078  0.00  0.00    +0.000 N 
ATOM      7  C   UNL     1       1.933   8.446  17.884  0.00  0.00    +0.000 A 
ATOM      8  N   UNL     1       1.483   9.668  18.036  0.00  0.00    +0.000 NA
ATOM      9  C   UNL     1       1.183   9.761  19.378  0.00  0.00    +0.000 A 
ATOM     10  C   UNL     1       0.714  10.841  20.150  0.00  0.00    +0.000 A 
ATOM     11  N   UNL     1       0.566  12.126  19.661  0.00  0.00    +0.000 N 
ATOM     12  N   UNL     1       0.406  10.605  21.446  0.00  0.00    +0.000 NA
ATOM     13  C   UNL     1       0.614   9.365  21.936  0.00  0.00    +0.000 A 
ATOM     14  N   UNL     1       1.148   8.281  21.317  0.00  0.00    +0.000 NA
ATOM     15  C   UNL     1       1.429   8.552  20.033  0.00  0.00    +0.000 A 
ATOM     16  H   UNL     1       0.529  12.219  18.654  0.00  0.00    +0.000 HD
ATOM     17  H   UNL     1       0.056  12.757  20.251  0.00  0.00    +0.000 HD
ENDBRANCH   3   6
BRANCH   1  19
ATOM     18  C   UNL     1       5.249   4.065  16.119  0.00  0.00    +0.000 C 
ATOM     19  C   UNL     1       5.364   5.390  16.852  0.00  0.00    +0.000 C 
BRANCH  19  20
ATOM     20  O   UNL     1       6.787   5.697  16.958  0.00  0.00    +0.000 OA
BRANCH  20  21
ATOM     21  P   UNL     1       7.255   5.577  18.619  0.00  0.00    +0.000 P 
ATOM     22  O   UNL     1       8.224   4.449  18.271  0.00  0.00    +0.000 OA
BRANCH  21  23
ATOM     23  O   UNL     1       8.177   6.909  18.478  0.00  0.00    +0.000 OA
ATOM     24  H   UNL     1       7.587   7.652  18.722  0.00  0.00    +0.000 HD
ENDBRANCH  21  23
BRANCH  21  25
ATOM     25  O   UNL     1       7.723   5.458  20.280  0.00  0.00    +0.000 OA
ATOM     26  H   UNL     1       7.764   6.358  20.651  0.00  0.00    +0.000 HD
ENDBRANCH  21  25
ENDBRANCH  20  21
ENDBRANCH  19  20
ENDBRANCH   1  19
BRANCH   4  27
ATOM     27  O   UNL     1       1.463   4.552  19.752  0.00  0.00    +0.000 OA
ATOM     28  H   UNL     1       2.039   4.477  20.541  0.00  0.00    +0.000 HD
ENDBRANCH   4  27
BRANCH   5  29
ATOM     29  O   UNL     1       3.798   3.455  19.464  0.00  0.00    +0.000 OA
ATOM     30  H   UNL     1       3.183   3.601  20.208  0.00  0.00    +0.000 HD
ENDBRANCH   5  29
TORSDOF 8
ENDMDL
