MODEL 1
REMARK VINA RESULT:      -6.9      0.000      0.000
REMARK  Name = 
REMARK  7 active torsions:
REMARK  status: ('A' for Active; 'I' for Inactive)
REMARK    1  A    between atoms: C_1  and  C_2
REMARK    2  A    between atoms: C_2  and  O_3
REMARK    3  A    between atoms: O_3  and  C_4
REMARK    4  A    between atoms: C_4  and  C_6
REMARK    5  A    between atoms: C_11  and  O_12
REMARK    6  A    between atoms: O_12  and  C_13
REMARK    7  A    between atoms: C_16  and  C_17
REMARK                            x       y       z     vdW  Elec       q    Type
REMARK                         _______ _______ _______ _____ _____    ______ ____
ROOT
ATOM      1  C   UNL     1       5.285   4.903  16.648  0.00  0.00    +0.000 A 
ATOM      2  N   UNL     1       5.117   3.543  16.780  0.00  0.00    +0.000 N 
ATOM      3  C   UNL     1       4.081   3.253  17.629  0.00  0.00    +0.000 A 
ATOM      4  C   UNL     1       3.614   2.020  18.092  0.00  0.00    +0.000 A 
ATOM      5  C   UNL     1       2.536   2.035  18.983  0.00  0.00    +0.000 A 
ATOM      6  C   UNL     1       1.943   3.230  19.394  0.00  0.00    +0.000 A 
ATOM      7  C   UNL     1       2.424   4.450  18.906  0.00  0.00    +0.000 A 
ATOM      8  C   UNL     1       3.516   4.466  18.008  0.00  0.00    +0.000 A 
ATOM      9  C   UNL     1       4.253   5.510  17.361  0.00  0.00    +0.000 A 
ATOM     10  C   UNL     1       3.985   6.972  17.487  0.00  0.00    +0.000 C 
ATOM     11  H   UNL     1       5.733   2.859  16.358  0.00  0.00    +0.000 HD
ENDROOT
BRANCH   1  12
ATOM     12  C   UNL     1       6.419   5.442  15.932  0.00  0.00    +0.000 C 
ATOM     13  O   UNL     1       6.376   5.826  14.769  0.00  0.00    +0.000 OA
BRANCH  12  14
ATOM     14  O   UNL     1       7.542   5.333  16.684  0.00  0.00    +0.000 OA
BRANCH  14  16
ATOM     15  C   UNL     1       7.676   7.537  17.592  0.00  0.00    +0.000 C 
ATOM     16  C   UNL     1       7.533   6.061  17.917  0.00  0.00    +0.000 C 
ENDBRANCH  14  16
ENDBRANCH  12  14
ENDBRANCH   1  12
BRANCH   6  17
ATOM     17  O   UNL     1       0.908   3.080  20.279  0.00  0.00    +0.000 OA
ATOM     18  C   UNL     1       1.252   2.684  21.601  0.00  0.00    +0.000 C 
ENDBRANCH   6  17
TORSDOF 4
ENDMDL
MODEL 2
REMARK VINA RESULT:      -6.9      1.122      2.071
REMARK  Name = 
REMARK  7 active torsions:
REMARK  status: ('A' for Active; 'I' for Inactive)
REMARK    1  A    between atoms: C_1  and  C_2
REMARK    2  A    between atoms: C_2  and  O_3
REMARK    3  A    between atoms: O_3  and  C_4
REMARK    4  A    between atoms: C_4  and  C_6
REMARK    5  A    between atoms: C_11  and  O_12
REMARK    6  A    between atoms: O_12  and  C_13
REMARK    7  A    between atoms: C_16  and  C_17
REMARK                            x       y       z     vdW  Elec       q    Type
REMARK                         _______ _______ _______ _____ _____    ______ ____
ROOT
ATOM      1  C   UNL     1       5.541   4.447  16.584  0.00  0.00    +0.000 A 
ATOM      2  N   UNL     1       5.165   3.131  16.728  0.00  0.00    +0.000 N 
ATOM      3  C   UNL     1       4.096   3.012  17.579  0.00  0.00    +0.000 A 
ATOM      4  C   UNL     1       3.444   1.871  18.052  0.00  0.00    +0.000 A 
ATOM      5  C   UNL     1       2.381   2.062  18.942  0.00  0.00    +0.000 A 
ATOM      6  C   UNL     1       1.981   3.338  19.340  0.00  0.00    +0.000 A 
ATOM      7  C   UNL     1       2.644   4.464  18.842  0.00  0.00    +0.000 A 
ATOM      8  C   UNL     1       3.726   4.302  17.946  0.00  0.00    +0.000 A 
ATOM      9  C   UNL     1       4.616   5.213  17.290  0.00  0.00    +0.000 A 
ATOM     10  C   UNL     1       4.577   6.700  17.402  0.00  0.00    +0.000 C 
ATOM     11  H   UNL     1       5.668   2.356  16.314  0.00  0.00    +0.000 HD
ENDROOT
BRANCH   1  12
ATOM     12  C   UNL     1       6.745   4.797  15.865  0.00  0.00    +0.000 C 
ATOM     13  O   UNL     1       7.874   4.709  16.333  0.00  0.00    +0.000 OA
BRANCH  12  14
ATOM     14  O   UNL     1       6.431   5.352  14.668  0.00  0.00    +0.000 OA
BRANCH  14  16
ATOM     15  C   UNL     1       6.137   3.677  12.992  0.00  0.00    +0.000 C 
ATOM     16  C   UNL     1       7.059   4.758  13.527  0.00  0.00    +0.000 C 
ENDBRANCH  14  16
ENDBRANCH  12  14
ENDBRANCH   1  12
BRANCH   6  17
ATOM     17  O   UNL     1       0.935   3.358  20.226  0.00  0.00    +0.000 OA
ATOM     18  C   UNL     1       1.193   2.853  21.530  0.00  0.00    +0.000 C 
ENDBRANCH   6  17
TORSDOF 4
ENDMDL
MODEL 3
REMARK VINA RESULT:      -6.8      1.420      5.672
REMARK  Name = 
REMARK  7 active torsions:
REMARK  status: ('A' for Active; 'I' for Inactive)
REMARK    1  A    between atoms: C_1  and  C_2
REMARK    2  A    between atoms: C_2  and  O_3
REMARK    3  A    between atoms: O_3  and  C_4
REMARK    4  A    between atoms: C_4  and  C_6
REMARK    5  A    between atoms: C_11  and  O_12
REMARK    6  A    between atoms: O_12  and  C_13
REMARK    7  A    between atoms: C_16  and  C_17
REMARK                            x       y       z     vdW  Elec       q    Type
REMARK                         _______ _______ _______ _____ _____    ______ ____
ROOT
ATOM      1  C   UNL     1       2.974   3.899  18.043  0.00  0.00    +0.000 A 
ATOM      2  N   UNL     1       3.863   3.337  17.155  0.00  0.00    +0.000 N 
ATOM      3  C   UNL     1       4.924   4.175  16.921  0.00  0.00    +0.000 A 
ATOM      4  C   UNL     1       6.007   4.033  16.050  0.00  0.00    +0.000 A 
ATOM      5  C   UNL     1       6.936   5.078  16.008  0.00  0.00    +0.000 A 
ATOM      6  C   UNL     1       6.795   6.215  16.804  0.00  0.00    +0.000 A 
ATOM      7  C   UNL     1       5.707   6.325  17.676  0.00  0.00    +0.000 A 
ATOM      8  C   UNL     1       4.748   5.288  17.735  0.00  0.00    +0.000 A 
ATOM      9  C   UNL     1       3.534   5.100  18.473  0.00  0.00    +0.000 A 
ATOM     10  C   UNL     1       2.964   6.054  19.469  0.00  0.00    +0.000 C 
ATOM     11  H   UNL     1       3.705   2.454  16.687  0.00  0.00    +0.000 HD
ENDROOT
BRANCH   1  12
ATOM     12  C   UNL     1       1.702   3.268  18.313  0.00  0.00    +0.000 C 
ATOM     13  O   UNL     1       0.664   3.533  17.717  0.00  0.00    +0.000 OA
BRANCH  12  14
ATOM     14  O   UNL     1       1.802   2.455  19.393  0.00  0.00    +0.000 OA
BRANCH  14  16
ATOM     15  C   UNL     1       2.226   3.041  21.669  0.00  0.00    +0.000 C 
ATOM     16  C   UNL     1       1.168   2.929  20.586  0.00  0.00    +0.000 C 
ENDBRANCH  14  16
ENDBRANCH  12  14
ENDBRANCH   1  12
BRANCH   6  17
ATOM     17  O   UNL     1       7.779   7.155  16.639  0.00  0.00    +0.000 OA
ATOM     18  C   UNL     1       7.859   8.176  17.626  0.00  0.00    +0.000 C 
ENDBRANCH   6  17
TORSDOF 4
ENDMDL
MODEL 4
REMARK VINA RESULT:      -6.7      1.706      5.714
REMARK  Name = 
REMARK  7 active torsions:
REMARK  status: ('A' for Active; 'I' for Inactive)
REMARK    1  A    between atoms: C_1  and  C_2
REMARK    2  A    between atoms: C_2  and  O_3
REMARK    3  A    between atoms: O_3  and  C_4
REMARK    4  A    between atoms: C_4  and  C_6
REMARK    5  A    between atoms: C_11  and  O_12
REMARK    6  A    between atoms: O_12  and  C_13
REMARK    7  A    between atoms: C_16  and  C_17
REMARK                            x       y       z     vdW  Elec       q    Type
REMARK                         _______ _______ _______ _____ _____    ______ ____
ROOT
ATOM      1  C   UNL     1       3.973   3.532  18.496  0.00  0.00    +0.000 A 
ATOM      2  N   UNL     1       5.336   3.409  18.646  0.00  0.00    +0.000 N 
ATOM      3  C   UNL     1       5.978   4.571  18.302  0.00  0.00    +0.000 A 
ATOM      4  C   UNL     1       7.343   4.861  18.243  0.00  0.00    +0.000 A 
ATOM      5  C   UNL     1       7.708   6.147  17.830  0.00  0.00    +0.000 A 
ATOM      6  C   UNL     1       6.752   7.107  17.495  0.00  0.00    +0.000 A 
ATOM      7  C   UNL     1       5.392   6.793  17.575  0.00  0.00    +0.000 A 
ATOM      8  C   UNL     1       4.993   5.499  17.983  0.00  0.00    +0.000 A 
ATOM      9  C   UNL     1       3.722   4.855  18.139  0.00  0.00    +0.000 A 
ATOM     10  C   UNL     1       2.392   5.487  17.902  0.00  0.00    +0.000 C 
ATOM     11  H   UNL     1       5.795   2.545  18.904  0.00  0.00    +0.000 HD
ENDROOT
BRANCH   1  12
ATOM     12  C   UNL     1       3.107   2.385  18.643  0.00  0.00    +0.000 C 
ATOM     13  O   UNL     1       2.521   1.844  17.712  0.00  0.00    +0.000 OA
BRANCH  12  14
ATOM     14  O   UNL     1       2.939   2.090  19.955  0.00  0.00    +0.000 OA
BRANCH  14  16
ATOM     15  C   UNL     1       2.058   3.559  21.619  0.00  0.00    +0.000 C 
ATOM     16  C   UNL     1       1.715   2.546  20.541  0.00  0.00    +0.000 C 
ENDBRANCH  14  16
ENDBRANCH  12  14
ENDBRANCH   1  12
BRANCH   6  17
ATOM     17  O   UNL     1       7.267   8.313  17.097  0.00  0.00    +0.000 OA
ATOM     18  C   UNL     1       8.195   8.933  17.980  0.00  0.00    +0.000 C 
ENDBRANCH   6  17
TORSDOF 4
ENDMDL
MODEL 5
REMARK VINA RESULT:      -6.7      1.491      6.028
REMARK  Name = 
REMARK  7 active torsions:
REMARK  status: ('A' for Active; 'I' for Inactive)
REMARK    1  A    between atoms: C_1  and  C_2
REMARK    2  A    between atoms: C_2  and  O_3
REMARK    3  A    between atoms: O_3  and  C_4
REMARK    4  A    between atoms: C_4  and  C_6
REMARK    5  A    between atoms: C_11  and  O_12
REMARK    6  A    between atoms: O_12  and  C_13
REMARK    7  A    between atoms: C_16  and  C_17
REMARK                            x       y       z     vdW  Elec       q    Type
REMARK                         _______ _______ _______ _____ _____    ______ ____
ROOT
ATOM      1  C   UNL     1       2.133   3.932  18.501  0.00  0.00    +0.000 A 
ATOM      2  N   UNL     1       2.301   5.278  18.263  0.00  0.00    +0.000 N 
ATOM      3  C   UNL     1       3.478   5.520  17.602  0.00  0.00    +0.000 A 
ATOM      4  C   UNL     1       4.067   6.730  17.227  0.00  0.00    +0.000 A 
ATOM      5  C   UNL     1       5.302   6.666  16.572  0.00  0.00    +0.000 A 
ATOM      6  C   UNL     1       5.923   5.447  16.298  0.00  0.00    +0.000 A 
ATOM      7  C   UNL     1       5.305   4.250  16.675  0.00  0.00    +0.000 A 
ATOM      8  C   UNL     1       4.059   4.283  17.343  0.00  0.00    +0.000 A 
ATOM      9  C   UNL     1       3.194   3.275  17.879  0.00  0.00    +0.000 A 
ATOM     10  C   UNL     1       3.432   1.803  17.822  0.00  0.00    +0.000 C 
ATOM     11  H   UNL     1       1.668   5.990  18.604  0.00  0.00    +0.000 HD
ENDROOT
BRANCH   1  12
ATOM     12  C   UNL     1       1.047   3.457  19.326  0.00  0.00    +0.000 C 
ATOM     13  O   UNL     1       0.232   2.614  18.970  0.00  0.00    +0.000 OA
BRANCH  12  14
ATOM     14  O   UNL     1       0.988   4.169  20.478  0.00  0.00    +0.000 OA
BRANCH  14  16
ATOM     15  C   UNL     1       2.050   2.504  21.821  0.00  0.00    +0.000 C 
ATOM     16  C   UNL     1       2.072   3.960  21.390  0.00  0.00    +0.000 C 
ENDBRANCH  14  16
ENDBRANCH  12  14
ENDBRANCH   1  12
BRANCH   6  17
ATOM     17  O   UNL     1       7.134   5.551  15.665  0.00  0.00    +0.000 OA
ATOM     18  C   UNL     1       7.249   4.914  14.399  0.00  0.00    +0.000 C 
ENDBRANCH   6  17
TORSDOF 4
ENDMDL
MODEL 6
REMARK VINA RESULT:      -6.6      1.981      2.987
REMARK  Name = 
REMARK  7 active torsions:
REMARK  status: ('A' for Active; 'I' for Inactive)
REMARK    1  A    between atoms: C_1  and  C_2
REMARK    2  A    between atoms: C_2  and  O_3
REMARK    3  A    between atoms: O_3  and  C_4
REMARK    4  A    between atoms: C_4  and  C_6
REMARK    5  A    between atoms: C_11  and  O_12
REMARK    6  A    between atoms: O_12  and  C_13
REMARK    7  A    between atoms: C_16  and  C_17
REMARK                            x       y       z     vdW  Elec       q    Type
REMARK                         _______ _______ _______ _____ _____    ______ ____
ROOT
ATOM      1  C   UNL     1       5.927   4.420  15.962  0.00  0.00    +0.000 A 
ATOM      2  N   UNL     1       4.585   4.143  15.818  0.00  0.00    +0.000 N 
ATOM      3  C   UNL     1       3.994   3.912  17.034  0.00  0.00    +0.000 A 
ATOM      4  C   UNL     1       2.685   3.537  17.340  0.00  0.00    +0.000 A 
ATOM      5  C   UNL     1       2.371   3.350  18.691  0.00  0.00    +0.000 A 
ATOM      6  C   UNL     1       3.322   3.533  19.695  0.00  0.00    +0.000 A 
ATOM      7  C   UNL     1       4.624   3.921  19.360  0.00  0.00    +0.000 A 
ATOM      8  C   UNL     1       4.972   4.112  18.003  0.00  0.00    +0.000 A 
ATOM      9  C   UNL     1       6.186   4.468  17.330  0.00  0.00    +0.000 A 
ATOM     10  C   UNL     1       7.489   4.772  17.990  0.00  0.00    +0.000 C 
ATOM     11  H   UNL     1       4.126   4.051  14.921  0.00  0.00    +0.000 HD
ENDROOT
BRANCH   1  12
ATOM     12  C   UNL     1       6.786   4.535  14.806  0.00  0.00    +0.000 C 
ATOM     13  O   UNL     1       7.528   5.487  14.595  0.00  0.00    +0.000 OA
BRANCH  12  14
ATOM     14  O   UNL     1       6.550   3.516  13.944  0.00  0.00    +0.000 OA
BRANCH  14  16
ATOM     15  C   UNL     1       5.234   3.257  11.968  0.00  0.00    +0.000 C 
ATOM     16  C   UNL     1       6.487   3.878  12.560  0.00  0.00    +0.000 C 
ENDBRANCH  14  16
ENDBRANCH  12  14
ENDBRANCH   1  12
BRANCH   6  17
ATOM     17  O   UNL     1       2.866   3.298  20.966  0.00  0.00    +0.000 OA
ATOM     18  C   UNL     1       1.462   3.122  21.117  0.00  0.00    +0.000 C 
ENDBRANCH   6  17
TORSDOF 4
ENDMDL
MODEL 7
REMARK VINA RESULT:      -6.5      1.973      5.834
REMARK  Name = 
REMARK  7 active torsions:
REMARK  status: ('A' for Active; 'I' for Inactive)
REMARK    1  A    between atoms: C_1  and  C_2
REMARK    2  A    between atoms: C_2  and  O_3
REMARK    3  A    between atoms: O_3  and  C_4
REMARK    4  A    between atoms: C_4  and  C_6
REMARK    5  A    between atoms: C_11  and  O_12
REMARK    6  A    between atoms: O_12  and  C_13
REMARK    7  A    between atoms: C_16  and  C_17
REMARK                            x       y       z     vdW  Elec       q    Type
REMARK                         _______ _______ _______ _____ _____    ______ ____
ROOT
ATOM      1  C   UNL     1       4.351   3.225  19.200  0.00  0.00    +0.000 A 
ATOM      2  N   UNL     1       5.594   3.817  19.213  0.00  0.00    +0.000 N 
ATOM      3  C   UNL     1       6.007   4.125  17.942  0.00  0.00    +0.000 A 
ATOM      4  C   UNL     1       7.214   4.668  17.495  0.00  0.00    +0.000 A 
ATOM      5  C   UNL     1       7.363   4.854  16.116  0.00  0.00    +0.000 A 
ATOM      6  C   UNL     1       6.348   4.517  15.219  0.00  0.00    +0.000 A 
ATOM      7  C   UNL     1       5.145   3.986  15.696  0.00  0.00    +0.000 A 
ATOM      8  C   UNL     1       4.968   3.781  17.084  0.00  0.00    +0.000 A 
ATOM      9  C   UNL     1       3.905   3.244  17.880  0.00  0.00    +0.000 A 
ATOM     10  C   UNL     1       2.596   2.750  17.365  0.00  0.00    +0.000 C 
ATOM     11  H   UNL     1       6.150   3.935  20.050  0.00  0.00    +0.000 HD
ENDROOT
BRANCH   1  12
ATOM     12  C   UNL     1       3.786   2.668  20.408  0.00  0.00    +0.000 C 
ATOM     13  O   UNL     1       4.386   1.907  21.159  0.00  0.00    +0.000 OA
BRANCH  12  14
ATOM     14  O   UNL     1       2.476   3.001  20.509  0.00  0.00    +0.000 OA
BRANCH  14  16
ATOM     15  C   UNL     1       1.696   5.255  20.625  0.00  0.00    +0.000 C 
ATOM     16  C   UNL     1       2.176   4.058  21.427  0.00  0.00    +0.000 C 
ENDBRANCH  14  16
ENDBRANCH  12  14
ENDBRANCH   1  12
BRANCH   6  17
ATOM     17  O   UNL     1       6.650   4.744  13.902  0.00  0.00    +0.000 OA
ATOM     18  C   UNL     1       6.262   3.738  12.976  0.00  0.00    +0.000 C 
ENDBRANCH   6  17
TORSDOF 4
ENDMDL
MODEL 8
REMARK VINA RESULT:      -6.5      2.122      3.049
REMARK  Name = 
REMARK  7 active torsions:
REMARK  status: ('A' for Active; 'I' for Inactive)
REMARK    1  A    between atoms: C_1  and  C_2
REMARK    2  A    between atoms: C_2  and  O_3
REMARK    3  A    between atoms: O_3  and  C_4
REMARK    4  A    between atoms: C_4  and  C_6
REMARK    5  A    between atoms: C_11  and  O_12
REMARK    6  A    between atoms: O_12  and  C_13
REMARK    7  A    between atoms: C_16  and  C_17
REMARK                            x       y       z     vdW  Elec       q    Type
REMARK                         _______ _______ _______ _____ _____    ______ ____
ROOT
ATOM      1  C   UNL     1       5.563   4.496  16.963  0.00  0.00    +0.000 A 
ATOM      2  N   UNL     1       5.097   3.612  17.911  0.00  0.00    +0.000 N 
ATOM      3  C   UNL     1       4.164   4.204  18.722  0.00  0.00    +0.000 A 
ATOM      4  C   UNL     1       3.493   3.699  19.838  0.00  0.00    +0.000 A 
ATOM      5  C   UNL     1       2.598   4.555  20.490  0.00  0.00    +0.000 A 
ATOM      6  C   UNL     1       2.378   5.859  20.046  0.00  0.00    +0.000 A 
ATOM      7  C   UNL     1       3.055   6.335  18.918  0.00  0.00    +0.000 A 
ATOM      8  C   UNL     1       3.970   5.494  18.242  0.00  0.00    +0.000 A 
ATOM      9  C   UNL     1       4.827   5.670  17.108  0.00  0.00    +0.000 A 
ATOM     10  C   UNL     1       4.938   6.910  16.285  0.00  0.00    +0.000 C 
ATOM     11  H   UNL     1       5.460   2.675  18.028  0.00  0.00    +0.000 HD
ENDROOT
BRANCH   1  12
ATOM     12  C   UNL     1       6.670   4.143  16.103  0.00  0.00    +0.000 C 
ATOM     13  O   UNL     1       7.838   4.431  16.335  0.00  0.00    +0.000 OA
BRANCH  12  14
ATOM     14  O   UNL     1       6.212   3.575  14.961  0.00  0.00    +0.000 OA
BRANCH  14  16
ATOM     15  C   UNL     1       6.020   3.449  12.584  0.00  0.00    +0.000 C 
ATOM     16  C   UNL     1       6.523   4.278  13.753  0.00  0.00    +0.000 C 
ENDBRANCH  14  16
ENDBRANCH  12  14
ENDBRANCH   1  12
BRANCH   6  17
ATOM     17  O   UNL     1       1.485   6.577  20.798  0.00  0.00    +0.000 OA
ATOM     18  C   UNL     1       1.485   7.987  20.615  0.00  0.00    +0.000 C 
ENDBRANCH   6  17
TORSDOF 4
ENDMDL
MODEL 9
REMARK VINA RESULT:      -6.5      1.333      2.119
REMARK  Name = 
REMARK  7 active torsions:
REMARK  status: ('A' for Active; 'I' for Inactive)
REMARK    1  A    between atoms: C_1  and  C_2
REMARK    2  A    between atoms: C_2  and  O_3
REMARK    3  A    between atoms: O_3  and  C_4
REMARK    4  A    between atoms: C_4  and  C_6
REMARK    5  A    between atoms: C_11  and  O_12
REMARK    6  A    between atoms: O_12  and  C_13
REMARK    7  A    between atoms: C_16  and  C_17
REMARK                            x       y       z     vdW  Elec       q    Type
REMARK                         _______ _______ _______ _____ _____    ______ ____
ROOT
ATOM      1  C   UNL     1       5.562   5.326  17.093  0.00  0.00    +0.000 A 
ATOM      2  N   UNL     1       5.658   4.048  17.597  0.00  0.00    +0.000 N 
ATOM      3  C   UNL     1       4.702   3.820  18.553  0.00  0.00    +0.000 A 
ATOM      4  C   UNL     1       4.483   2.699  19.357  0.00  0.00    +0.000 A 
ATOM      5  C   UNL     1       3.428   2.763  20.273  0.00  0.00    +0.000 A 
ATOM      6  C   UNL     1       2.620   3.897  20.381  0.00  0.00    +0.000 A 
ATOM      7  C   UNL     1       2.855   5.001  19.555  0.00  0.00    +0.000 A 
ATOM      8  C   UNL     1       3.919   4.967  18.623  0.00  0.00    +0.000 A 
ATOM      9  C   UNL     1       4.438   5.908  17.676  0.00  0.00    +0.000 A 
ATOM     10  C   UNL     1       3.896   7.274  17.419  0.00  0.00    +0.000 C 
ATOM     11  H   UNL     1       6.391   3.398  17.340  0.00  0.00    +0.000 HD
ENDROOT
BRANCH   1  12
ATOM     12  C   UNL     1       6.567   5.843  16.193  0.00  0.00    +0.000 C 
ATOM     13  O   UNL     1       7.549   6.481  16.554  0.00  0.00    +0.000 OA
BRANCH  12  14
ATOM     14  O   UNL     1       6.195   5.635  14.906  0.00  0.00    +0.000 OA
BRANCH  14  16
ATOM     15  C   UNL     1       5.947   3.809  13.387  0.00  0.00    +0.000 C 
ATOM     16  C   UNL     1       6.931   4.627  14.204  0.00  0.00    +0.000 C 
ENDBRANCH  14  16
ENDBRANCH  12  14
ENDBRANCH   1  12
BRANCH   6  17
ATOM     17  O   UNL     1       1.639   3.811  21.334  0.00  0.00    +0.000 OA
ATOM     18  C   UNL     1       1.333   2.510  21.819  0.00  0.00    +0.000 C 
ENDBRANCH   6  17
TORSDOF 4
ENDMDL
