MODEL 1
REMARK VINA RESULT:      -8.8      0.000      0.000
REMARK  Name = 
REMARK  9 active torsions:
REMARK  status: ('A' for Active; 'I' for Inactive)
REMARK    1  A    between atoms: C_1  and  O_2
REMARK    2  A    between atoms: O_2  and  C_3
REMARK    3  A    between atoms: C_9  and  C_10
REMARK    4  A    between atoms: C_10  and  C_11
REMARK    5  A    between atoms: C_16  and  C_17
REMARK    6  A    between atoms: C_21  and  C_22
REMARK    7  A    between atoms: C_22  and  O_23
REMARK    8  A    between atoms: C_30  and  O_31
REMARK    9  A    between atoms: O_31  and  C_32
REMARK                            x       y       z     vdW  Elec       q    Type
REMARK                         _______ _______ _______ _____ _____    ______ ____
ROOT
ATOM      1  C   UNL     1       1.899   7.196  20.287  0.00  0.00    +0.000 A 
ATOM      2  C   UNL     1       2.001   8.016  19.145  0.00  0.00    +0.000 A 
ATOM      3  C   UNL     1       1.397   9.280  19.077  0.00  0.00    +0.000 A 
ATOM      4  C   UNL     1       0.699   9.676  20.210  0.00  0.00    +0.000 A 
ATOM      5  O   UNL     1       0.084  10.874  20.428  0.00  0.00    +0.000 OA
ATOM      6  C   UNL     1      -0.411  10.764  21.705  0.00  0.00    +0.000 A 
ATOM      7  N   UNL     1      -0.177   9.598  22.285  0.00  0.00    +0.000 NA
ATOM      8  C   UNL     1       0.537   8.901  21.344  0.00  0.00    +0.000 A 
ATOM      9  C   UNL     1       1.118   7.625  21.384  0.00  0.00    +0.000 A 
ENDROOT
BRANCH   6  10
ATOM     10  C   UNL     1      -1.063  11.949  22.260  0.00  0.00    +0.000 A 
ATOM     11  C   UNL     1      -0.429  13.200  22.299  0.00  0.00    +0.000 A 
ATOM     12  C   UNL     1      -1.069  14.312  22.854  0.00  0.00    +0.000 A 
ATOM     13  C   UNL     1      -2.354  14.185  23.378  0.00  0.00    +0.000 A 
ATOM     14  C   UNL     1      -3.014  12.951  23.350  0.00  0.00    +0.000 A 
ATOM     15  C   UNL     1      -2.359  11.842  22.789  0.00  0.00    +0.000 A 
BRANCH  14  16
ATOM     16  C   UNL     1      -4.404  12.824  23.915  0.00  0.00    +0.000 C 
BRANCH  16  17
ATOM     17  O   UNL     1      -4.446  11.801  24.901  0.00  0.00    +0.000 OA
ATOM     18  H   UNL     1      -3.573  11.372  24.900  0.00  0.00    +0.000 HD
ENDBRANCH  16  17
ENDBRANCH  14  16
ENDBRANCH   6  10
BRANCH   1  19
ATOM     19  C   UNL     1       2.690   5.906  20.384  0.00  0.00    +0.000 C 
BRANCH  19  26
ATOM     20  C   UNL     1       6.201   4.714  16.589  0.00  0.00    +0.000 A 
ATOM     21  C   UNL     1       4.991   4.075  16.298  0.00  0.00    +0.000 A 
ATOM     22  C   UNL     1       3.876   4.197  17.145  0.00  0.00    +0.000 A 
ATOM     23  C   UNL     1       2.694   3.507  16.880  0.00  0.00    +0.000 A 
ATOM     24  N   UNL     1       1.589   3.554  17.650  0.00  0.00    +0.000 NA
ATOM     25  C   UNL     1       1.655   4.344  18.739  0.00  0.00    +0.000 A 
ATOM     26  C   UNL     1       2.776   5.088  19.120  0.00  0.00    +0.000 A 
ATOM     27  C   UNL     1       3.933   5.002  18.301  0.00  0.00    +0.000 A 
ATOM     28  C   UNL     1       5.159   5.657  18.562  0.00  0.00    +0.000 A 
ATOM     29  C   UNL     1       6.267   5.549  17.708  0.00  0.00    +0.000 A 
BRANCH  20  31
ATOM     30  C   UNL     1       7.164   4.833  14.436  0.00  0.00    +0.000 C 
ATOM     31  O   UNL     1       7.325   4.544  15.823  0.00  0.00    +0.000 OA
ENDBRANCH  20  31
BRANCH  29  32
ATOM     32  O   UNL     1       7.364   6.254  18.136  0.00  0.00    +0.000 OA
ATOM     33  C   UNL     1       7.552   7.531  17.534  0.00  0.00    +0.000 C 
ENDBRANCH  29  32
ENDBRANCH  19  26
ENDBRANCH   1  19
TORSDOF 7
ENDMDL
MODEL 2
REMARK VINA RESULT:      -8.5      3.396     10.267
REMARK  Name = 
REMARK  9 active torsions:
REMARK  status: ('A' for Active; 'I' for Inactive)
REMARK    1  A    between atoms: C_1  and  O_2
REMARK    2  A    between atoms: O_2  and  C_3
REMARK    3  A    between atoms: C_9  and  C_10
REMARK    4  A    between atoms: C_10  and  C_11
REMARK    5  A    between atoms: C_16  and  C_17
REMARK    6  A    between atoms: C_21  and  C_22
REMARK    7  A    between atoms: C_22  and  O_23
REMARK    8  A    between atoms: C_30  and  O_31
REMARK    9  A    between atoms: O_31  and  C_32
REMARK                            x       y       z     vdW  Elec       q    Type
REMARK                         _______ _______ _______ _____ _____    ______ ____
ROOT
ATOM      1  C   UNL     1       0.602  10.720  20.186  0.00  0.00    +0.000 A 
ATOM      2  C   UNL     1       0.592   9.873  21.312  0.00  0.00    +0.000 A 
ATOM      3  C   UNL     1       1.107   8.568  21.269  0.00  0.00    +0.000 A 
ATOM      4  C   UNL     1       1.633   8.169  20.048  0.00  0.00    +0.000 A 
ATOM      5  O   UNL     1       2.252   6.988  19.759  0.00  0.00    +0.000 OA
ATOM      6  C   UNL     1       2.617   7.119  18.441  0.00  0.00    +0.000 A 
ATOM      7  N   UNL     1       2.258   8.264  17.885  0.00  0.00    +0.000 NA
ATOM      8  C   UNL     1       1.639   8.943  18.903  0.00  0.00    +0.000 A 
ATOM      9  C   UNL     1       1.089  10.233  18.952  0.00  0.00    +0.000 A 
ENDROOT
BRANCH   6  10
ATOM     10  C   UNL     1       3.389   6.021  17.862  0.00  0.00    +0.000 A 
ATOM     11  C   UNL     1       4.451   6.244  16.973  0.00  0.00    +0.000 A 
ATOM     12  C   UNL     1       5.160   5.174  16.418  0.00  0.00    +0.000 A 
ATOM     13  C   UNL     1       4.812   3.865  16.746  0.00  0.00    +0.000 A 
ATOM     14  C   UNL     1       3.760   3.611  17.634  0.00  0.00    +0.000 A 
ATOM     15  C   UNL     1       3.057   4.695  18.184  0.00  0.00    +0.000 A 
BRANCH  14  16
ATOM     16  C   UNL     1       3.395   2.193  17.987  0.00  0.00    +0.000 C 
BRANCH  16  17
ATOM     17  O   UNL     1       2.112   1.869  17.468  0.00  0.00    +0.000 OA
ATOM     18  H   UNL     1       2.258   1.365  16.648  0.00  0.00    +0.000 HD
ENDBRANCH  16  17
ENDBRANCH  14  16
ENDBRANCH   6  10
BRANCH   1  19
ATOM     19  C   UNL     1       0.179  12.172  20.310  0.00  0.00    +0.000 C 
BRANCH  19  26
ATOM     20  C   UNL     1      -4.702  11.837  18.258  0.00  0.00    +0.000 A 
ATOM     21  C   UNL     1      -4.799  12.305  19.573  0.00  0.00    +0.000 A 
ATOM     22  C   UNL     1      -3.657  12.478  20.375  0.00  0.00    +0.000 A 
ATOM     23  C   UNL     1      -3.768  12.885  21.703  0.00  0.00    +0.000 A 
ATOM     24  N   UNL     1      -2.728  13.055  22.543  0.00  0.00    +0.000 NA
ATOM     25  C   UNL     1      -1.504  12.822  22.030  0.00  0.00    +0.000 A 
ATOM     26  C   UNL     1      -1.253  12.410  20.718  0.00  0.00    +0.000 A 
ATOM     27  C   UNL     1      -2.370  12.218  19.862  0.00  0.00    +0.000 A 
ATOM     28  C   UNL     1      -2.296  11.769  18.524  0.00  0.00    +0.000 A 
ATOM     29  C   UNL     1      -3.433  11.613  17.717  0.00  0.00    +0.000 A 
BRANCH  20  31
ATOM     30  C   UNL     1      -6.607  12.722  17.178  0.00  0.00    +0.000 C 
ATOM     31  O   UNL     1      -5.805  11.583  17.485  0.00  0.00    +0.000 OA
ENDBRANCH  20  31
BRANCH  29  32
ATOM     32  O   UNL     1      -3.155  11.163  16.451  0.00  0.00    +0.000 OA
ATOM     33  C   UNL     1      -2.484   9.910  16.374  0.00  0.00    +0.000 C 
ENDBRANCH  29  32
ENDBRANCH  19  26
ENDBRANCH   1  19
TORSDOF 7
ENDMDL
MODEL 3
REMARK VINA RESULT:      -8.5      0.991      1.003
REMARK  Name = 
REMARK  9 active torsions:
REMARK  status: ('A' for Active; 'I' for Inactive)
REMARK    1  A    between atoms: C_1  and  O_2
REMARK    2  A    between atoms: O_2  and  C_3
REMARK    3  A    between atoms: C_9  and  C_10
REMARK    4  A    between atoms: C_10  and  C_11
REMARK    5  A    between atoms: C_16  and  C_17
REMARK    6  A    between atoms: C_21  and  C_22
REMARK    7  A    between atoms: C_22  and  O_23
REMARK    8  A    between atoms: C_30  and  O_31
REMARK    9  A    between atoms: O_31  and  C_32
REMARK                            x       y       z     vdW  Elec       q    Type
REMARK                         _______ _______ _______ _____ _____    ______ ____
ROOT
ATOM      1  C   UNL     1       2.217   7.564  19.597  0.00  0.00    +0.000 A 
ATOM      2  C   UNL     1       2.111   8.271  18.382  0.00  0.00    +0.000 A 
ATOM      3  C   UNL     1       1.307   9.414  18.252  0.00  0.00    +0.000 A 
ATOM      4  C   UNL     1       0.631   9.809  19.397  0.00  0.00    +0.000 A 
ATOM      5  O   UNL     1      -0.153  10.914  19.558  0.00  0.00    +0.000 OA
ATOM      6  C   UNL     1      -0.538  10.858  20.876  0.00  0.00    +0.000 A 
ATOM      7  N   UNL     1      -0.081   9.806  21.535  0.00  0.00    +0.000 NA
ATOM      8  C   UNL     1       0.672   9.137  20.605  0.00  0.00    +0.000 A 
ATOM      9  C   UNL     1       1.452   7.976  20.711  0.00  0.00    +0.000 A 
ENDROOT
BRANCH   6  10
ATOM     10  C   UNL     1      -1.334  11.978  21.374  0.00  0.00    +0.000 A 
ATOM     11  C   UNL     1      -1.285  13.250  20.784  0.00  0.00    +0.000 A 
ATOM     12  C   UNL     1      -2.043  14.308  21.294  0.00  0.00    +0.000 A 
ATOM     13  C   UNL     1      -2.860  14.106  22.405  0.00  0.00    +0.000 A 
ATOM     14  C   UNL     1      -2.933  12.847  23.013  0.00  0.00    +0.000 A 
ATOM     15  C   UNL     1      -2.167  11.793  22.490  0.00  0.00    +0.000 A 
BRANCH  14  16
ATOM     16  C   UNL     1      -3.821  12.637  24.211  0.00  0.00    +0.000 C 
BRANCH  16  17
ATOM     17  O   UNL     1      -3.742  13.753  25.089  0.00  0.00    +0.000 OA
ATOM     18  H   UNL     1      -2.852  13.739  25.482  0.00  0.00    +0.000 HD
ENDBRANCH  16  17
ENDBRANCH  14  16
ENDBRANCH   6  10
BRANCH   1  19
ATOM     19  C   UNL     1       3.211   6.428  19.743  0.00  0.00    +0.000 C 
BRANCH  19  26
ATOM     20  C   UNL     1       6.052   4.626  15.641  0.00  0.00    +0.000 A 
ATOM     21  C   UNL     1       4.883   3.865  15.746  0.00  0.00    +0.000 A 
ATOM     22  C   UNL     1       3.940   4.107  16.760  0.00  0.00    +0.000 A 
ATOM     23  C   UNL     1       2.809   3.304  16.895  0.00  0.00    +0.000 A 
ATOM     24  N   UNL     1       1.870   3.457  17.849  0.00  0.00    +0.000 NA
ATOM     25  C   UNL     1       2.056   4.475  18.711  0.00  0.00    +0.000 A 
ATOM     26  C   UNL     1       3.143   5.352  18.688  0.00  0.00    +0.000 A 
ATOM     27  C   UNL     1       4.129   5.155  17.685  0.00  0.00    +0.000 A 
ATOM     28  C   UNL     1       5.306   5.924  17.544  0.00  0.00    +0.000 A 
ATOM     29  C   UNL     1       6.239   5.695  16.522  0.00  0.00    +0.000 A 
BRANCH  20  31
ATOM     30  C   UNL     1       6.545   3.959  13.430  0.00  0.00    +0.000 C 
ATOM     31  O   UNL     1       7.024   4.357  14.712  0.00  0.00    +0.000 OA
ENDBRANCH  20  31
BRANCH  29  32
ATOM     32  O   UNL     1       7.317   6.544  16.557  0.00  0.00    +0.000 OA
ATOM     33  C   UNL     1       7.575   7.163  17.813  0.00  0.00    +0.000 C 
ENDBRANCH  29  32
ENDBRANCH  19  26
ENDBRANCH   1  19
TORSDOF 7
ENDMDL
MODEL 4
REMARK VINA RESULT:      -8.4      3.127     10.406
REMARK  Name = 
REMARK  9 active torsions:
REMARK  status: ('A' for Active; 'I' for Inactive)
REMARK    1  A    between atoms: C_1  and  O_2
REMARK    2  A    between atoms: O_2  and  C_3
REMARK    3  A    between atoms: C_9  and  C_10
REMARK    4  A    between atoms: C_10  and  C_11
REMARK    5  A    between atoms: C_16  and  C_17
REMARK    6  A    between atoms: C_21  and  C_22
REMARK    7  A    between atoms: C_22  and  O_23
REMARK    8  A    between atoms: C_30  and  O_31
REMARK    9  A    between atoms: O_31  and  C_32
REMARK                            x       y       z     vdW  Elec       q    Type
REMARK                         _______ _______ _______ _____ _____    ______ ____
ROOT
ATOM      1  C   UNL     1       0.734  10.718  20.201  0.00  0.00    +0.000 A 
ATOM      2  C   UNL     1       0.744   9.864  21.322  0.00  0.00    +0.000 A 
ATOM      3  C   UNL     1       1.234   8.551  21.256  0.00  0.00    +0.000 A 
ATOM      4  C   UNL     1       1.713   8.149  20.018  0.00  0.00    +0.000 A 
ATOM      5  O   UNL     1       2.300   6.958  19.703  0.00  0.00    +0.000 OA
ATOM      6  C   UNL     1       2.626   7.090  18.375  0.00  0.00    +0.000 A 
ATOM      7  N   UNL     1       2.271   8.245  17.836  0.00  0.00    +0.000 NA
ATOM      8  C   UNL     1       1.697   8.929  18.877  0.00  0.00    +0.000 A 
ATOM      9  C   UNL     1       1.173  10.229  18.950  0.00  0.00    +0.000 A 
ENDROOT
BRANCH   6  10
ATOM     10  C   UNL     1       3.359   5.981  17.766  0.00  0.00    +0.000 A 
ATOM     11  C   UNL     1       2.888   4.661  17.812  0.00  0.00    +0.000 A 
ATOM     12  C   UNL     1       3.620   3.618  17.237  0.00  0.00    +0.000 A 
ATOM     13  C   UNL     1       4.835   3.883  16.610  0.00  0.00    +0.000 A 
ATOM     14  C   UNL     1       5.329   5.192  16.544  0.00  0.00    +0.000 A 
ATOM     15  C   UNL     1       4.584   6.231  17.124  0.00  0.00    +0.000 A 
BRANCH  14  16
ATOM     16  C   UNL     1       6.642   5.471  15.860  0.00  0.00    +0.000 C 
BRANCH  16  17
ATOM     17  O   UNL     1       7.393   6.423  16.600  0.00  0.00    +0.000 OA
ATOM     18  H   UNL     1       7.447   6.093  17.513  0.00  0.00    +0.000 HD
ENDBRANCH  16  17
ENDBRANCH  14  16
ENDBRANCH   6  10
BRANCH   1  19
ATOM     19  C   UNL     1       0.342  12.176  20.345  0.00  0.00    +0.000 C 
BRANCH  19  26
ATOM     20  C   UNL     1      -4.626  11.875  18.509  0.00  0.00    +0.000 A 
ATOM     21  C   UNL     1      -4.661  12.362  19.819  0.00  0.00    +0.000 A 
ATOM     22  C   UNL     1      -3.484  12.531  20.569  0.00  0.00    +0.000 A 
ATOM     23  C   UNL     1      -3.533  12.958  21.895  0.00  0.00    +0.000 A 
ATOM     24  N   UNL     1      -2.456  13.127  22.687  0.00  0.00    +0.000 NA
ATOM     25  C   UNL     1      -1.258  12.871  22.126  0.00  0.00    +0.000 A 
ATOM     26  C   UNL     1      -1.068  12.438  20.811  0.00  0.00    +0.000 A 
ATOM     27  C   UNL     1      -2.223  12.248  20.006  0.00  0.00    +0.000 A 
ATOM     28  C   UNL     1      -2.211  11.780  18.673  0.00  0.00    +0.000 A 
ATOM     29  C   UNL     1      -3.384  11.627  17.917  0.00  0.00    +0.000 A 
BRANCH  20  31
ATOM     30  C   UNL     1      -6.351  12.764  17.163  0.00  0.00    +0.000 C 
ATOM     31  O   UNL     1      -5.764  11.624  17.787  0.00  0.00    +0.000 OA
ENDBRANCH  20  31
BRANCH  29  32
ATOM     32  O   UNL     1      -3.165  11.156  16.647  0.00  0.00    +0.000 OA
ATOM     33  C   UNL     1      -2.306  10.025  16.547  0.00  0.00    +0.000 C 
ENDBRANCH  29  32
ENDBRANCH  19  26
ENDBRANCH   1  19
TORSDOF 7
ENDMDL
MODEL 5
REMARK VINA RESULT:      -8.4      1.293      1.775
REMARK  Name = 
REMARK  9 active torsions:
REMARK  status: ('A' for Active; 'I' for Inactive)
REMARK    1  A    between atoms: C_1  and  O_2
REMARK    2  A    between atoms: O_2  and  C_3
REMARK    3  A    between atoms: C_9  and  C_10
REMARK    4  A    between atoms: C_10  and  C_11
REMARK    5  A    between atoms: C_16  and  C_17
REMARK    6  A    between atoms: C_21  and  C_22
REMARK    7  A    between atoms: C_22  and  O_23
REMARK    8  A    between atoms: C_30  and  O_31
REMARK    9  A    between atoms: O_31  and  C_32
REMARK                            x       y       z     vdW  Elec       q    Type
REMARK                         _______ _______ _______ _____ _____    ______ ____
ROOT
ATOM      1  C   UNL     1       1.901   7.164  20.159  0.00  0.00    +0.000 A 
ATOM      2  C   UNL     1       2.072   7.959  19.008  0.00  0.00    +0.000 A 
ATOM      3  C   UNL     1       1.479   9.225  18.880  0.00  0.00    +0.000 A 
ATOM      4  C   UNL     1       0.721   9.647  19.963  0.00  0.00    +0.000 A 
ATOM      5  O   UNL     1       0.101  10.851  20.122  0.00  0.00    +0.000 OA
ATOM      6  C   UNL     1      -0.465  10.771  21.371  0.00  0.00    +0.000 A 
ATOM      7  N   UNL     1      -0.271   9.616  21.986  0.00  0.00    +0.000 NA
ATOM      8  C   UNL     1       0.491   8.897  21.101  0.00  0.00    +0.000 A 
ATOM      9  C   UNL     1       1.062   7.619  21.201  0.00  0.00    +0.000 A 
ENDROOT
BRANCH   6  10
ATOM     10  C   UNL     1      -1.141  11.970  21.864  0.00  0.00    +0.000 A 
ATOM     11  C   UNL     1      -1.924  11.959  23.027  0.00  0.00    +0.000 A 
ATOM     12  C   UNL     1      -2.575  13.116  23.465  0.00  0.00    +0.000 A 
ATOM     13  C   UNL     1      -2.452  14.300  22.740  0.00  0.00    +0.000 A 
ATOM     14  C   UNL     1      -1.674  14.343  21.577  0.00  0.00    +0.000 A 
ATOM     15  C   UNL     1      -1.024  13.174  21.150  0.00  0.00    +0.000 A 
BRANCH  14  16
ATOM     16  C   UNL     1      -1.542  15.628  20.803  0.00  0.00    +0.000 C 
BRANCH  16  17
ATOM     17  O   UNL     1      -1.352  15.356  19.421  0.00  0.00    +0.000 OA
ATOM     18  H   UNL     1      -0.563  14.790  19.351  0.00  0.00    +0.000 HD
ENDBRANCH  16  17
ENDBRANCH  14  16
ENDBRANCH   6  10
BRANCH   1  19
ATOM     19  C   UNL     1       2.679   5.873  20.326  0.00  0.00    +0.000 C 
BRANCH  19  26
ATOM     20  C   UNL     1       6.259   4.702  16.590  0.00  0.00    +0.000 A 
ATOM     21  C   UNL     1       5.080   4.001  16.317  0.00  0.00    +0.000 A 
ATOM     22  C   UNL     1       3.956   4.104  17.155  0.00  0.00    +0.000 A 
ATOM     23  C   UNL     1       2.807   3.353  16.911  0.00  0.00    +0.000 A 
ATOM     24  N   UNL     1       1.697   3.379  17.675  0.00  0.00    +0.000 NA
ATOM     25  C   UNL     1       1.723   4.209  18.735  0.00  0.00    +0.000 A 
ATOM     26  C   UNL     1       2.807   5.015  19.093  0.00  0.00    +0.000 A 
ATOM     27  C   UNL     1       3.972   4.951  18.282  0.00  0.00    +0.000 A 
ATOM     28  C   UNL     1       5.165   5.668  18.523  0.00  0.00    +0.000 A 
ATOM     29  C   UNL     1       6.282   5.579  17.678  0.00  0.00    +0.000 A 
BRANCH  20  31
ATOM     30  C   UNL     1       7.225   4.778  14.436  0.00  0.00    +0.000 C 
ATOM     31  O   UNL     1       7.393   4.556  15.834  0.00  0.00    +0.000 OA
ENDBRANCH  20  31
BRANCH  29  32
ATOM     32  O   UNL     1       7.344   6.347  18.084  0.00  0.00    +0.000 OA
ATOM     33  C   UNL     1       7.456   7.625  17.466  0.00  0.00    +0.000 C 
ENDBRANCH  29  32
ENDBRANCH  19  26
ENDBRANCH   1  19
TORSDOF 7
ENDMDL
MODEL 6
REMARK VINA RESULT:      -8.3      3.717      8.541
REMARK  Name = 
REMARK  9 active torsions:
REMARK  status: ('A' for Active; 'I' for Inactive)
REMARK    1  A    between atoms: C_1  and  O_2
REMARK    2  A    between atoms: O_2  and  C_3
REMARK    3  A    between atoms: C_9  and  C_10
REMARK    4  A    between atoms: C_10  and  C_11
REMARK    5  A    between atoms: C_16  and  C_17
REMARK    6  A    between atoms: C_21  and  C_22
REMARK    7  A    between atoms: C_22  and  O_23
REMARK    8  A    between atoms: C_30  and  O_31
REMARK    9  A    between atoms: O_31  and  C_32
REMARK                            x       y       z     vdW  Elec       q    Type
REMARK                         _______ _______ _______ _____ _____    ______ ____
ROOT
ATOM      1  C   UNL     1       5.815   5.432  17.350  0.00  0.00    +0.000 A 
ATOM      2  C   UNL     1       6.807   4.893  18.194  0.00  0.00    +0.000 A 
ATOM      3  C   UNL     1       7.863   5.669  18.696  0.00  0.00    +0.000 A 
ATOM      4  C   UNL     1       7.865   7.003  18.313  0.00  0.00    +0.000 A 
ATOM      5  O   UNL     1       8.731   7.978  18.712  0.00  0.00    +0.000 OA
ATOM      6  C   UNL     1       8.268   9.109  18.084  0.00  0.00    +0.000 A 
ATOM      7  N   UNL     1       7.210   8.914  17.315  0.00  0.00    +0.000 NA
ATOM      8  C   UNL     1       6.939   7.577  17.462  0.00  0.00    +0.000 A 
ATOM      9  C   UNL     1       5.909   6.782  16.941  0.00  0.00    +0.000 A 
ENDROOT
BRANCH   6  10
ATOM     10  C   UNL     1       8.959  10.360  18.392  0.00  0.00    +0.000 A 
ATOM     11  C   UNL     1      10.080  10.405  19.234  0.00  0.00    +0.000 A 
ATOM     12  C   UNL     1      10.710  11.619  19.527  0.00  0.00    +0.000 A 
ATOM     13  C   UNL     1      10.223  12.805  18.980  0.00  0.00    +0.000 A 
ATOM     14  C   UNL     1       9.108  12.791  18.133  0.00  0.00    +0.000 A 
ATOM     15  C   UNL     1       8.486  11.565  17.847  0.00  0.00    +0.000 A 
BRANCH  14  16
ATOM     16  C   UNL     1       8.591  14.077  17.544  0.00  0.00    +0.000 C 
BRANCH  16  17
ATOM     17  O   UNL     1       9.656  15.000  17.357  0.00  0.00    +0.000 OA
ATOM     18  H   UNL     1       9.273  15.891  17.431  0.00  0.00    +0.000 HD
ENDBRANCH  16  17
ENDBRANCH  14  16
ENDBRANCH   6  10
BRANCH   1  19
ATOM     19  C   UNL     1       4.608   4.605  16.953  0.00  0.00    +0.000 C 
BRANCH  19  26
ATOM     20  C   UNL     1       1.322   6.973  20.380  0.00  0.00    +0.000 A 
ATOM     21  C   UNL     1       1.296   5.594  20.613  0.00  0.00    +0.000 A 
ATOM     22  C   UNL     1       2.061   4.706  19.837  0.00  0.00    +0.000 A 
ATOM     23  C   UNL     1       1.980   3.328  20.035  0.00  0.00    +0.000 A 
ATOM     24  N   UNL     1       2.664   2.410  19.324  0.00  0.00    +0.000 NA
ATOM     25  C   UNL     1       3.487   2.887  18.370  0.00  0.00    +0.000 A 
ATOM     26  C   UNL     1       3.661   4.241  18.069  0.00  0.00    +0.000 A 
ATOM     27  C   UNL     1       2.912   5.185  18.820  0.00  0.00    +0.000 A 
ATOM     28  C   UNL     1       2.940   6.584  18.620  0.00  0.00    +0.000 A 
ATOM     29  C   UNL     1       2.189   7.473  19.404  0.00  0.00    +0.000 A 
BRANCH  20  31
ATOM     30  C   UNL     1       1.195   8.645  22.043  0.00  0.00    +0.000 C 
ATOM     31  O   UNL     1       0.524   7.850  21.067  0.00  0.00    +0.000 OA
ENDBRANCH  20  31
BRANCH  29  32
ATOM     32  O   UNL     1       2.348   8.790  19.051  0.00  0.00    +0.000 OA
ATOM     33  C   UNL     1       1.664   9.200  17.872  0.00  0.00    +0.000 C 
ENDBRANCH  29  32
ENDBRANCH  19  26
ENDBRANCH   1  19
TORSDOF 7
ENDMDL
MODEL 7
REMARK VINA RESULT:      -8.3      2.117      2.695
REMARK  Name = 
REMARK  9 active torsions:
REMARK  status: ('A' for Active; 'I' for Inactive)
REMARK    1  A    between atoms: C_1  and  O_2
REMARK    2  A    between atoms: O_2  and  C_3
REMARK    3  A    between atoms: C_9  and  C_10
REMARK    4  A    between atoms: C_10  and  C_11
REMARK    5  A    between atoms: C_16  and  C_17
REMARK    6  A    between atoms: C_21  and  C_22
REMARK    7  A    between atoms: C_22  and  O_23
REMARK    8  A    between atoms: C_30  and  O_31
REMARK    9  A    between atoms: O_31  and  C_32
REMARK                            x       y       z     vdW  Elec       q    Type
REMARK                         _______ _______ _______ _____ _____    ______ ____
ROOT
ATOM      1  C   UNL     1       1.905   7.558  19.662  0.00  0.00    +0.000 A 
ATOM      2  C   UNL     1       2.130   8.051  18.361  0.00  0.00    +0.000 A 
ATOM      3  C   UNL     1       1.823   9.372  18.000  0.00  0.00    +0.000 A 
ATOM      4  C   UNL     1       1.290  10.163  19.008  0.00  0.00    +0.000 A 
ATOM      5  O   UNL     1       0.972  11.488  18.941  0.00  0.00    +0.000 OA
ATOM      6  C   UNL     1       0.532  11.787  20.208  0.00  0.00    +0.000 A 
ATOM      7  N   UNL     1       0.527  10.761  21.042  0.00  0.00    +0.000 NA
ATOM      8  C   UNL     1       1.017   9.724  20.290  0.00  0.00    +0.000 A 
ATOM      9  C   UNL     1       1.298   8.392  20.627  0.00  0.00    +0.000 A 
ENDROOT
BRANCH   6  10
ATOM     10  C   UNL     1       0.192  13.185  20.471  0.00  0.00    +0.000 A 
ATOM     11  C   UNL     1      -0.076  13.656  21.765  0.00  0.00    +0.000 A 
ATOM     12  C   UNL     1      -0.418  14.994  21.985  0.00  0.00    +0.000 A 
ATOM     13  C   UNL     1      -0.498  15.877  20.910  0.00  0.00    +0.000 A 
ATOM     14  C   UNL     1      -0.232  15.437  19.608  0.00  0.00    +0.000 A 
ATOM     15  C   UNL     1       0.111  14.091  19.401  0.00  0.00    +0.000 A 
BRANCH  14  16
ATOM     16  C   UNL     1      -0.317  16.400  18.453  0.00  0.00    +0.000 C 
BRANCH  16  17
ATOM     17  O   UNL     1      -1.539  17.124  18.501  0.00  0.00    +0.000 OA
ATOM     18  H   UNL     1      -2.120  16.741  17.820  0.00  0.00    +0.000 HD
ENDBRANCH  16  17
ENDBRANCH  14  16
ENDBRANCH   6  10
BRANCH   1  19
ATOM     19  C   UNL     1       2.390   6.176  20.056  0.00  0.00    +0.000 C 
BRANCH  19  26
ATOM     20  C   UNL     1       6.111   4.752  16.553  0.00  0.00    +0.000 A 
ATOM     21  C   UNL     1       4.967   3.980  16.331  0.00  0.00    +0.000 A 
ATOM     22  C   UNL     1       3.817   4.128  17.127  0.00  0.00    +0.000 A 
ATOM     23  C   UNL     1       2.704   3.311  16.938  0.00  0.00    +0.000 A 
ATOM     24  N   UNL     1       1.573   3.375  17.669  0.00  0.00    +0.000 NA
ATOM     25  C   UNL     1       1.539   4.315  18.633  0.00  0.00    +0.000 A 
ATOM     26  C   UNL     1       2.584   5.196  18.927  0.00  0.00    +0.000 A 
ATOM     27  C   UNL     1       3.771   5.092  18.155  0.00  0.00    +0.000 A 
ATOM     28  C   UNL     1       4.931   5.876  18.345  0.00  0.00    +0.000 A 
ATOM     29  C   UNL     1       6.073   5.741  17.540  0.00  0.00    +0.000 A 
BRANCH  20  31
ATOM     30  C   UNL     1       7.175   4.829  14.446  0.00  0.00    +0.000 C 
ATOM     31  O   UNL     1       7.271   4.570  15.845  0.00  0.00    +0.000 OA
ENDBRANCH  20  31
BRANCH  29  32
ATOM     32  O   UNL     1       7.095   6.589  17.886  0.00  0.00    +0.000 OA
ATOM     33  C   UNL     1       7.943   6.139  18.937  0.00  0.00    +0.000 C 
ENDBRANCH  29  32
ENDBRANCH  19  26
ENDBRANCH   1  19
TORSDOF 7
ENDMDL
MODEL 8
REMARK VINA RESULT:      -8.3      1.439      1.615
REMARK  Name = 
REMARK  9 active torsions:
REMARK  status: ('A' for Active; 'I' for Inactive)
REMARK    1  A    between atoms: C_1  and  O_2
REMARK    2  A    between atoms: O_2  and  C_3
REMARK    3  A    between atoms: C_9  and  C_10
REMARK    4  A    between atoms: C_10  and  C_11
REMARK    5  A    between atoms: C_16  and  C_17
REMARK    6  A    between atoms: C_21  and  C_22
REMARK    7  A    between atoms: C_22  and  O_23
REMARK    8  A    between atoms: C_30  and  O_31
REMARK    9  A    between atoms: O_31  and  C_32
REMARK                            x       y       z     vdW  Elec       q    Type
REMARK                         _______ _______ _______ _____ _____    ______ ____
ROOT
ATOM      1  C   UNL     1       2.194   7.491  19.619  0.00  0.00    +0.000 A 
ATOM      2  C   UNL     1       2.181   8.084  18.340  0.00  0.00    +0.000 A 
ATOM      3  C   UNL     1       1.551   9.313  18.094  0.00  0.00    +0.000 A 
ATOM      4  C   UNL     1       0.947   9.911  19.191  0.00  0.00    +0.000 A 
ATOM      5  O   UNL     1       0.331  11.127  19.237  0.00  0.00    +0.000 OA
ATOM      6  C   UNL     1      -0.048  11.257  20.551  0.00  0.00    +0.000 A 
ATOM      7  N   UNL     1       0.256  10.219  21.313  0.00  0.00    +0.000 NA
ATOM      8  C   UNL     1       0.898   9.361  20.458  0.00  0.00    +0.000 A 
ATOM      9  C   UNL     1       1.503   8.115  20.683  0.00  0.00    +0.000 A 
ENDROOT
BRANCH   6  10
ATOM     10  C   UNL     1      -0.671  12.523  20.933  0.00  0.00    +0.000 A 
ATOM     11  C   UNL     1      -1.100  13.460  19.981  0.00  0.00    +0.000 A 
ATOM     12  C   UNL     1      -1.675  14.672  20.375  0.00  0.00    +0.000 A 
ATOM     13  C   UNL     1      -1.826  14.962  21.730  0.00  0.00    +0.000 A 
ATOM     14  C   UNL     1      -1.412  14.045  22.703  0.00  0.00    +0.000 A 
ATOM     15  C   UNL     1      -0.837  12.831  22.293  0.00  0.00    +0.000 A 
BRANCH  14  16
ATOM     16  C   UNL     1      -1.583  14.365  24.165  0.00  0.00    +0.000 C 
BRANCH  16  17
ATOM     17  O   UNL     1      -0.526  15.201  24.616  0.00  0.00    +0.000 OA
ATOM     18  H   UNL     1      -0.882  15.737  25.345  0.00  0.00    +0.000 HD
ENDBRANCH  16  17
ENDBRANCH  14  16
ENDBRANCH   6  10
BRANCH   1  19
ATOM     19  C   UNL     1       3.014   6.243  19.882  0.00  0.00    +0.000 C 
BRANCH  19  26
ATOM     20  C   UNL     1       5.940   4.556  15.791  0.00  0.00    +0.000 A 
ATOM     21  C   UNL     1       4.778   3.780  15.862  0.00  0.00    +0.000 A 
ATOM     22  C   UNL     1       3.817   3.992  16.866  0.00  0.00    +0.000 A 
ATOM     23  C   UNL     1       2.693   3.173  16.966  0.00  0.00    +0.000 A 
ATOM     24  N   UNL     1       1.736   3.296  17.907  0.00  0.00    +0.000 NA
ATOM     25  C   UNL     1       1.897   4.298  18.793  0.00  0.00    +0.000 A 
ATOM     26  C   UNL     1       2.975   5.188  18.806  0.00  0.00    +0.000 A 
ATOM     27  C   UNL     1       3.979   5.022  17.814  0.00  0.00    +0.000 A 
ATOM     28  C   UNL     1       5.149   5.807  17.708  0.00  0.00    +0.000 A 
ATOM     29  C   UNL     1       6.101   5.609  16.697  0.00  0.00    +0.000 A 
BRANCH  20  31
ATOM     30  C   UNL     1       6.476   4.040  13.550  0.00  0.00    +0.000 C 
ATOM     31  O   UNL     1       6.930   4.316  14.873  0.00  0.00    +0.000 OA
ENDBRANCH  20  31
BRANCH  29  32
ATOM     32  O   UNL     1       7.168   6.468  16.766  0.00  0.00    +0.000 OA
ATOM     33  C   UNL     1       7.503   6.933  18.070  0.00  0.00    +0.000 C 
ENDBRANCH  29  32
ENDBRANCH  19  26
ENDBRANCH   1  19
TORSDOF 7
ENDMDL
MODEL 9
REMARK VINA RESULT:      -8.3      1.269      1.276
REMARK  Name = 
REMARK  9 active torsions:
REMARK  status: ('A' for Active; 'I' for Inactive)
REMARK    1  A    between atoms: C_1  and  O_2
REMARK    2  A    between atoms: O_2  and  C_3
REMARK    3  A    between atoms: C_9  and  C_10
REMARK    4  A    between atoms: C_10  and  C_11
REMARK    5  A    between atoms: C_16  and  C_17
REMARK    6  A    between atoms: C_21  and  C_22
REMARK    7  A    between atoms: C_22  and  O_23
REMARK    8  A    between atoms: C_30  and  O_31
REMARK    9  A    between atoms: O_31  and  C_32
REMARK                            x       y       z     vdW  Elec       q    Type
REMARK                         _______ _______ _______ _____ _____    ______ ____
ROOT
ATOM      1  C   UNL     1       1.904   7.409  20.019  0.00  0.00    +0.000 A 
ATOM      2  C   UNL     1       2.003   8.159  18.830  0.00  0.00    +0.000 A 
ATOM      3  C   UNL     1       1.367   9.401  18.675  0.00  0.00    +0.000 A 
ATOM      4  C   UNL     1       0.641   9.846  19.771  0.00  0.00    +0.000 A 
ATOM      5  O   UNL     1      -0.008  11.038  19.905  0.00  0.00    +0.000 OA
ATOM      6  C   UNL     1      -0.520  10.995  21.180  0.00  0.00    +0.000 A 
ATOM      7  N   UNL     1      -0.265   9.874  21.834  0.00  0.00    +0.000 NA
ATOM      8  C   UNL     1       0.481   9.139  20.948  0.00  0.00    +0.000 A 
ATOM      9  C   UNL     1       1.095   7.884  21.076  0.00  0.00    +0.000 A 
ENDROOT
BRANCH   6  10
ATOM     10  C   UNL     1      -1.211  12.194  21.650  0.00  0.00    +0.000 A 
ATOM     11  C   UNL     1      -0.628  13.079  22.568  0.00  0.00    +0.000 A 
ATOM     12  C   UNL     1      -1.320  14.208  23.016  0.00  0.00    +0.000 A 
ATOM     13  C   UNL     1      -2.609  14.464  22.551  0.00  0.00    +0.000 A 
ATOM     14  C   UNL     1      -3.216  13.601  21.631  0.00  0.00    +0.000 A 
ATOM     15  C   UNL     1      -2.509  12.471  21.189  0.00  0.00    +0.000 A 
BRANCH  14  16
ATOM     16  C   UNL     1      -4.607  13.887  21.131  0.00  0.00    +0.000 C 
BRANCH  16  17
ATOM     17  O   UNL     1      -4.555  14.625  19.917  0.00  0.00    +0.000 OA
ATOM     18  H   UNL     1      -3.782  15.213  19.977  0.00  0.00    +0.000 HD
ENDBRANCH  16  17
ENDBRANCH  14  16
ENDBRANCH   6  10
BRANCH   1  19
ATOM     19  C   UNL     1       2.727   6.150  20.207  0.00  0.00    +0.000 C 
BRANCH  19  26
ATOM     20  C   UNL     1       6.293   4.771  16.529  0.00  0.00    +0.000 A 
ATOM     21  C   UNL     1       5.098   4.089  16.273  0.00  0.00    +0.000 A 
ATOM     22  C   UNL     1       3.974   4.247  17.102  0.00  0.00    +0.000 A 
ATOM     23  C   UNL     1       2.808   3.517  16.876  0.00  0.00    +0.000 A 
ATOM     24  N   UNL     1       1.696   3.595  17.633  0.00  0.00    +0.000 NA
ATOM     25  C   UNL     1       1.737   4.459  18.666  0.00  0.00    +0.000 A 
ATOM     26  C   UNL     1       2.839   5.249  19.003  0.00  0.00    +0.000 A 
ATOM     27  C   UNL     1       4.006   5.131  18.200  0.00  0.00    +0.000 A 
ATOM     28  C   UNL     1       5.216   5.825  18.425  0.00  0.00    +0.000 A 
ATOM     29  C   UNL     1       6.333   5.682  17.588  0.00  0.00    +0.000 A 
BRANCH  20  31
ATOM     30  C   UNL     1       7.280   4.793  14.384  0.00  0.00    +0.000 C 
ATOM     31  O   UNL     1       7.427   4.572  15.785  0.00  0.00    +0.000 OA
ENDBRANCH  20  31
BRANCH  29  32
ATOM     32  O   UNL     1       7.412   6.436  17.975  0.00  0.00    +0.000 OA
ATOM     33  C   UNL     1       7.525   7.715  17.359  0.00  0.00    +0.000 C 
ENDBRANCH  29  32
ENDBRANCH  19  26
ENDBRANCH   1  19
TORSDOF 7
ENDMDL
