MODEL 1
REMARK VINA RESULT:      -7.7      0.000      0.000
REMARK  Name = 
REMARK  5 active torsions:
REMARK  status: ('A' for Active; 'I' for Inactive)
REMARK    1  A    between atoms: C_1  and  O_2
REMARK    2  A    between atoms: O_2  and  C_3
REMARK    3  A    between atoms: N_5  and  C_6
REMARK    4  A    between atoms: C_19  and  N_20
REMARK    5  A    between atoms: C_21  and  C_23
REMARK                            x       y       z     vdW  Elec       q    Type
REMARK                         _______ _______ _______ _____ _____    ______ ____
ROOT
ATOM      1  C   UNL     1      -4.838  13.555  20.286  0.00  0.00    +0.000 A 
ATOM      2  C   UNL     1      -4.544  12.620  19.289  0.00  0.00    +0.000 A 
ATOM      3  C   UNL     1      -3.326  11.884  19.353  0.00  0.00    +0.000 A 
ATOM      4  C   UNL     1      -2.361  12.188  20.334  0.00  0.00    +0.000 A 
ATOM      5  C   UNL     1      -2.461  13.506  20.843  0.00  0.00    +0.000 A 
ATOM      6  C   UNL     1      -3.776  13.948  21.114  0.00  0.00    +0.000 A 
ATOM      7  N   UNL     1      -1.936  14.516  19.895  0.00  0.00    +0.000 N 
ATOM      8  C   UNL     1      -0.593  14.876  19.807  0.00  0.00    +0.000 C 
ATOM      9  O   UNL     1       0.024  15.293  20.780  0.00  0.00    +0.000 OA
ATOM     10  C   UNL     1       0.071  14.517  18.492  0.00  0.00    +0.000 C 
ATOM     11  C   UNL     1       0.556  13.116  18.719  0.00  0.00    +0.000 C 
ATOM     12  C   UNL     1       1.951  12.469  18.353  0.00  0.00    +0.000 C 
ATOM     13  C   UNL     1       1.811  11.221  19.198  0.00  0.00    +0.000 C 
ATOM     14  C   UNL     1       1.918   9.842  19.821  0.00  0.00    +0.000 C 
ATOM     15  C   UNL     1       0.448   9.852  20.562  0.00  0.00    +0.000 A 
ATOM     16  N   UNL     1      -0.687  10.235  19.943  0.00  0.00    +0.000 NA
ATOM     17  C   UNL     1      -1.296  11.208  20.747  0.00  0.00    +0.000 A 
ATOM     18  C   UNL     1      -0.699  11.139  21.993  0.00  0.00    +0.000 A 
ATOM     19  N   UNL     1       0.335  10.224  21.887  0.00  0.00    +0.000 N 
ATOM     20  H   UNL     1      -2.359  14.372  18.968  0.00  0.00    +0.000 HD
ATOM     21  H   UNL     1       1.094  10.134  22.578  0.00  0.00    +0.000 HD
ENDROOT
BRANCH   1  24
ATOM     22  C   UNL     1      -6.909  14.160  21.619  0.00  0.00    +0.000 C 
ATOM     23  O   UNL     1      -6.773  13.515  22.643  0.00  0.00    +0.000 OA
ATOM     24  N   UNL     1      -6.102  14.156  20.509  0.00  0.00    +0.000 N 
ATOM     25  H   UNL     1      -6.449  14.788  19.794  0.00  0.00    +0.000 HD
BRANCH  22  27
ATOM     26  C   UNL     1      -7.679  16.419  21.722  0.00  0.00    +0.000 C 
ATOM     27  O   UNL     1      -7.916  15.059  21.399  0.00  0.00    +0.000 OA
ENDBRANCH  22  27
ENDBRANCH   1  24
BRANCH  14  28
ATOM     28  N   UNL     1       2.048   8.770  18.842  0.00  0.00    +0.000 N 
ATOM     29  C   UNL     1       2.242   7.470  19.244  0.00  0.00    +0.000 C 
ATOM     30  O   UNL     1       2.089   7.067  20.402  0.00  0.00    +0.000 OA
ATOM     31  H   UNL     1       2.399   9.058  17.936  0.00  0.00    +0.000 HD
BRANCH  29  32
ATOM     32  C   UNL     1       2.842   6.548  18.223  0.00  0.00    +0.000 A 
ATOM     33  C   UNL     1       2.282   5.273  18.049  0.00  0.00    +0.000 A 
ATOM     34  C   UNL     1       3.005   4.299  17.374  0.00  0.00    +0.000 A 
ATOM     35  C   UNL     1       4.212   4.645  16.766  0.00  0.00    +0.000 A 
ATOM     36  C   UNL     1       4.998   3.671  16.158  0.00  0.00    +0.000 A 
ATOM     37  C   UNL     1       5.642   4.045  14.991  0.00  0.00    +0.000 A 
ATOM     38  C   UNL     1       5.949   5.372  14.865  0.00  0.00    +0.000 A 
ATOM     39  N   UNL     1       5.565   6.325  15.759  0.00  0.00    +0.000 NA
ATOM     40  C   UNL     1       4.625   5.977  16.663  0.00  0.00    +0.000 A 
ATOM     41  C   UNL     1       3.981   6.905  17.480  0.00  0.00    +0.000 A 
ENDBRANCH  29  32
ENDBRANCH  14  28
TORSDOF 4
ENDMDL
MODEL 2
REMARK VINA RESULT:      -7.6      5.166      7.618
REMARK  Name = 
REMARK  5 active torsions:
REMARK  status: ('A' for Active; 'I' for Inactive)
REMARK    1  A    between atoms: C_1  and  O_2
REMARK    2  A    between atoms: O_2  and  C_3
REMARK    3  A    between atoms: N_5  and  C_6
REMARK    4  A    between atoms: C_19  and  N_20
REMARK    5  A    between atoms: C_21  and  C_23
REMARK                            x       y       z     vdW  Elec       q    Type
REMARK                         _______ _______ _______ _____ _____    ______ ____
ROOT
ATOM      1  C   UNL     1      -2.769  12.441  22.622  0.00  0.00    +0.000 A 
ATOM      2  C   UNL     1      -1.446  12.425  23.073  0.00  0.00    +0.000 A 
ATOM      3  C   UNL     1      -0.422  13.000  22.267  0.00  0.00    +0.000 A 
ATOM      4  C   UNL     1      -0.712  13.459  20.967  0.00  0.00    +0.000 A 
ATOM      5  C   UNL     1      -1.861  12.861  20.394  0.00  0.00    +0.000 A 
ATOM      6  C   UNL     1      -2.968  12.731  21.263  0.00  0.00    +0.000 A 
ATOM      7  N   UNL     1      -1.604  11.476  19.936  0.00  0.00    +0.000 N 
ATOM      8  C   UNL     1      -1.073  11.155  18.690  0.00  0.00    +0.000 C 
ATOM      9  O   UNL     1      -1.604  11.528  17.651  0.00  0.00    +0.000 OA
ATOM     10  C   UNL     1       0.295  10.502  18.736  0.00  0.00    +0.000 C 
ATOM     11  C   UNL     1       1.237  11.669  18.735  0.00  0.00    +0.000 C 
ATOM     12  C   UNL     1       2.565  11.882  17.906  0.00  0.00    +0.000 C 
ATOM     13  C   UNL     1       2.713  13.368  18.157  0.00  0.00    +0.000 C 
ATOM     14  C   UNL     1       3.202  14.794  18.325  0.00  0.00    +0.000 C 
ATOM     15  C   UNL     1       1.981  15.301  19.306  0.00  0.00    +0.000 A 
ATOM     16  N   UNL     1       1.552  14.597  20.373  0.00  0.00    +0.000 NA
ATOM     17  C   UNL     1       0.163  14.452  20.250  0.00  0.00    +0.000 A 
ATOM     18  C   UNL     1      -0.259  15.364  19.299  0.00  0.00    +0.000 A 
ATOM     19  N   UNL     1       0.883  15.950  18.778  0.00  0.00    +0.000 N 
ATOM     20  H   UNL     1      -1.164  10.937  20.695  0.00  0.00    +0.000 HD
ATOM     21  H   UNL     1       0.899  16.493  17.903  0.00  0.00    +0.000 HD
ENDROOT
BRANCH   1  24
ATOM     22  C   UNL     1      -4.778  13.005  24.064  0.00  0.00    +0.000 C 
ATOM     23  O   UNL     1      -4.668  14.206  24.229  0.00  0.00    +0.000 OA
ATOM     24  N   UNL     1      -3.915  12.162  23.409  0.00  0.00    +0.000 N 
ATOM     25  H   UNL     1      -4.248  11.204  23.421  0.00  0.00    +0.000 HD
BRANCH  22  27
ATOM     26  C   UNL     1      -7.142  12.667  24.112  0.00  0.00    +0.000 C 
ATOM     27  O   UNL     1      -5.839  12.259  24.497  0.00  0.00    +0.000 OA
ENDBRANCH  22  27
ENDBRANCH   1  24
BRANCH  14  28
ATOM     28  N   UNL     1       4.510  14.889  18.959  0.00  0.00    +0.000 N 
ATOM     29  C   UNL     1       5.261  16.035  18.854  0.00  0.00    +0.000 C 
ATOM     30  O   UNL     1       4.828  17.119  18.449  0.00  0.00    +0.000 OA
ATOM     31  H   UNL     1       4.987  14.004  19.092  0.00  0.00    +0.000 HD
BRANCH  29  32
ATOM     32  C   UNL     1       6.734  15.881  19.094  0.00  0.00    +0.000 A 
ATOM     33  C   UNL     1       7.352  14.665  18.766  0.00  0.00    +0.000 A 
ATOM     34  C   UNL     1       8.609  14.380  19.279  0.00  0.00    +0.000 A 
ATOM     35  C   UNL     1       9.292  15.363  19.998  0.00  0.00    +0.000 A 
ATOM     36  C   UNL     1      10.514  15.076  20.596  0.00  0.00    +0.000 A 
ATOM     37  C   UNL     1      11.461  16.085  20.567  0.00  0.00    +0.000 A 
ATOM     38  C   UNL     1      10.983  17.366  20.530  0.00  0.00    +0.000 A 
ATOM     39  N   UNL     1       9.661  17.677  20.416  0.00  0.00    +0.000 NA
ATOM     40  C   UNL     1       8.824  16.678  20.064  0.00  0.00    +0.000 A 
ATOM     41  C   UNL     1       7.499  16.900  19.692  0.00  0.00    +0.000 A 
ENDBRANCH  29  32
ENDBRANCH  14  28
TORSDOF 4
ENDMDL
MODEL 3
REMARK VINA RESULT:      -7.6      2.489      3.761
REMARK  Name = 
REMARK  5 active torsions:
REMARK  status: ('A' for Active; 'I' for Inactive)
REMARK    1  A    between atoms: C_1  and  O_2
REMARK    2  A    between atoms: O_2  and  C_3
REMARK    3  A    between atoms: N_5  and  C_6
REMARK    4  A    between atoms: C_19  and  N_20
REMARK    5  A    between atoms: C_21  and  C_23
REMARK                            x       y       z     vdW  Elec       q    Type
REMARK                         _______ _______ _______ _____ _____    ______ ____
ROOT
ATOM      1  C   UNL     1      -4.932  14.247  22.349  0.00  0.00    +0.000 A 
ATOM      2  C   UNL     1      -4.269  13.082  22.749  0.00  0.00    +0.000 A 
ATOM      3  C   UNL     1      -3.301  12.493  21.887  0.00  0.00    +0.000 A 
ATOM      4  C   UNL     1      -3.107  12.996  20.585  0.00  0.00    +0.000 A 
ATOM      5  C   UNL     1      -4.223  13.706  20.076  0.00  0.00    +0.000 A 
ATOM      6  C   UNL     1      -4.843  14.586  20.990  0.00  0.00    +0.000 A 
ATOM      7  N   UNL     1      -5.318  12.803  19.653  0.00  0.00    +0.000 N 
ATOM      8  C   UNL     1      -5.392  12.204  18.398  0.00  0.00    +0.000 C 
ATOM      9  O   UNL     1      -5.381  12.868  17.369  0.00  0.00    +0.000 OA
ATOM     10  C   UNL     1      -5.277  10.692  18.413  0.00  0.00    +0.000 C 
ATOM     11  C   UNL     1      -3.798  10.455  18.338  0.00  0.00    +0.000 C 
ATOM     12  C   UNL     1      -2.995   9.423  17.451  0.00  0.00    +0.000 C 
ATOM     13  C   UNL     1      -1.621  10.029  17.648  0.00  0.00    +0.000 C 
ATOM     14  C   UNL     1      -0.134  10.310  17.752  0.00  0.00    +0.000 C 
ATOM     15  C   UNL     1      -0.254  11.604  18.762  0.00  0.00    +0.000 A 
ATOM     16  N   UNL     1      -1.027  11.608  19.867  0.00  0.00    +0.000 NA
ATOM     17  C   UNL     1      -1.847  12.743  19.802  0.00  0.00    +0.000 A 
ATOM     18  C   UNL     1      -1.310  13.579  18.839  0.00  0.00    +0.000 A 
ATOM     19  N   UNL     1      -0.260  12.889  18.256  0.00  0.00    +0.000 N 
ATOM     20  H   UNL     1      -5.531  12.140  20.411  0.00  0.00    +0.000 HD
ATOM     21  H   UNL     1       0.178  13.160  17.364  0.00  0.00    +0.000 HD
ENDROOT
BRANCH   1  24
ATOM     22  C   UNL     1      -5.379  16.258  23.827  0.00  0.00    +0.000 C 
ATOM     23  O   UNL     1      -4.281  16.776  23.924  0.00  0.00    +0.000 OA
ATOM     24  N   UNL     1      -5.705  15.088  23.188  0.00  0.00    +0.000 N 
ATOM     25  H   UNL     1      -6.697  14.886  23.263  0.00  0.00    +0.000 HD
BRANCH  22  27
ATOM     26  C   UNL     1      -7.370  17.525  23.457  0.00  0.00    +0.000 C 
ATOM     27  O   UNL     1      -6.533  16.790  24.334  0.00  0.00    +0.000 OA
ENDBRANCH  22  27
ENDBRANCH   1  24
BRANCH  14  28
ATOM     28  N   UNL     1       0.627   9.211  18.331  0.00  0.00    +0.000 N 
ATOM     29  C   UNL     1       1.974   9.084  18.089  0.00  0.00    +0.000 C 
ATOM     30  O   UNL     1       2.681   9.968  17.593  0.00  0.00    +0.000 OA
ATOM     31  H   UNL     1       0.087   8.378  18.536  0.00  0.00    +0.000 HD
BRANCH  29  32
ATOM     32  C   UNL     1       2.553   7.715  18.297  0.00  0.00    +0.000 A 
ATOM     33  C   UNL     1       3.635   7.309  17.502  0.00  0.00    +0.000 A 
ATOM     34  C   UNL     1       3.964   5.962  17.435  0.00  0.00    +0.000 A 
ATOM     35  C   UNL     1       3.300   5.057  18.265  0.00  0.00    +0.000 A 
ATOM     36  C   UNL     1       3.548   3.693  18.158  0.00  0.00    +0.000 A 
ATOM     37  C   UNL     1       3.567   2.980  19.345  0.00  0.00    +0.000 A 
ATOM     38  C   UNL     1       2.800   3.475  20.363  0.00  0.00    +0.000 A 
ATOM     39  N   UNL     1       2.126   4.657  20.297  0.00  0.00    +0.000 NA
ATOM     40  C   UNL     1       2.444   5.489  19.283  0.00  0.00    +0.000 A 
ATOM     41  C   UNL     1       2.005   6.811  19.224  0.00  0.00    +0.000 A 
ENDBRANCH  29  32
ENDBRANCH  14  28
TORSDOF 4
ENDMDL
MODEL 4
REMARK VINA RESULT:      -7.3      2.364      3.521
REMARK  Name = 
REMARK  5 active torsions:
REMARK  status: ('A' for Active; 'I' for Inactive)
REMARK    1  A    between atoms: C_1  and  O_2
REMARK    2  A    between atoms: O_2  and  C_3
REMARK    3  A    between atoms: N_5  and  C_6
REMARK    4  A    between atoms: C_19  and  N_20
REMARK    5  A    between atoms: C_21  and  C_23
REMARK                            x       y       z     vdW  Elec       q    Type
REMARK                         _______ _______ _______ _____ _____    ______ ____
ROOT
ATOM      1  C   UNL     1      -5.536  14.149  22.226  0.00  0.00    +0.000 A 
ATOM      2  C   UNL     1      -4.908  12.974  22.652  0.00  0.00    +0.000 A 
ATOM      3  C   UNL     1      -3.829  12.439  21.891  0.00  0.00    +0.000 A 
ATOM      4  C   UNL     1      -3.484  13.006  20.649  0.00  0.00    +0.000 A 
ATOM      5  C   UNL     1      -4.540  13.726  20.037  0.00  0.00    +0.000 A 
ATOM      6  C   UNL     1      -5.285  14.555  20.907  0.00  0.00    +0.000 A 
ATOM      7  N   UNL     1      -5.558  12.832  19.439  0.00  0.00    +0.000 N 
ATOM      8  C   UNL     1      -5.464  12.294  18.158  0.00  0.00    +0.000 C 
ATOM      9  O   UNL     1      -5.337  13.007  17.171  0.00  0.00    +0.000 OA
ATOM     10  C   UNL     1      -5.325  10.784  18.117  0.00  0.00    +0.000 C 
ATOM     11  C   UNL     1      -3.844  10.568  18.217  0.00  0.00    +0.000 C 
ATOM     12  C   UNL     1      -2.918   9.590  17.391  0.00  0.00    +0.000 C 
ATOM     13  C   UNL     1      -1.591  10.202  17.787  0.00  0.00    +0.000 C 
ATOM     14  C   UNL     1      -0.134  10.495  18.089  0.00  0.00    +0.000 C 
ATOM     15  C   UNL     1      -0.401  11.737  19.136  0.00  0.00    +0.000 A 
ATOM     16  N   UNL     1      -1.306  11.679  20.133  0.00  0.00    +0.000 NA
ATOM     17  C   UNL     1      -2.131  12.806  20.019  0.00  0.00    +0.000 A 
ATOM     18  C   UNL     1      -1.493  13.694  19.171  0.00  0.00    +0.000 A 
ATOM     19  N   UNL     1      -0.367  13.045  18.693  0.00  0.00    +0.000 N 
ATOM     20  H   UNL     1      -5.852  12.131  20.133  0.00  0.00    +0.000 HD
ATOM     21  H   UNL     1       0.173  13.364  17.876  0.00  0.00    +0.000 HD
ENDROOT
BRANCH   1  24
ATOM     22  C   UNL     1      -6.179  16.004  23.832  0.00  0.00    +0.000 C 
ATOM     23  O   UNL     1      -5.100  16.430  24.203  0.00  0.00    +0.000 OA
ATOM     24  N   UNL     1      -6.422  14.939  23.000  0.00  0.00    +0.000 N 
ATOM     25  H   UNL     1      -7.417  14.799  22.857  0.00  0.00    +0.000 HD
BRANCH  22  27
ATOM     26  C   UNL     1      -7.916  17.565  23.332  0.00  0.00    +0.000 C 
ATOM     27  O   UNL     1      -7.385  16.552  24.171  0.00  0.00    +0.000 OA
ENDBRANCH  22  27
ENDBRANCH   1  24
BRANCH  14  28
ATOM     28  N   UNL     1       0.569   9.379  18.708  0.00  0.00    +0.000 N 
ATOM     29  C   UNL     1       1.760   8.927  18.195  0.00  0.00    +0.000 C 
ATOM     30  O   UNL     1       2.439   9.537  17.362  0.00  0.00    +0.000 OA
ATOM     31  H   UNL     1      -0.023   8.729  19.214  0.00  0.00    +0.000 HD
BRANCH  29  32
ATOM     32  C   UNL     1       2.146   7.524  18.565  0.00  0.00    +0.000 A 
ATOM     33  C   UNL     1       1.833   7.050  19.848  0.00  0.00    +0.000 A 
ATOM     34  C   UNL     1       2.462   5.908  20.324  0.00  0.00    +0.000 A 
ATOM     35  C   UNL     1       3.288   5.178  19.468  0.00  0.00    +0.000 A 
ATOM     36  C   UNL     1       3.997   4.079  19.943  0.00  0.00    +0.000 A 
ATOM     37  C   UNL     1       4.109   3.004  19.078  0.00  0.00    +0.000 A 
ATOM     38  C   UNL     1       4.076   3.291  17.742  0.00  0.00    +0.000 A 
ATOM     39  N   UNL     1       3.838   4.536  17.242  0.00  0.00    +0.000 NA
ATOM     40  C   UNL     1       3.359   5.461  18.101  0.00  0.00    +0.000 A 
ATOM     41  C   UNL     1       2.861   6.694  17.682  0.00  0.00    +0.000 A 
ENDBRANCH  29  32
ENDBRANCH  14  28
TORSDOF 4
ENDMDL
MODEL 5
REMARK VINA RESULT:      -7.3      6.034      6.709
REMARK  Name = 
REMARK  5 active torsions:
REMARK  status: ('A' for Active; 'I' for Inactive)
REMARK    1  A    between atoms: C_1  and  O_2
REMARK    2  A    between atoms: O_2  and  C_3
REMARK    3  A    between atoms: N_5  and  C_6
REMARK    4  A    between atoms: C_19  and  N_20
REMARK    5  A    between atoms: C_21  and  C_23
REMARK                            x       y       z     vdW  Elec       q    Type
REMARK                         _______ _______ _______ _____ _____    ______ ____
ROOT
ATOM      1  C   UNL     1      -2.751  14.193  23.025  0.00  0.00    +0.000 A 
ATOM      2  C   UNL     1      -1.745  13.230  22.891  0.00  0.00    +0.000 A 
ATOM      3  C   UNL     1      -0.408  13.643  22.628  0.00  0.00    +0.000 A 
ATOM      4  C   UNL     1      -0.119  14.997  22.369  0.00  0.00    +0.000 A 
ATOM      5  C   UNL     1      -1.232  15.738  21.900  0.00  0.00    +0.000 A 
ATOM      6  C   UNL     1      -2.449  15.486  22.573  0.00  0.00    +0.000 A 
ATOM      7  N   UNL     1      -1.544  15.447  20.481  0.00  0.00    +0.000 N 
ATOM      8  C   UNL     1      -0.933  16.084  19.405  0.00  0.00    +0.000 C 
ATOM      9  O   UNL     1      -0.953  17.303  19.284  0.00  0.00    +0.000 OA
ATOM     10  C   UNL     1      -0.084  15.177  18.534  0.00  0.00    +0.000 C 
ATOM     11  C   UNL     1       1.259  15.213  19.200  0.00  0.00    +0.000 C 
ATOM     12  C   UNL     1       2.693  15.367  18.553  0.00  0.00    +0.000 C 
ATOM     13  C   UNL     1       3.446  15.682  19.828  0.00  0.00    +0.000 C 
ATOM     14  C   UNL     1       4.483  15.887  20.916  0.00  0.00    +0.000 C 
ATOM     15  C   UNL     1       3.438  15.845  22.187  0.00  0.00    +0.000 A 
ATOM     16  N   UNL     1       2.481  14.906  22.325  0.00  0.00    +0.000 NA
ATOM     17  C   UNL     1       1.264  15.571  22.526  0.00  0.00    +0.000 A 
ATOM     18  C   UNL     1       1.565  16.881  22.851  0.00  0.00    +0.000 A 
ATOM     19  N   UNL     1       2.937  17.017  22.719  0.00  0.00    +0.000 N 
ATOM     20  H   UNL     1      -1.608  14.430  20.344  0.00  0.00    +0.000 HD
ATOM     21  H   UNL     1       3.420  17.925  22.671  0.00  0.00    +0.000 HD
ENDROOT
BRANCH   1  24
ATOM     22  C   UNL     1      -4.998  13.032  23.211  0.00  0.00    +0.000 C 
ATOM     23  O   UNL     1      -4.983  12.256  22.272  0.00  0.00    +0.000 OA
ATOM     24  N   UNL     1      -4.049  13.965  23.546  0.00  0.00    +0.000 N 
ATOM     25  H   UNL     1      -4.314  14.483  24.378  0.00  0.00    +0.000 HD
BRANCH  22  27
ATOM     26  C   UNL     1      -7.327  12.887  23.722  0.00  0.00    +0.000 C 
ATOM     27  O   UNL     1      -5.990  13.090  24.150  0.00  0.00    +0.000 OA
ENDBRANCH  22  27
ENDBRANCH   1  24
BRANCH  14  28
ATOM     28  N   UNL     1       5.482  14.828  20.974  0.00  0.00    +0.000 N 
ATOM     29  C   UNL     1       6.767  15.095  21.383  0.00  0.00    +0.000 C 
ATOM     30  O   UNL     1       7.118  16.139  21.943  0.00  0.00    +0.000 OA
ATOM     31  H   UNL     1       5.323  14.054  20.338  0.00  0.00    +0.000 HD
BRANCH  29  32
ATOM     32  C   UNL     1       7.813  14.108  20.954  0.00  0.00    +0.000 A 
ATOM     33  C   UNL     1       8.341  13.222  21.906  0.00  0.00    +0.000 A 
ATOM     34  C   UNL     1       9.521  12.548  21.628  0.00  0.00    +0.000 A 
ATOM     35  C   UNL     1      10.086  12.658  20.356  0.00  0.00    +0.000 A 
ATOM     36  C   UNL     1      11.311  12.063  20.077  0.00  0.00    +0.000 A 
ATOM     37  C   UNL     1      11.447  11.506  18.816  0.00  0.00    +0.000 A 
ATOM     38  C   UNL     1      10.697  12.066  17.820  0.00  0.00    +0.000 A 
ATOM     39  N   UNL     1       9.774  13.046  18.028  0.00  0.00    +0.000 NA
ATOM     40  C   UNL     1       9.406  13.282  19.305  0.00  0.00    +0.000 A 
ATOM     41  C   UNL     1       8.318  14.086  19.642  0.00  0.00    +0.000 A 
ENDBRANCH  29  32
ENDBRANCH  14  28
TORSDOF 4
ENDMDL
MODEL 6
REMARK VINA RESULT:      -7.2      4.759      7.295
REMARK  Name = 
REMARK  5 active torsions:
REMARK  status: ('A' for Active; 'I' for Inactive)
REMARK    1  A    between atoms: C_1  and  O_2
REMARK    2  A    between atoms: O_2  and  C_3
REMARK    3  A    between atoms: N_5  and  C_6
REMARK    4  A    between atoms: C_19  and  N_20
REMARK    5  A    between atoms: C_21  and  C_23
REMARK                            x       y       z     vdW  Elec       q    Type
REMARK                         _______ _______ _______ _____ _____    ______ ____
ROOT
ATOM      1  C   UNL     1      -3.214  12.715  22.479  0.00  0.00    +0.000 A 
ATOM      2  C   UNL     1      -1.927  12.850  23.012  0.00  0.00    +0.000 A 
ATOM      3  C   UNL     1      -0.918  13.509  22.254  0.00  0.00    +0.000 A 
ATOM      4  C   UNL     1      -1.170  13.902  20.924  0.00  0.00    +0.000 A 
ATOM      5  C   UNL     1      -2.211  13.171  20.300  0.00  0.00    +0.000 A 
ATOM      6  C   UNL     1      -3.352  12.947  21.103  0.00  0.00    +0.000 A 
ATOM      7  N   UNL     1      -1.782  11.810  19.903  0.00  0.00    +0.000 N 
ATOM      8  C   UNL     1      -1.141  11.516  18.703  0.00  0.00    +0.000 C 
ATOM      9  O   UNL     1      -1.640  11.804  17.622  0.00  0.00    +0.000 OA
ATOM     10  C   UNL     1       0.282  11.013  18.855  0.00  0.00    +0.000 C 
ATOM     11  C   UNL     1       1.096  12.273  18.875  0.00  0.00    +0.000 C 
ATOM     12  C   UNL     1       2.445  12.603  18.123  0.00  0.00    +0.000 C 
ATOM     13  C   UNL     1       2.421  14.103  18.335  0.00  0.00    +0.000 C 
ATOM     14  C   UNL     1       2.747  15.576  18.488  0.00  0.00    +0.000 C 
ATOM     15  C   UNL     1       1.420  15.975  19.375  0.00  0.00    +0.000 A 
ATOM     16  N   UNL     1       0.997  15.257  20.435  0.00  0.00    +0.000 NA
ATOM     17  C   UNL     1      -0.358  14.963  20.230  0.00  0.00    +0.000 A 
ATOM     18  C   UNL     1      -0.810  15.802  19.227  0.00  0.00    +0.000 A 
ATOM     19  N   UNL     1       0.296  16.492  18.759  0.00  0.00    +0.000 N 
ATOM     20  H   UNL     1      -1.339  11.341  20.704  0.00  0.00    +0.000 HD
ATOM     21  H   UNL     1       0.313  17.011  17.870  0.00  0.00    +0.000 HD
ENDROOT
BRANCH   1  24
ATOM     22  C   UNL     1      -5.482  13.061  23.560  0.00  0.00    +0.000 C 
ATOM     23  O   UNL     1      -5.658  14.261  23.447  0.00  0.00    +0.000 OA
ATOM     24  N   UNL     1      -4.372  12.336  23.202  0.00  0.00    +0.000 N 
ATOM     25  H   UNL     1      -4.490  11.350  23.410  0.00  0.00    +0.000 HD
BRANCH  22  27
ATOM     26  C   UNL     1      -7.738  12.278  23.574  0.00  0.00    +0.000 C 
ATOM     27  O   UNL     1      -6.408  12.187  24.058  0.00  0.00    +0.000 OA
ENDBRANCH  22  27
ENDBRANCH   1  24
BRANCH  14  28
ATOM     28  N   UNL     1       3.995  15.825  19.198  0.00  0.00    +0.000 N 
ATOM     29  C   UNL     1       5.182  15.311  18.736  0.00  0.00    +0.000 C 
ATOM     30  O   UNL     1       5.342  14.826  17.611  0.00  0.00    +0.000 OA
ATOM     31  H   UNL     1       3.893  16.002  20.192  0.00  0.00    +0.000 HD
BRANCH  29  32
ATOM     32  C   UNL     1       6.286  15.194  19.746  0.00  0.00    +0.000 A 
ATOM     33  C   UNL     1       7.578  14.868  19.305  0.00  0.00    +0.000 A 
ATOM     34  C   UNL     1       8.520  14.429  20.224  0.00  0.00    +0.000 A 
ATOM     35  C   UNL     1       8.208  14.449  21.584  0.00  0.00    +0.000 A 
ATOM     36  C   UNL     1       9.100  13.934  22.518  0.00  0.00    +0.000 A 
ATOM     37  C   UNL     1       9.192  14.619  23.718  0.00  0.00    +0.000 A 
ATOM     38  C   UNL     1       8.074  15.298  24.118  0.00  0.00    +0.000 A 
ATOM     39  N   UNL     1       6.948  15.414  23.359  0.00  0.00    +0.000 NA
ATOM     40  C   UNL     1       7.045  15.064  22.059  0.00  0.00    +0.000 A 
ATOM     41  C   UNL     1       6.049  15.344  21.125  0.00  0.00    +0.000 A 
ENDBRANCH  29  32
ENDBRANCH  14  28
TORSDOF 4
ENDMDL
MODEL 7
REMARK VINA RESULT:      -7.2      5.743      6.974
REMARK  Name = 
REMARK  5 active torsions:
REMARK  status: ('A' for Active; 'I' for Inactive)
REMARK    1  A    between atoms: C_1  and  O_2
REMARK    2  A    between atoms: O_2  and  C_3
REMARK    3  A    between atoms: N_5  and  C_6
REMARK    4  A    between atoms: C_19  and  N_20
REMARK    5  A    between atoms: C_21  and  C_23
REMARK                            x       y       z     vdW  Elec       q    Type
REMARK                         _______ _______ _______ _____ _____    ______ ____
ROOT
ATOM      1  C   UNL     1      -2.956  13.364  21.393  0.00  0.00    +0.000 A 
ATOM      2  C   UNL     1      -1.797  12.779  20.873  0.00  0.00    +0.000 A 
ATOM      3  C   UNL     1      -0.559  13.478  20.954  0.00  0.00    +0.000 A 
ATOM      4  C   UNL     1      -0.521  14.804  21.429  0.00  0.00    +0.000 A 
ATOM      5  C   UNL     1      -1.755  15.489  21.310  0.00  0.00    +0.000 A 
ATOM      6  C   UNL     1      -2.896  14.738  21.672  0.00  0.00    +0.000 A 
ATOM      7  N   UNL     1      -2.034  15.909  19.917  0.00  0.00    +0.000 N 
ATOM      8  C   UNL     1      -1.563  17.092  19.353  0.00  0.00    +0.000 C 
ATOM      9  O   UNL     1      -1.803  18.182  19.856  0.00  0.00    +0.000 OA
ATOM     10  C   UNL     1      -0.581  16.900  18.213  0.00  0.00    +0.000 C 
ATOM     11  C   UNL     1       0.745  16.811  18.908  0.00  0.00    +0.000 C 
ATOM     12  C   UNL     1       2.117  17.501  18.536  0.00  0.00    +0.000 C 
ATOM     13  C   UNL     1       2.823  17.246  19.851  0.00  0.00    +0.000 C 
ATOM     14  C   UNL     1       3.824  17.038  20.971  0.00  0.00    +0.000 C 
ATOM     15  C   UNL     1       2.824  16.191  21.967  0.00  0.00    +0.000 A 
ATOM     16  N   UNL     1       2.053  15.170  21.544  0.00  0.00    +0.000 NA
ATOM     17  C   UNL     1       0.740  15.435  21.957  0.00  0.00    +0.000 A 
ATOM     18  C   UNL     1       0.808  16.430  22.915  0.00  0.00    +0.000 A 
ATOM     19  N   UNL     1       2.131  16.835  22.974  0.00  0.00    +0.000 N 
ATOM     20  H   UNL     1      -1.917  15.105  19.285  0.00  0.00    +0.000 HD
ATOM     21  H   UNL     1       2.444  17.707  23.423  0.00  0.00    +0.000 HD
ENDROOT
BRANCH   1  24
ATOM     22  C   UNL     1      -5.381  12.761  20.961  0.00  0.00    +0.000 C 
ATOM     23  O   UNL     1      -5.699  13.529  20.070  0.00  0.00    +0.000 OA
ATOM     24  N   UNL     1      -4.184  12.698  21.630  0.00  0.00    +0.000 N 
ATOM     25  H   UNL     1      -4.187  11.963  22.330  0.00  0.00    +0.000 HD
BRANCH  22  27
ATOM     26  C   UNL     1      -7.162  11.215  20.584  0.00  0.00    +0.000 C 
ATOM     27  O   UNL     1      -6.185  11.768  21.450  0.00  0.00    +0.000 OA
ENDBRANCH  22  27
ENDBRANCH   1  24
BRANCH  14  28
ATOM     28  N   UNL     1       4.997  16.273  20.569  0.00  0.00    +0.000 N 
ATOM     29  C   UNL     1       5.970  16.840  19.781  0.00  0.00    +0.000 C 
ATOM     30  O   UNL     1       6.068  18.050  19.554  0.00  0.00    +0.000 OA
ATOM     31  H   UNL     1       4.860  15.269  20.529  0.00  0.00    +0.000 HD
BRANCH  29  32
ATOM     32  C   UNL     1       6.850  15.883  19.031  0.00  0.00    +0.000 A 
ATOM     33  C   UNL     1       6.267  15.023  18.087  0.00  0.00    +0.000 A 
ATOM     34  C   UNL     1       6.981  13.921  17.637  0.00  0.00    +0.000 A 
ATOM     35  C   UNL     1       8.312  13.766  18.027  0.00  0.00    +0.000 A 
ATOM     36  C   UNL     1       9.024  12.629  17.661  0.00  0.00    +0.000 A 
ATOM     37  C   UNL     1      10.357  12.820  17.336  0.00  0.00    +0.000 A 
ATOM     38  C   UNL     1      10.984  13.876  17.937  0.00  0.00    +0.000 A 
ATOM     39  N   UNL     1      10.347  14.780  18.733  0.00  0.00    +0.000 NA
ATOM     40  C   UNL     1       8.998  14.776  18.708  0.00  0.00    +0.000 A 
ATOM     41  C   UNL     1       8.229  15.785  19.288  0.00  0.00    +0.000 A 
ENDBRANCH  29  32
ENDBRANCH  14  28
TORSDOF 4
ENDMDL
MODEL 8
REMARK VINA RESULT:      -7.1      5.846      7.011
REMARK  Name = 
REMARK  5 active torsions:
REMARK  status: ('A' for Active; 'I' for Inactive)
REMARK    1  A    between atoms: C_1  and  O_2
REMARK    2  A    between atoms: O_2  and  C_3
REMARK    3  A    between atoms: N_5  and  C_6
REMARK    4  A    between atoms: C_19  and  N_20
REMARK    5  A    between atoms: C_21  and  C_23
REMARK                            x       y       z     vdW  Elec       q    Type
REMARK                         _______ _______ _______ _____ _____    ______ ____
ROOT
ATOM      1  C   UNL     1      -3.255  13.782  21.499  0.00  0.00    +0.000 A 
ATOM      2  C   UNL     1      -2.117  13.142  20.998  0.00  0.00    +0.000 A 
ATOM      3  C   UNL     1      -0.858  13.805  21.049  0.00  0.00    +0.000 A 
ATOM      4  C   UNL     1      -0.777  15.147  21.472  0.00  0.00    +0.000 A 
ATOM      5  C   UNL     1      -1.990  15.864  21.330  0.00  0.00    +0.000 A 
ATOM      6  C   UNL     1      -3.152  15.163  21.725  0.00  0.00    +0.000 A 
ATOM      7  N   UNL     1      -2.261  16.238  19.923  0.00  0.00    +0.000 N 
ATOM      8  C   UNL     1      -1.757  17.383  19.312  0.00  0.00    +0.000 C 
ATOM      9  O   UNL     1      -1.961  18.499  19.773  0.00  0.00    +0.000 OA
ATOM     10  C   UNL     1      -0.787  17.117  18.177  0.00  0.00    +0.000 C 
ATOM     11  C   UNL     1       0.539  17.015  18.871  0.00  0.00    +0.000 C 
ATOM     12  C   UNL     1       1.931  17.647  18.468  0.00  0.00    +0.000 C 
ATOM     13  C   UNL     1       2.634  17.421  19.790  0.00  0.00    +0.000 C 
ATOM     14  C   UNL     1       3.633  17.225  20.913  0.00  0.00    +0.000 C 
ATOM     15  C   UNL     1       2.612  16.449  21.945  0.00  0.00    +0.000 A 
ATOM     16  N   UNL     1       1.808  15.437  21.564  0.00  0.00    +0.000 NA
ATOM     17  C   UNL     1       0.505  15.758  21.970  0.00  0.00    +0.000 A 
ATOM     18  C   UNL     1       0.608  16.787  22.890  0.00  0.00    +0.000 A 
ATOM     19  N   UNL     1       1.943  17.152  22.928  0.00  0.00    +0.000 N 
ATOM     20  H   UNL     1      -2.172  15.408  19.322  0.00  0.00    +0.000 HD
ATOM     21  H   UNL     1       2.285  18.031  23.342  0.00  0.00    +0.000 HD
ENDROOT
BRANCH   1  24
ATOM     22  C   UNL     1      -4.983  12.572  22.907  0.00  0.00    +0.000 C 
ATOM     23  O   UNL     1      -4.374  12.322  23.931  0.00  0.00    +0.000 OA
ATOM     24  N   UNL     1      -4.503  13.164  21.765  0.00  0.00    +0.000 N 
ATOM     25  H   UNL     1      -5.226  13.252  21.059  0.00  0.00    +0.000 HD
BRANCH  22  27
ATOM     26  C   UNL     1      -7.195  12.545  23.806  0.00  0.00    +0.000 C 
ATOM     27  O   UNL     1      -6.314  12.322  22.718  0.00  0.00    +0.000 OA
ENDBRANCH  22  27
ENDBRANCH   1  24
BRANCH  14  28
ATOM     28  N   UNL     1       4.780  16.409  20.537  0.00  0.00    +0.000 N 
ATOM     29  C   UNL     1       5.835  16.955  19.846  0.00  0.00    +0.000 C 
ATOM     30  O   UNL     1       6.021  18.167  19.699  0.00  0.00    +0.000 OA
ATOM     31  H   UNL     1       4.584  15.420  20.428  0.00  0.00    +0.000 HD
BRANCH  29  32
ATOM     32  C   UNL     1       6.700  15.987  19.093  0.00  0.00    +0.000 A 
ATOM     33  C   UNL     1       6.120  15.197  18.089  0.00  0.00    +0.000 A 
ATOM     34  C   UNL     1       6.799  14.081  17.623  0.00  0.00    +0.000 A 
ATOM     35  C   UNL     1       8.102  13.842  18.063  0.00  0.00    +0.000 A 
ATOM     36  C   UNL     1       8.774  12.687  17.679  0.00  0.00    +0.000 A 
ATOM     37  C   UNL     1      10.128  12.823  17.421  0.00  0.00    +0.000 A 
ATOM     38  C   UNL     1      10.778  13.820  18.094  0.00  0.00    +0.000 A 
ATOM     39  N   UNL     1      10.150  14.722  18.900  0.00  0.00    +0.000 NA
ATOM     40  C   UNL     1       8.804  14.787  18.817  0.00  0.00    +0.000 A 
ATOM     41  C   UNL     1       8.060  15.808  19.406  0.00  0.00    +0.000 A 
ENDBRANCH  29  32
ENDBRANCH  14  28
TORSDOF 4
ENDMDL
MODEL 9
REMARK VINA RESULT:      -7.1      4.820      7.394
REMARK  Name = 
REMARK  5 active torsions:
REMARK  status: ('A' for Active; 'I' for Inactive)
REMARK    1  A    between atoms: C_1  and  O_2
REMARK    2  A    between atoms: O_2  and  C_3
REMARK    3  A    between atoms: N_5  and  C_6
REMARK    4  A    between atoms: C_19  and  N_20
REMARK    5  A    between atoms: C_21  and  C_23
REMARK                            x       y       z     vdW  Elec       q    Type
REMARK                         _______ _______ _______ _____ _____    ______ ____
ROOT
ATOM      1  C   UNL     1      -3.511  12.911  22.270  0.00  0.00    +0.000 A 
ATOM      2  C   UNL     1      -2.234  12.895  22.842  0.00  0.00    +0.000 A 
ATOM      3  C   UNL     1      -1.125  13.387  22.096  0.00  0.00    +0.000 A 
ATOM      4  C   UNL     1      -1.283  13.760  20.746  0.00  0.00    +0.000 A 
ATOM      5  C   UNL     1      -2.394  13.149  20.112  0.00  0.00    +0.000 A 
ATOM      6  C   UNL     1      -3.578  13.108  20.883  0.00  0.00    +0.000 A 
ATOM      7  N   UNL     1      -2.138  11.730  19.776  0.00  0.00    +0.000 N 
ATOM      8  C   UNL     1      -1.507  11.309  18.608  0.00  0.00    +0.000 C 
ATOM      9  O   UNL     1      -1.931  11.619  17.502  0.00  0.00    +0.000 OA
ATOM     10  C   UNL     1      -0.169  10.629  18.825  0.00  0.00    +0.000 C 
ATOM     11  C   UNL     1       0.804  11.771  18.831  0.00  0.00    +0.000 C 
ATOM     12  C   UNL     1       2.207  11.892  18.114  0.00  0.00    +0.000 C 
ATOM     13  C   UNL     1       2.376  13.389  18.275  0.00  0.00    +0.000 C 
ATOM     14  C   UNL     1       2.891  14.811  18.390  0.00  0.00    +0.000 C 
ATOM     15  C   UNL     1       1.602  15.414  19.218  0.00  0.00    +0.000 A 
ATOM     16  N   UNL     1       1.057  14.798  20.286  0.00  0.00    +0.000 NA
ATOM     17  C   UNL     1      -0.318  14.678  20.046  0.00  0.00    +0.000 A 
ATOM     18  C   UNL     1      -0.625  15.530  19.000  0.00  0.00    +0.000 A 
ATOM     19  N   UNL     1       0.576  16.051  18.548  0.00  0.00    +0.000 N 
ATOM     20  H   UNL     1      -1.784  11.236  20.607  0.00  0.00    +0.000 HD
ATOM     21  H   UNL     1       0.687  16.529  17.643  0.00  0.00    +0.000 HD
ENDROOT
BRANCH   1  24
ATOM     22  C   UNL     1      -4.975  12.486  24.297  0.00  0.00    +0.000 C 
ATOM     23  O   UNL     1      -4.165  12.259  25.177  0.00  0.00    +0.000 OA
ATOM     24  N   UNL     1      -4.731  12.715  22.966  0.00  0.00    +0.000 N 
ATOM     25  H   UNL     1      -5.591  12.875  22.451  0.00  0.00    +0.000 HD
BRANCH  22  27
ATOM     26  C   UNL     1      -7.183  12.256  23.414  0.00  0.00    +0.000 C 
ATOM     27  O   UNL     1      -6.325  12.583  24.495  0.00  0.00    +0.000 OA
ENDBRANCH  22  27
ENDBRANCH   1  24
BRANCH  14  28
ATOM     28  N   UNL     1       4.139  14.920  19.133  0.00  0.00    +0.000 N 
ATOM     29  C   UNL     1       4.907  16.057  19.055  0.00  0.00    +0.000 C 
ATOM     30  O   UNL     1       4.522  17.128  18.576  0.00  0.00    +0.000 OA
ATOM     31  H   UNL     1       4.593  14.037  19.338  0.00  0.00    +0.000 HD
BRANCH  29  32
ATOM     32  C   UNL     1       6.352  15.901  19.430  0.00  0.00    +0.000 A 
ATOM     33  C   UNL     1       7.309  15.788  18.411  0.00  0.00    +0.000 A 
ATOM     34  C   UNL     1       8.576  15.313  18.716  0.00  0.00    +0.000 A 
ATOM     35  C   UNL     1       8.917  15.088  20.051  0.00  0.00    +0.000 A 
ATOM     36  C   UNL     1      10.149  14.532  20.379  0.00  0.00    +0.000 A 
ATOM     37  C   UNL     1      10.759  15.027  21.519  0.00  0.00    +0.000 A 
ATOM     38  C   UNL     1       9.929  15.513  22.491  0.00  0.00    +0.000 A 
ATOM     39  N   UNL     1       8.579  15.625  22.346  0.00  0.00    +0.000 NA
ATOM     40  C   UNL     1       8.083  15.494  21.097  0.00  0.00    +0.000 A 
ATOM     41  C   UNL     1       6.764  15.809  20.772  0.00  0.00    +0.000 A 
ENDBRANCH  29  32
ENDBRANCH  14  28
TORSDOF 4
ENDMDL
