MODEL 1
REMARK VINA RESULT:      -8.0      0.000      0.000
REMARK  Name = 
REMARK  3 active torsions:
REMARK  status: ('A' for Active; 'I' for Inactive)
REMARK    1  A    between atoms: C_1  and  C_2
REMARK    2  A    between atoms: C_7  and  C_8
REMARK    3  A    between atoms: N_11  and  C_12
REMARK                            x       y       z     vdW  Elec       q    Type
REMARK                         _______ _______ _______ _____ _____    ______ ____
ROOT
ATOM      1  C   UNL     1      -0.490   9.895  20.012  0.00  0.00    +0.000 C 
ATOM      2  C   UNL     1      -0.035   8.911  21.128  0.00  0.00    +0.000 C 
ATOM      3  C   UNL     1       1.442   8.482  21.139  0.00  0.00    +0.000 C 
ATOM      4  N   UNL     1       1.924   8.281  19.766  0.00  0.00    +0.000 N 
ATOM      5  C   UNL     1       1.831   9.529  18.996  0.00  0.00    +0.000 C 
ATOM      6  C   UNL     1       0.366   9.830  18.732  0.00  0.00    +0.000 C 
ENDROOT
BRANCH   4   7
ATOM      7  C   UNL     1       2.324   7.048  19.209  0.00  0.00    +0.000 C 
ATOM      8  C   UNL     1       3.150   6.958  18.148  0.00  0.00    +0.000 C 
ATOM      9  C   UNL     1       3.652   5.708  17.557  0.00  0.00    +0.000 C 
ATOM     10  O   UNL     1       4.483   5.737  16.655  0.00  0.00    +0.000 OA
ATOM     11  C   UNL     1       3.094   4.450  18.053  0.00  0.00    +0.000 A 
ATOM     12  C   UNL     1       3.451   3.241  17.436  0.00  0.00    +0.000 A 
ATOM     13  C   UNL     1       2.870   2.045  17.856  0.00  0.00    +0.000 A 
ATOM     14  C   UNL     1       1.936   2.058  18.892  0.00  0.00    +0.000 A 
ATOM     15  C   UNL     1       1.610   3.260  19.529  0.00  0.00    +0.000 A 
ATOM     16  C   UNL     1       2.195   4.465  19.114  0.00  0.00    +0.000 A 
ATOM     17  C   UNL     1       1.881   5.729  19.826  0.00  0.00    +0.000 C 
ATOM     18  O   UNL     1       1.309   5.668  20.910  0.00  0.00    +0.000 OA
ENDBRANCH   4   7
BRANCH   1  25
ATOM     19  C   UNL     1      -2.706  11.505  18.708  0.00  0.00    +0.000 C 
ATOM     20  C   UNL     1      -1.838  12.080  19.800  0.00  0.00    +0.000 A 
ATOM     21  C   UNL     1      -2.107  13.400  20.206  0.00  0.00    +0.000 A 
ATOM     22  C   UNL     1      -1.363  14.005  21.211  0.00  0.00    +0.000 A 
ATOM     23  C   UNL     1      -0.331  13.299  21.817  0.00  0.00    +0.000 A 
ATOM     24  C   UNL     1      -0.038  11.990  21.419  0.00  0.00    +0.000 A 
ATOM     25  C   UNL     1      -0.788  11.346  20.420  0.00  0.00    +0.000 A 
ENDBRANCH   1  25
TORSDOF 2
ENDMDL
MODEL 2
REMARK VINA RESULT:      -7.8      2.267      8.392
REMARK  Name = 
REMARK  3 active torsions:
REMARK  status: ('A' for Active; 'I' for Inactive)
REMARK    1  A    between atoms: C_1  and  C_2
REMARK    2  A    between atoms: C_7  and  C_8
REMARK    3  A    between atoms: N_11  and  C_12
REMARK                            x       y       z     vdW  Elec       q    Type
REMARK                         _______ _______ _______ _____ _____    ______ ____
ROOT
ATOM      1  C   UNL     1       4.576   6.542  18.417  0.00  0.00    +0.000 C 
ATOM      2  C   UNL     1       3.781   5.887  19.584  0.00  0.00    +0.000 C 
ATOM      3  C   UNL     1       2.256   6.076  19.598  0.00  0.00    +0.000 C 
ATOM      4  N   UNL     1       1.906   7.436  19.168  0.00  0.00    +0.000 N 
ATOM      5  C   UNL     1       2.369   7.680  17.796  0.00  0.00    +0.000 C 
ATOM      6  C   UNL     1       3.885   7.774  17.802  0.00  0.00    +0.000 C 
ENDROOT
BRANCH   4   7
ATOM      7  C   UNL     1       1.306   8.424  19.977  0.00  0.00    +0.000 C 
ATOM      8  C   UNL     1       1.439   8.451  21.318  0.00  0.00    +0.000 C 
ATOM      9  C   UNL     1       0.891   9.483  22.212  0.00  0.00    +0.000 C 
ATOM     10  O   UNL     1       1.156   9.472  23.409  0.00  0.00    +0.000 OA
ATOM     11  C   UNL     1      -0.006  10.481  21.628  0.00  0.00    +0.000 A 
ATOM     12  C   UNL     1      -0.648  11.408  22.462  0.00  0.00    +0.000 A 
ATOM     13  C   UNL     1      -1.559  12.317  21.923  0.00  0.00    +0.000 A 
ATOM     14  C   UNL     1      -1.823  12.301  20.554  0.00  0.00    +0.000 A 
ATOM     15  C   UNL     1      -1.153  11.398  19.720  0.00  0.00    +0.000 A 
ATOM     16  C   UNL     1      -0.233  10.485  20.256  0.00  0.00    +0.000 A 
ATOM     17  C   UNL     1       0.510   9.564  19.360  0.00  0.00    +0.000 C 
ATOM     18  O   UNL     1       0.491   9.777  18.151  0.00  0.00    +0.000 OA
ENDBRANCH   4   7
BRANCH   1  25
ATOM     19  C   UNL     1       7.393   6.868  17.339  0.00  0.00    +0.000 C 
ATOM     20  C   UNL     1       6.472   5.779  16.848  0.00  0.00    +0.000 A 
ATOM     21  C   UNL     1       6.978   4.902  15.871  0.00  0.00    +0.000 A 
ATOM     22  C   UNL     1       6.201   3.866  15.369  0.00  0.00    +0.000 A 
ATOM     23  C   UNL     1       4.901   3.699  15.831  0.00  0.00    +0.000 A 
ATOM     24  C   UNL     1       4.374   4.568  16.793  0.00  0.00    +0.000 A 
ATOM     25  C   UNL     1       5.144   5.613  17.333  0.00  0.00    +0.000 A 
ENDBRANCH   1  25
TORSDOF 2
ENDMDL
MODEL 3
REMARK VINA RESULT:      -7.8      1.443      2.423
REMARK  Name = 
REMARK  3 active torsions:
REMARK  status: ('A' for Active; 'I' for Inactive)
REMARK    1  A    between atoms: C_1  and  C_2
REMARK    2  A    between atoms: C_7  and  C_8
REMARK    3  A    between atoms: N_11  and  C_12
REMARK                            x       y       z     vdW  Elec       q    Type
REMARK                         _______ _______ _______ _____ _____    ______ ____
ROOT
ATOM      1  C   UNL     1       0.187   9.962  19.159  0.00  0.00    +0.000 C 
ATOM      2  C   UNL     1       0.237   9.280  20.557  0.00  0.00    +0.000 C 
ATOM      3  C   UNL     1       1.526   8.535  20.940  0.00  0.00    +0.000 C 
ATOM      4  N   UNL     1       2.067   7.822  19.775  0.00  0.00    +0.000 N 
ATOM      5  C   UNL     1       2.403   8.764  18.700  0.00  0.00    +0.000 C 
ATOM      6  C   UNL     1       1.114   9.312  18.112  0.00  0.00    +0.000 C 
ENDROOT
BRANCH   4   7
ATOM      7  C   UNL     1       2.160   6.419  19.643  0.00  0.00    +0.000 C 
ATOM      8  C   UNL     1       1.616   5.563  20.531  0.00  0.00    +0.000 C 
ATOM      9  C   UNL     1       1.626   4.096  20.421  0.00  0.00    +0.000 C 
ATOM     10  O   UNL     1       1.013   3.409  21.231  0.00  0.00    +0.000 OA
ATOM     11  C   UNL     1       2.423   3.500  19.348  0.00  0.00    +0.000 A 
ATOM     12  C   UNL     1       2.560   2.106  19.279  0.00  0.00    +0.000 A 
ATOM     13  C   UNL     1       3.375   1.533  18.302  0.00  0.00    +0.000 A 
ATOM     14  C   UNL     1       4.046   2.352  17.396  0.00  0.00    +0.000 A 
ATOM     15  C   UNL     1       3.877   3.740  17.445  0.00  0.00    +0.000 A 
ATOM     16  C   UNL     1       3.056   4.322  18.422  0.00  0.00    +0.000 A 
ATOM     17  C   UNL     1       2.843   5.790  18.438  0.00  0.00    +0.000 C 
ATOM     18  O   UNL     1       3.189   6.446  17.459  0.00  0.00    +0.000 OA
ENDBRANCH   4   7
BRANCH   1  25
ATOM     19  C   UNL     1      -1.919  11.634  17.755  0.00  0.00    +0.000 C 
ATOM     20  C   UNL     1      -0.737  12.260  18.453  0.00  0.00    +0.000 A 
ATOM     21  C   UNL     1      -0.654  13.665  18.442  0.00  0.00    +0.000 A 
ATOM     22  C   UNL     1       0.396  14.325  19.068  0.00  0.00    +0.000 A 
ATOM     23  C   UNL     1       1.385  13.586  19.706  0.00  0.00    +0.000 A 
ATOM     24  C   UNL     1       1.329  12.188  19.718  0.00  0.00    +0.000 A 
ATOM     25  C   UNL     1       0.267  11.495  19.111  0.00  0.00    +0.000 A 
ENDBRANCH   1  25
TORSDOF 2
ENDMDL
MODEL 4
REMARK VINA RESULT:      -7.7      0.954      2.100
REMARK  Name = 
REMARK  3 active torsions:
REMARK  status: ('A' for Active; 'I' for Inactive)
REMARK    1  A    between atoms: C_1  and  C_2
REMARK    2  A    between atoms: C_7  and  C_8
REMARK    3  A    between atoms: N_11  and  C_12
REMARK                            x       y       z     vdW  Elec       q    Type
REMARK                         _______ _______ _______ _____ _____    ______ ____
ROOT
ATOM      1  C   UNL     1      -0.462  10.087  20.274  0.00  0.00    +0.000 C 
ATOM      2  C   UNL     1      -0.126   9.230  21.529  0.00  0.00    +0.000 C 
ATOM      3  C   UNL     1       1.281   8.617  21.615  0.00  0.00    +0.000 C 
ATOM      4  N   UNL     1       1.715   8.150  20.291  0.00  0.00    +0.000 N 
ATOM      5  C   UNL     1       1.777   9.269  19.342  0.00  0.00    +0.000 C 
ATOM      6  C   UNL     1       0.361   9.719  19.025  0.00  0.00    +0.000 C 
ENDROOT
BRANCH   4   7
ATOM      7  C   UNL     1       1.942   6.805  19.929  0.00  0.00    +0.000 C 
ATOM      8  C   UNL     1       1.487   5.765  20.656  0.00  0.00    +0.000 C 
ATOM      9  C   UNL     1       1.637   4.344  20.304  0.00  0.00    +0.000 C 
ATOM     10  O   UNL     1       1.097   3.477  20.982  0.00  0.00    +0.000 OA
ATOM     11  C   UNL     1       2.483   4.014  19.156  0.00  0.00    +0.000 A 
ATOM     12  C   UNL     1       2.753   2.670  18.859  0.00  0.00    +0.000 A 
ATOM     13  C   UNL     1       3.614   2.348  17.809  0.00  0.00    +0.000 A 
ATOM     14  C   UNL     1       4.199   3.367  17.059  0.00  0.00    +0.000 A 
ATOM     15  C   UNL     1       3.898   4.705  17.336  0.00  0.00    +0.000 A 
ATOM     16  C   UNL     1       3.030   5.035  18.387  0.00  0.00    +0.000 A 
ATOM     17  C   UNL     1       2.676   6.453  18.644  0.00  0.00    +0.000 C 
ATOM     18  O   UNL     1       2.953   7.292  17.791  0.00  0.00    +0.000 OA
ENDBRANCH   4   7
BRANCH   1  25
ATOM     19  C   UNL     1      -2.633  11.727  18.931  0.00  0.00    +0.000 C 
ATOM     20  C   UNL     1      -1.593  12.358  19.824  0.00  0.00    +0.000 A 
ATOM     21  C   UNL     1      -1.676  13.748  20.025  0.00  0.00    +0.000 A 
ATOM     22  C   UNL     1      -0.765  14.409  20.839  0.00  0.00    +0.000 A 
ATOM     23  C   UNL     1       0.250  13.688  21.456  0.00  0.00    +0.000 A 
ATOM     24  C   UNL     1       0.359  12.307  21.259  0.00  0.00    +0.000 A 
ATOM     25  C   UNL     1      -0.561  11.609  20.458  0.00  0.00    +0.000 A 
ENDBRANCH   1  25
TORSDOF 2
ENDMDL
MODEL 5
REMARK VINA RESULT:      -7.4      0.662      1.301
REMARK  Name = 
REMARK  3 active torsions:
REMARK  status: ('A' for Active; 'I' for Inactive)
REMARK    1  A    between atoms: C_1  and  C_2
REMARK    2  A    between atoms: C_7  and  C_8
REMARK    3  A    between atoms: N_11  and  C_12
REMARK                            x       y       z     vdW  Elec       q    Type
REMARK                         _______ _______ _______ _____ _____    ______ ____
ROOT
ATOM      1  C   UNL     1      -0.515   9.833  20.218  0.00  0.00    +0.000 C 
ATOM      2  C   UNL     1       0.101   8.895  21.297  0.00  0.00    +0.000 C 
ATOM      3  C   UNL     1       1.589   8.535  21.159  0.00  0.00    +0.000 C 
ATOM      4  N   UNL     1       1.935   8.326  19.747  0.00  0.00    +0.000 N 
ATOM      5  C   UNL     1       1.703   9.551  18.970  0.00  0.00    +0.000 C 
ATOM      6  C   UNL     1       0.205   9.780  18.856  0.00  0.00    +0.000 C 
ENDROOT
BRANCH   4   7
ATOM      7  C   UNL     1       2.333   7.100  19.172  0.00  0.00    +0.000 C 
ATOM      8  C   UNL     1       3.167   7.025  18.115  0.00  0.00    +0.000 C 
ATOM      9  C   UNL     1       3.667   5.783  17.506  0.00  0.00    +0.000 C 
ATOM     10  O   UNL     1       4.504   5.823  16.611  0.00  0.00    +0.000 OA
ATOM     11  C   UNL     1       3.098   4.519  17.976  0.00  0.00    +0.000 A 
ATOM     12  C   UNL     1       3.455   3.320  17.341  0.00  0.00    +0.000 A 
ATOM     13  C   UNL     1       2.864   2.119  17.736  0.00  0.00    +0.000 A 
ATOM     14  C   UNL     1       1.923   2.118  18.766  0.00  0.00    +0.000 A 
ATOM     15  C   UNL     1       1.598   3.312  19.421  0.00  0.00    +0.000 A 
ATOM     16  C   UNL     1       2.192   4.521  19.031  0.00  0.00    +0.000 A 
ATOM     17  C   UNL     1       1.880   5.774  19.762  0.00  0.00    +0.000 C 
ATOM     18  O   UNL     1       1.299   5.696  20.841  0.00  0.00    +0.000 OA
ENDBRANCH   4   7
BRANCH   1  25
ATOM     19  C   UNL     1      -1.021  10.599  23.109  0.00  0.00    +0.000 C 
ATOM     20  C   UNL     1      -1.064  11.615  21.995  0.00  0.00    +0.000 A 
ATOM     21  C   UNL     1      -1.336  12.949  22.352  0.00  0.00    +0.000 A 
ATOM     22  C   UNL     1      -1.385  13.951  21.391  0.00  0.00    +0.000 A 
ATOM     23  C   UNL     1      -1.172  13.629  20.056  0.00  0.00    +0.000 A 
ATOM     24  C   UNL     1      -0.913  12.307  19.678  0.00  0.00    +0.000 A 
ATOM     25  C   UNL     1      -0.837  11.277  20.631  0.00  0.00    +0.000 A 
ENDBRANCH   1  25
TORSDOF 2
ENDMDL
MODEL 6
REMARK VINA RESULT:      -7.3      2.003      3.547
REMARK  Name = 
REMARK  3 active torsions:
REMARK  status: ('A' for Active; 'I' for Inactive)
REMARK    1  A    between atoms: C_1  and  C_2
REMARK    2  A    between atoms: C_7  and  C_8
REMARK    3  A    between atoms: N_11  and  C_12
REMARK                            x       y       z     vdW  Elec       q    Type
REMARK                         _______ _______ _______ _____ _____    ______ ____
ROOT
ATOM      1  C   UNL     1       0.225  12.619  19.093  0.00  0.00    +0.000 C 
ATOM      2  C   UNL     1      -0.677  11.471  18.552  0.00  0.00    +0.000 C 
ATOM      3  C   UNL     1      -0.793  10.197  19.405  0.00  0.00    +0.000 C 
ATOM      4  N   UNL     1       0.506   9.865  20.005  0.00  0.00    +0.000 N 
ATOM      5  C   UNL     1       0.960  10.948  20.888  0.00  0.00    +0.000 C 
ATOM      6  C   UNL     1       1.349  12.142  20.034  0.00  0.00    +0.000 C 
ENDROOT
BRANCH   4   7
ATOM      7  C   UNL     1       1.279   8.722  19.709  0.00  0.00    +0.000 C 
ATOM      8  C   UNL     1       1.329   7.644  20.516  0.00  0.00    +0.000 C 
ATOM      9  C   UNL     1       2.065   6.401  20.239  0.00  0.00    +0.000 C 
ATOM     10  O   UNL     1       1.962   5.437  20.990  0.00  0.00    +0.000 OA
ATOM     11  C   UNL     1       2.947   6.379  19.071  0.00  0.00    +0.000 A 
ATOM     12  C   UNL     1       3.760   5.261  18.837  0.00  0.00    +0.000 A 
ATOM     13  C   UNL     1       4.654   5.261  17.766  0.00  0.00    +0.000 A 
ATOM     14  C   UNL     1       4.731   6.374  16.930  0.00  0.00    +0.000 A 
ATOM     15  C   UNL     1       3.892   7.473  17.146  0.00  0.00    +0.000 A 
ATOM     16  C   UNL     1       2.988   7.477  18.218  0.00  0.00    +0.000 A 
ATOM     17  C   UNL     1       2.067   8.624  18.411  0.00  0.00    +0.000 C 
ATOM     18  O   UNL     1       1.940   9.437  17.500  0.00  0.00    +0.000 OA
ENDBRANCH   4   7
BRANCH   1  25
ATOM     19  C   UNL     1       1.349  15.399  18.639  0.00  0.00    +0.000 C 
ATOM     20  C   UNL     1       0.069  15.171  19.404  0.00  0.00    +0.000 A 
ATOM     21  C   UNL     1      -0.599  16.309  19.893  0.00  0.00    +0.000 A 
ATOM     22  C   UNL     1      -1.788  16.192  20.600  0.00  0.00    +0.000 A 
ATOM     23  C   UNL     1      -2.321  14.930  20.838  0.00  0.00    +0.000 A 
ATOM     24  C   UNL     1      -1.666  13.785  20.373  0.00  0.00    +0.000 A 
ATOM     25  C   UNL     1      -0.472  13.875  19.636  0.00  0.00    +0.000 A 
ENDBRANCH   1  25
TORSDOF 2
ENDMDL
MODEL 7
REMARK VINA RESULT:      -7.3      2.914      8.405
REMARK  Name = 
REMARK  3 active torsions:
REMARK  status: ('A' for Active; 'I' for Inactive)
REMARK    1  A    between atoms: C_1  and  C_2
REMARK    2  A    between atoms: C_7  and  C_8
REMARK    3  A    between atoms: N_11  and  C_12
REMARK                            x       y       z     vdW  Elec       q    Type
REMARK                         _______ _______ _______ _____ _____    ______ ____
ROOT
ATOM      1  C   UNL     1       2.364   7.481  19.572  0.00  0.00    +0.000 C 
ATOM      2  C   UNL     1       1.669   8.239  20.740  0.00  0.00    +0.000 C 
ATOM      3  C   UNL     1       0.492   9.164  20.386  0.00  0.00    +0.000 C 
ATOM      4  N   UNL     1       0.764   9.876  19.131  0.00  0.00    +0.000 N 
ATOM      5  C   UNL     1       0.930   8.928  18.022  0.00  0.00    +0.000 C 
ATOM      6  C   UNL     1       2.242   8.186  18.207  0.00  0.00    +0.000 C 
ENDROOT
BRANCH   4   7
ATOM      7  C   UNL     1       0.951  11.270  19.002  0.00  0.00    +0.000 C 
ATOM      8  C   UNL     1       2.133  11.820  18.659  0.00  0.00    +0.000 C 
ATOM      9  C   UNL     1       2.380  13.255  18.450  0.00  0.00    +0.000 C 
ATOM     10  O   UNL     1       3.467  13.644  18.038  0.00  0.00    +0.000 OA
ATOM     11  C   UNL     1       1.304  14.187  18.792  0.00  0.00    +0.000 A 
ATOM     12  C   UNL     1       1.537  15.569  18.726  0.00  0.00    +0.000 A 
ATOM     13  C   UNL     1       0.540  16.463  19.117  0.00  0.00    +0.000 A 
ATOM     14  C   UNL     1      -0.685  15.976  19.570  0.00  0.00    +0.000 A 
ATOM     15  C   UNL     1      -0.926  14.598  19.601  0.00  0.00    +0.000 A 
ATOM     16  C   UNL     1       0.071  13.694  19.204  0.00  0.00    +0.000 A 
ATOM     17  C   UNL     1      -0.208  12.237  19.192  0.00  0.00    +0.000 C 
ATOM     18  O   UNL     1      -1.372  11.859  19.295  0.00  0.00    +0.000 OA
ENDBRANCH   4   7
BRANCH   1  25
ATOM     19  C   UNL     1       3.807   5.770  17.524  0.00  0.00    +0.000 C 
ATOM     20  C   UNL     1       2.806   5.186  18.489  0.00  0.00    +0.000 A 
ATOM     21  C   UNL     1       2.573   3.800  18.413  0.00  0.00    +0.000 A 
ATOM     22  C   UNL     1       1.674   3.177  19.270  0.00  0.00    +0.000 A 
ATOM     23  C   UNL     1       0.986   3.937  20.209  0.00  0.00    +0.000 A 
ATOM     24  C   UNL     1       1.193   5.318  20.292  0.00  0.00    +0.000 A 
ATOM     25  C   UNL     1       2.111   5.971  19.452  0.00  0.00    +0.000 A 
ENDBRANCH   1  25
TORSDOF 2
ENDMDL
MODEL 8
REMARK VINA RESULT:      -7.3      1.296      2.461
REMARK  Name = 
REMARK  3 active torsions:
REMARK  status: ('A' for Active; 'I' for Inactive)
REMARK    1  A    between atoms: C_1  and  C_2
REMARK    2  A    between atoms: C_7  and  C_8
REMARK    3  A    between atoms: N_11  and  C_12
REMARK                            x       y       z     vdW  Elec       q    Type
REMARK                         _______ _______ _______ _____ _____    ______ ____
ROOT
ATOM      1  C   UNL     1      -0.642  10.279  20.780  0.00  0.00    +0.000 C 
ATOM      2  C   UNL     1       0.024   9.477  21.936  0.00  0.00    +0.000 C 
ATOM      3  C   UNL     1       1.465   8.985  21.721  0.00  0.00    +0.000 C 
ATOM      4  N   UNL     1       1.646   8.530  20.336  0.00  0.00    +0.000 N 
ATOM      5  C   UNL     1       1.411   9.632  19.394  0.00  0.00    +0.000 C 
ATOM      6  C   UNL     1      -0.074   9.956  19.385  0.00  0.00    +0.000 C 
ENDROOT
BRANCH   4   7
ATOM      7  C   UNL     1       1.905   7.202  19.935  0.00  0.00    +0.000 C 
ATOM      8  C   UNL     1       1.466   6.131  20.626  0.00  0.00    +0.000 C 
ATOM      9  C   UNL     1       1.649   4.725  20.232  0.00  0.00    +0.000 C 
ATOM     10  O   UNL     1       1.120   3.826  20.877  0.00  0.00    +0.000 OA
ATOM     11  C   UNL     1       2.513   4.447  19.084  0.00  0.00    +0.000 A 
ATOM     12  C   UNL     1       2.814   3.119  18.748  0.00  0.00    +0.000 A 
ATOM     13  C   UNL     1       3.692   2.848  17.699  0.00  0.00    +0.000 A 
ATOM     14  C   UNL     1       4.264   3.901  16.986  0.00  0.00    +0.000 A 
ATOM     15  C   UNL     1       3.931   5.224  17.301  0.00  0.00    +0.000 A 
ATOM     16  C   UNL     1       3.046   5.503  18.352  0.00  0.00    +0.000 A 
ATOM     17  C   UNL     1       2.660   6.905  18.648  0.00  0.00    +0.000 C 
ATOM     18  O   UNL     1       2.927   7.775  17.825  0.00  0.00    +0.000 OA
ENDBRANCH   4   7
BRANCH   1  25
ATOM     19  C   UNL     1      -1.987  11.418  23.249  0.00  0.00    +0.000 C 
ATOM     20  C   UNL     1      -1.456  12.304  22.149  0.00  0.00    +0.000 A 
ATOM     21  C   UNL     1      -1.597  13.694  22.319  0.00  0.00    +0.000 A 
ATOM     22  C   UNL     1      -1.128  14.582  21.360  0.00  0.00    +0.000 A 
ATOM     23  C   UNL     1      -0.521  14.091  20.210  0.00  0.00    +0.000 A 
ATOM     24  C   UNL     1      -0.383  12.712  20.016  0.00  0.00    +0.000 A 
ATOM     25  C   UNL     1      -0.829  11.791  20.979  0.00  0.00    +0.000 A 
ENDBRANCH   1  25
TORSDOF 2
ENDMDL
MODEL 9
REMARK VINA RESULT:      -7.3      1.932      8.389
REMARK  Name = 
REMARK  3 active torsions:
REMARK  status: ('A' for Active; 'I' for Inactive)
REMARK    1  A    between atoms: C_1  and  C_2
REMARK    2  A    between atoms: C_7  and  C_8
REMARK    3  A    between atoms: N_11  and  C_12
REMARK                            x       y       z     vdW  Elec       q    Type
REMARK                         _______ _______ _______ _____ _____    ______ ____
ROOT
ATOM      1  C   UNL     1       1.639   5.334  18.490  0.00  0.00    +0.000 C 
ATOM      2  C   UNL     1       1.896   6.734  17.859  0.00  0.00    +0.000 C 
ATOM      3  C   UNL     1       2.503   7.819  18.762  0.00  0.00    +0.000 C 
ATOM      4  N   UNL     1       1.932   7.736  20.113  0.00  0.00    +0.000 N 
ATOM      5  C   UNL     1       2.232   6.435  20.724  0.00  0.00    +0.000 C 
ATOM      6  C   UNL     1       1.419   5.365  20.015  0.00  0.00    +0.000 C 
ENDROOT
BRANCH   4   7
ATOM      7  C   UNL     1       1.115   8.714  20.720  0.00  0.00    +0.000 C 
ATOM      8  C   UNL     1       0.933   8.789  22.053  0.00  0.00    +0.000 C 
ATOM      9  C   UNL     1       0.144   9.816  22.753  0.00  0.00    +0.000 C 
ATOM     10  O   UNL     1       0.125   9.856  23.978  0.00  0.00    +0.000 OA
ATOM     11  C   UNL     1      -0.639  10.744  21.937  0.00  0.00    +0.000 A 
ATOM     12  C   UNL     1      -1.500  11.660  22.561  0.00  0.00    +0.000 A 
ATOM     13  C   UNL     1      -2.302  12.500  21.789  0.00  0.00    +0.000 A 
ATOM     14  C   UNL     1      -2.241  12.427  20.398  0.00  0.00    +0.000 A 
ATOM     15  C   UNL     1      -1.355  11.538  19.779  0.00  0.00    +0.000 A 
ATOM     16  C   UNL     1      -0.542  10.694  20.550  0.00  0.00    +0.000 A 
ATOM     17  C   UNL     1       0.431   9.789  19.889  0.00  0.00    +0.000 C 
ATOM     18  O   UNL     1       0.682   9.963  18.700  0.00  0.00    +0.000 OA
ENDBRANCH   4   7
BRANCH   1  25
ATOM     19  C   UNL     1       0.848   2.426  18.835  0.00  0.00    +0.000 C 
ATOM     20  C   UNL     1       2.175   2.827  18.240  0.00  0.00    +0.000 A 
ATOM     21  C   UNL     1       3.036   1.791  17.833  0.00  0.00    +0.000 A 
ATOM     22  C   UNL     1       4.273   2.070  17.266  0.00  0.00    +0.000 A 
ATOM     23  C   UNL     1       4.670   3.392  17.108  0.00  0.00    +0.000 A 
ATOM     24  C   UNL     1       3.835   4.437  17.518  0.00  0.00    +0.000 A 
ATOM     25  C   UNL     1       2.570   4.185  18.076  0.00  0.00    +0.000 A 
ENDBRANCH   1  25
TORSDOF 2
ENDMDL
