MODEL 1
REMARK VINA RESULT:      -8.2      0.000      0.000
REMARK  Name = 
REMARK  5 active torsions:
REMARK  status: ('A' for Active; 'I' for Inactive)
REMARK    1  A    between atoms: N_1  and  S_2
REMARK    2  A    between atoms: S_2  and  C_5
REMARK    3  A    between atoms: C_8  and  N_9
REMARK    4  A    between atoms: C_11  and  C_12
REMARK    5  A    between atoms: C_12  and  C_14
REMARK                            x       y       z     vdW  Elec       q    Type
REMARK                         _______ _______ _______ _____ _____    ______ ____
ROOT
ATOM      1  N   UNL     1       5.823   4.702  16.462  0.00  0.00    +0.000 N 
ATOM      2  C   UNL     1       5.610   4.706  15.106  0.00  0.00    +0.000 A 
ATOM      3  C   UNL     1       6.868   4.734  14.544  0.00  0.00    +0.000 A 
ATOM      4  N   UNL     1       7.796   4.789  15.549  0.00  0.00    +0.000 NA
ATOM      5  N   UNL     1       7.154   4.784  16.707  0.00  0.00    +0.000 NA
ENDROOT
BRANCH   1   9
ATOM      6  C   UNL     1       2.984   4.394  19.549  0.00  0.00    +0.000 A 
ATOM      7  C   UNL     1       4.014   5.331  19.659  0.00  0.00    +0.000 A 
ATOM      8  C   UNL     1       4.962   5.435  18.637  0.00  0.00    +0.000 A 
ATOM      9  C   UNL     1       4.876   4.603  17.511  0.00  0.00    +0.000 A 
ATOM     10  C   UNL     1       3.832   3.668  17.411  0.00  0.00    +0.000 A 
ATOM     11  C   UNL     1       2.890   3.560  18.434  0.00  0.00    +0.000 A 
BRANCH   6  12
ATOM     12  S   UNL     1       1.764   4.283  20.825  0.00  0.00    +0.000 S 
ATOM     13  O   UNL     1       1.147   5.576  20.988  0.00  0.00    +0.000 OA
ATOM     14  O   UNL     1       2.293   3.520  21.930  0.00  0.00    +0.000 OA
BRANCH  12  15
ATOM     15  N   UNL     1       0.607   3.297  20.111  0.00  0.00    +0.000 NA
ATOM     16  H   UNL     1       1.047   2.429  19.804  0.00  0.00    +0.000 HD
ATOM     17  H   UNL     1       0.132   3.803  19.364  0.00  0.00    +0.000 HD
ENDBRANCH  12  15
ENDBRANCH   6  12
ENDBRANCH   1   9
BRANCH   3  18
ATOM     18  C   UNL     1       7.190   4.719  13.130  0.00  0.00    +0.000 C 
ATOM     19  O   UNL     1       7.841   5.615  12.597  0.00  0.00    +0.000 OA
BRANCH  18  20
ATOM     20  C   UNL     1       6.684   3.594  12.303  0.00  0.00    +0.000 A 
ATOM     21  C   UNL     1       5.303   3.456  12.122  0.00  0.00    +0.000 A 
ATOM     22  C   UNL     1       4.801   2.389  11.375  0.00  0.00    +0.000 A 
ATOM     23  C   UNL     1       5.675   1.453  10.820  0.00  0.00    +0.000 A 
ATOM     24  C   UNL     1       7.050   1.575  11.015  0.00  0.00    +0.000 A 
ATOM     25  C   UNL     1       7.555   2.640  11.758  0.00  0.00    +0.000 A 
ENDBRANCH  18  20
ENDBRANCH   3  18
TORSDOF 5
ENDMDL
MODEL 2
REMARK VINA RESULT:      -7.9      0.492      1.400
REMARK  Name = 
REMARK  5 active torsions:
REMARK  status: ('A' for Active; 'I' for Inactive)
REMARK    1  A    between atoms: N_1  and  S_2
REMARK    2  A    between atoms: S_2  and  C_5
REMARK    3  A    between atoms: C_8  and  N_9
REMARK    4  A    between atoms: C_11  and  C_12
REMARK    5  A    between atoms: C_12  and  C_14
REMARK                            x       y       z     vdW  Elec       q    Type
REMARK                         _______ _______ _______ _____ _____    ______ ____
ROOT
ATOM      1  N   UNL     1       5.676   4.988  16.357  0.00  0.00    +0.000 N 
ATOM      2  C   UNL     1       5.570   4.650  15.031  0.00  0.00    +0.000 A 
ATOM      3  C   UNL     1       6.792   4.971  14.479  0.00  0.00    +0.000 A 
ATOM      4  N   UNL     1       7.580   5.526  15.452  0.00  0.00    +0.000 NA
ATOM      5  N   UNL     1       6.891   5.545  16.583  0.00  0.00    +0.000 NA
ENDROOT
BRANCH   1   9
ATOM      6  C   UNL     1       2.897   4.466  19.471  0.00  0.00    +0.000 A 
ATOM      7  C   UNL     1       3.513   3.345  18.908  0.00  0.00    +0.000 A 
ATOM      8  C   UNL     1       4.434   3.513  17.871  0.00  0.00    +0.000 A 
ATOM      9  C   UNL     1       4.737   4.800  17.401  0.00  0.00    +0.000 A 
ATOM     10  C   UNL     1       4.115   5.919  17.979  0.00  0.00    +0.000 A 
ATOM     11  C   UNL     1       3.190   5.751  19.010  0.00  0.00    +0.000 A 
BRANCH   6  12
ATOM     12  S   UNL     1       1.756   4.259  20.805  0.00  0.00    +0.000 S 
ATOM     13  O   UNL     1       1.104   5.520  21.055  0.00  0.00    +0.000 OA
ATOM     14  O   UNL     1       2.373   3.473  21.847  0.00  0.00    +0.000 OA
BRANCH  12  15
ATOM     15  N   UNL     1       0.597   3.258  20.117  0.00  0.00    +0.000 NA
ATOM     16  H   UNL     1      -0.025   2.909  20.847  0.00  0.00    +0.000 HD
ATOM     17  H   UNL     1       1.049   2.521  19.576  0.00  0.00    +0.000 HD
ENDBRANCH  12  15
ENDBRANCH   6  12
ENDBRANCH   1   9
BRANCH   3  18
ATOM     18  C   UNL     1       7.202   4.777  13.101  0.00  0.00    +0.000 C 
ATOM     19  O   UNL     1       7.976   5.545  12.535  0.00  0.00    +0.000 OA
BRANCH  18  20
ATOM     20  C   UNL     1       6.637   3.626  12.353  0.00  0.00    +0.000 A 
ATOM     21  C   UNL     1       7.511   2.680  11.805  0.00  0.00    +0.000 A 
ATOM     22  C   UNL     1       7.004   1.606  11.071  0.00  0.00    +0.000 A 
ATOM     23  C   UNL     1       5.628   1.484  10.871  0.00  0.00    +0.000 A 
ATOM     24  C   UNL     1       4.756   2.435  11.397  0.00  0.00    +0.000 A 
ATOM     25  C   UNL     1       5.257   3.508  12.133  0.00  0.00    +0.000 A 
ENDBRANCH  18  20
ENDBRANCH   3  18
TORSDOF 5
ENDMDL
MODEL 3
REMARK VINA RESULT:      -7.9      3.176      4.026
REMARK  Name = 
REMARK  5 active torsions:
REMARK  status: ('A' for Active; 'I' for Inactive)
REMARK    1  A    between atoms: N_1  and  S_2
REMARK    2  A    between atoms: S_2  and  C_5
REMARK    3  A    between atoms: C_8  and  N_9
REMARK    4  A    between atoms: C_11  and  C_12
REMARK    5  A    between atoms: C_12  and  C_14
REMARK                            x       y       z     vdW  Elec       q    Type
REMARK                         _______ _______ _______ _____ _____    ______ ____
ROOT
ATOM      1  N   UNL     1       3.896   5.895  17.832  0.00  0.00    +0.000 N 
ATOM      2  C   UNL     1       5.202   6.070  17.446  0.00  0.00    +0.000 A 
ATOM      3  C   UNL     1       5.530   4.922  16.758  0.00  0.00    +0.000 A 
ATOM      4  N   UNL     1       4.455   4.075  16.779  0.00  0.00    +0.000 NA
ATOM      5  N   UNL     1       3.474   4.667  17.444  0.00  0.00    +0.000 NA
ENDROOT
BRANCH   1   9
ATOM      6  C   UNL     1       1.367   8.614  19.806  0.00  0.00    +0.000 A 
ATOM      7  C   UNL     1       1.731   7.430  20.449  0.00  0.00    +0.000 A 
ATOM      8  C   UNL     1       2.569   6.521  19.796  0.00  0.00    +0.000 A 
ATOM      9  C   UNL     1       3.039   6.801  18.504  0.00  0.00    +0.000 A 
ATOM     10  C   UNL     1       2.669   7.999  17.871  0.00  0.00    +0.000 A 
ATOM     11  C   UNL     1       1.828   8.903  18.520  0.00  0.00    +0.000 A 
BRANCH   6  12
ATOM     12  S   UNL     1       0.335   9.781  20.643  0.00  0.00    +0.000 S 
ATOM     13  O   UNL     1      -0.693  10.224  19.733  0.00  0.00    +0.000 OA
ATOM     14  O   UNL     1       1.157  10.692  21.402  0.00  0.00    +0.000 OA
BRANCH  12  15
ATOM     15  N   UNL     1      -0.430   8.812  21.781  0.00  0.00    +0.000 NA
ATOM     16  H   UNL     1       0.222   8.100  22.111  0.00  0.00    +0.000 HD
ATOM     17  H   UNL     1      -1.291   8.429  21.390  0.00  0.00    +0.000 HD
ENDBRANCH  12  15
ENDBRANCH   6  12
ENDBRANCH   1   9
BRANCH   3  18
ATOM     18  C   UNL     1       6.797   4.624  16.116  0.00  0.00    +0.000 C 
ATOM     19  O   UNL     1       7.836   4.476  16.755  0.00  0.00    +0.000 OA
BRANCH  18  20
ATOM     20  C   UNL     1       6.831   4.528  14.635  0.00  0.00    +0.000 A 
ATOM     21  C   UNL     1       6.008   3.593  13.997  0.00  0.00    +0.000 A 
ATOM     22  C   UNL     1       6.045   3.464  12.608  0.00  0.00    +0.000 A 
ATOM     23  C   UNL     1       6.912   4.257  11.856  0.00  0.00    +0.000 A 
ATOM     24  C   UNL     1       7.749   5.176  12.488  0.00  0.00    +0.000 A 
ATOM     25  C   UNL     1       7.713   5.309  13.875  0.00  0.00    +0.000 A 
ENDBRANCH  18  20
ENDBRANCH   3  18
TORSDOF 5
ENDMDL
MODEL 4
REMARK VINA RESULT:      -7.9      0.478      1.117
REMARK  Name = 
REMARK  5 active torsions:
REMARK  status: ('A' for Active; 'I' for Inactive)
REMARK    1  A    between atoms: N_1  and  S_2
REMARK    2  A    between atoms: S_2  and  C_5
REMARK    3  A    between atoms: C_8  and  N_9
REMARK    4  A    between atoms: C_11  and  C_12
REMARK    5  A    between atoms: C_12  and  C_14
REMARK                            x       y       z     vdW  Elec       q    Type
REMARK                         _______ _______ _______ _____ _____    ______ ____
ROOT
ATOM      1  N   UNL     1       5.828   4.902  16.384  0.00  0.00    +0.000 N 
ATOM      2  C   UNL     1       5.712   4.504  15.076  0.00  0.00    +0.000 A 
ATOM      3  C   UNL     1       6.854   4.966  14.457  0.00  0.00    +0.000 A 
ATOM      4  N   UNL     1       7.602   5.655  15.373  0.00  0.00    +0.000 NA
ATOM      5  N   UNL     1       6.966   5.624  16.535  0.00  0.00    +0.000 NA
ENDROOT
BRANCH   1   9
ATOM      6  C   UNL     1       3.256   4.063  19.604  0.00  0.00    +0.000 A 
ATOM      7  C   UNL     1       3.905   5.299  19.552  0.00  0.00    +0.000 A 
ATOM      8  C   UNL     1       4.763   5.581  18.485  0.00  0.00    +0.000 A 
ATOM      9  C   UNL     1       4.969   4.628  17.477  0.00  0.00    +0.000 A 
ATOM     10  C   UNL     1       4.306   3.391  17.539  0.00  0.00    +0.000 A 
ATOM     11  C   UNL     1       3.454   3.107  18.607  0.00  0.00    +0.000 A 
BRANCH   6  12
ATOM     12  S   UNL     1       2.143   3.716  20.934  0.00  0.00    +0.000 S 
ATOM     13  O   UNL     1       1.571   4.957  21.394  0.00  0.00    +0.000 OA
ATOM     14  O   UNL     1       2.744   2.751  21.823  0.00  0.00    +0.000 OA
BRANCH  12  15
ATOM     15  N   UNL     1       0.910   2.893  20.147  0.00  0.00    +0.000 NA
ATOM     16  H   UNL     1       0.343   3.558  19.619  0.00  0.00    +0.000 HD
ATOM     17  H   UNL     1       0.375   2.341  20.818  0.00  0.00    +0.000 HD
ENDBRANCH  12  15
ENDBRANCH   6  12
ENDBRANCH   1   9
BRANCH   3  18
ATOM     18  C   UNL     1       7.227   4.778  13.067  0.00  0.00    +0.000 C 
ATOM     19  O   UNL     1       7.973   5.558  12.479  0.00  0.00    +0.000 OA
BRANCH  18  20
ATOM     20  C   UNL     1       6.657   3.620  12.334  0.00  0.00    +0.000 A 
ATOM     21  C   UNL     1       7.528   2.676  11.778  0.00  0.00    +0.000 A 
ATOM     22  C   UNL     1       7.017   1.595  11.058  0.00  0.00    +0.000 A 
ATOM     23  C   UNL     1       5.639   1.462  10.881  0.00  0.00    +0.000 A 
ATOM     24  C   UNL     1       4.769   2.411  11.416  0.00  0.00    +0.000 A 
ATOM     25  C   UNL     1       5.275   3.491  12.137  0.00  0.00    +0.000 A 
ENDBRANCH  18  20
ENDBRANCH   3  18
TORSDOF 5
ENDMDL
MODEL 5
REMARK VINA RESULT:      -7.9      3.183      4.073
REMARK  Name = 
REMARK  5 active torsions:
REMARK  status: ('A' for Active; 'I' for Inactive)
REMARK    1  A    between atoms: N_1  and  S_2
REMARK    2  A    between atoms: S_2  and  C_5
REMARK    3  A    between atoms: C_8  and  N_9
REMARK    4  A    between atoms: C_11  and  C_12
REMARK    5  A    between atoms: C_12  and  C_14
REMARK                            x       y       z     vdW  Elec       q    Type
REMARK                         _______ _______ _______ _____ _____    ______ ____
ROOT
ATOM      1  N   UNL     1       3.926   5.939  17.787  0.00  0.00    +0.000 N 
ATOM      2  C   UNL     1       5.238   6.086  17.412  0.00  0.00    +0.000 A 
ATOM      3  C   UNL     1       5.550   4.927  16.733  0.00  0.00    +0.000 A 
ATOM      4  N   UNL     1       4.457   4.102  16.749  0.00  0.00    +0.000 NA
ATOM      5  N   UNL     1       3.482   4.718  17.401  0.00  0.00    +0.000 NA
ENDROOT
BRANCH   1   9
ATOM      6  C   UNL     1       1.400   8.659  19.763  0.00  0.00    +0.000 A 
ATOM      7  C   UNL     1       1.859   8.962  18.480  0.00  0.00    +0.000 A 
ATOM      8  C   UNL     1       2.701   8.062  17.820  0.00  0.00    +0.000 A 
ATOM      9  C   UNL     1       3.081   6.866  18.446  0.00  0.00    +0.000 A 
ATOM     10  C   UNL     1       2.608   6.572  19.736  0.00  0.00    +0.000 A 
ATOM     11  C   UNL     1       1.772   7.472  20.396  0.00  0.00    +0.000 A 
BRANCH   6  12
ATOM     12  S   UNL     1       0.307   9.779  20.587  0.00  0.00    +0.000 S 
ATOM     13  O   UNL     1      -0.746  10.153  19.675  0.00  0.00    +0.000 OA
ATOM     14  O   UNL     1       1.080  10.744  21.332  0.00  0.00    +0.000 OA
BRANCH  12  15
ATOM     15  N   UNL     1      -0.401   8.786  21.741  0.00  0.00    +0.000 NA
ATOM     16  H   UNL     1      -0.251   7.810  21.484  0.00  0.00    +0.000 HD
ATOM     17  H   UNL     1      -1.384   9.032  21.857  0.00  0.00    +0.000 HD
ENDBRANCH  12  15
ENDBRANCH   6  12
ENDBRANCH   1   9
BRANCH   3  18
ATOM     18  C   UNL     1       6.815   4.600  16.105  0.00  0.00    +0.000 C 
ATOM     19  O   UNL     1       7.851   4.460  16.752  0.00  0.00    +0.000 OA
BRANCH  18  20
ATOM     20  C   UNL     1       6.854   4.463  14.627  0.00  0.00    +0.000 A 
ATOM     21  C   UNL     1       7.706   5.297  13.892  0.00  0.00    +0.000 A 
ATOM     22  C   UNL     1       7.737   5.208  12.500  0.00  0.00    +0.000 A 
ATOM     23  C   UNL     1       6.910   4.299  11.839  0.00  0.00    +0.000 A 
ATOM     24  C   UNL     1       6.046   3.481  12.565  0.00  0.00    +0.000 A 
ATOM     25  C   UNL     1       6.013   3.565  13.956  0.00  0.00    +0.000 A 
ENDBRANCH  18  20
ENDBRANCH   3  18
TORSDOF 5
ENDMDL
MODEL 6
REMARK VINA RESULT:      -7.8      3.385      4.225
REMARK  Name = 
REMARK  5 active torsions:
REMARK  status: ('A' for Active; 'I' for Inactive)
REMARK    1  A    between atoms: N_1  and  S_2
REMARK    2  A    between atoms: S_2  and  C_5
REMARK    3  A    between atoms: C_8  and  N_9
REMARK    4  A    between atoms: C_11  and  C_12
REMARK    5  A    between atoms: C_12  and  C_14
REMARK                            x       y       z     vdW  Elec       q    Type
REMARK                         _______ _______ _______ _____ _____    ______ ____
ROOT
ATOM      1  N   UNL     1       3.907   6.007  17.750  0.00  0.00    +0.000 N 
ATOM      2  C   UNL     1       5.197   6.165  17.306  0.00  0.00    +0.000 A 
ATOM      3  C   UNL     1       5.542   4.946  16.763  0.00  0.00    +0.000 A 
ATOM      4  N   UNL     1       4.493   4.081  16.923  0.00  0.00    +0.000 NA
ATOM      5  N   UNL     1       3.512   4.728  17.535  0.00  0.00    +0.000 NA
ENDROOT
BRANCH   1   9
ATOM      6  C   UNL     1       1.351   8.891  19.432  0.00  0.00    +0.000 A 
ATOM      7  C   UNL     1       1.704   7.769  20.185  0.00  0.00    +0.000 A 
ATOM      8  C   UNL     1       2.551   6.806  19.629  0.00  0.00    +0.000 A 
ATOM      9  C   UNL     1       3.040   6.969  18.324  0.00  0.00    +0.000 A 
ATOM     10  C   UNL     1       2.681   8.105  17.580  0.00  0.00    +0.000 A 
ATOM     11  C   UNL     1       1.831   9.063  18.133  0.00  0.00    +0.000 A 
BRANCH   6  12
ATOM     12  S   UNL     1       0.306  10.128  20.145  0.00  0.00    +0.000 S 
ATOM     13  O   UNL     1       0.999  11.393  20.110  0.00  0.00    +0.000 OA
ATOM     14  O   UNL     1      -0.314   9.604  21.338  0.00  0.00    +0.000 OA
BRANCH  12  15
ATOM     15  N   UNL     1      -0.926  10.235  19.009  0.00  0.00    +0.000 NA
ATOM     16  H   UNL     1      -1.827  10.140  19.479  0.00  0.00    +0.000 HD
ATOM     17  H   UNL     1      -0.777   9.551  18.267  0.00  0.00    +0.000 HD
ENDBRANCH  12  15
ENDBRANCH   6  12
ENDBRANCH   1   9
BRANCH   3  18
ATOM     18  C   UNL     1       6.800   4.602  16.127  0.00  0.00    +0.000 C 
ATOM     19  O   UNL     1       7.839   4.458  16.768  0.00  0.00    +0.000 OA
BRANCH  18  20
ATOM     20  C   UNL     1       6.827   4.451  14.651  0.00  0.00    +0.000 A 
ATOM     21  C   UNL     1       7.710   5.241  13.905  0.00  0.00    +0.000 A 
ATOM     22  C   UNL     1       7.731   5.140  12.514  0.00  0.00    +0.000 A 
ATOM     23  C   UNL     1       6.863   4.261  11.864  0.00  0.00    +0.000 A 
ATOM     24  C   UNL     1       5.968   3.487  12.600  0.00  0.00    +0.000 A 
ATOM     25  C   UNL     1       5.944   3.584  13.991  0.00  0.00    +0.000 A 
ENDBRANCH  18  20
ENDBRANCH   3  18
TORSDOF 5
ENDMDL
MODEL 7
REMARK VINA RESULT:      -7.8      3.460      4.286
REMARK  Name = 
REMARK  5 active torsions:
REMARK  status: ('A' for Active; 'I' for Inactive)
REMARK    1  A    between atoms: N_1  and  S_2
REMARK    2  A    between atoms: S_2  and  C_5
REMARK    3  A    between atoms: C_8  and  N_9
REMARK    4  A    between atoms: C_11  and  C_12
REMARK    5  A    between atoms: C_12  and  C_14
REMARK                            x       y       z     vdW  Elec       q    Type
REMARK                         _______ _______ _______ _____ _____    ______ ____
ROOT
ATOM      1  N   UNL     1       3.953   6.052  17.806  0.00  0.00    +0.000 N 
ATOM      2  C   UNL     1       5.222   6.221  17.311  0.00  0.00    +0.000 A 
ATOM      3  C   UNL     1       5.587   4.983  16.828  0.00  0.00    +0.000 A 
ATOM      4  N   UNL     1       4.570   4.099  17.073  0.00  0.00    +0.000 NA
ATOM      5  N   UNL     1       3.590   4.752  17.679  0.00  0.00    +0.000 NA
ENDROOT
BRANCH   1   9
ATOM      6  C   UNL     1       1.330   8.899  19.450  0.00  0.00    +0.000 A 
ATOM      7  C   UNL     1       1.839   9.100  18.166  0.00  0.00    +0.000 A 
ATOM      8  C   UNL     1       2.714   8.159  17.616  0.00  0.00    +0.000 A 
ATOM      9  C   UNL     1       3.075   7.021  18.353  0.00  0.00    +0.000 A 
ATOM     10  C   UNL     1       2.552   6.828  19.642  0.00  0.00    +0.000 A 
ATOM     11  C   UNL     1       1.684   7.771  20.193  0.00  0.00    +0.000 A 
BRANCH   6  12
ATOM     12  S   UNL     1       0.197  10.072  20.135  0.00  0.00    +0.000 S 
ATOM     13  O   UNL     1       0.032   9.788  21.540  0.00  0.00    +0.000 OA
ATOM     14  O   UNL     1      -0.915  10.249  19.233  0.00  0.00    +0.000 OA
BRANCH  12  15
ATOM     15  N   UNL     1       1.080  11.498  20.045  0.00  0.00    +0.000 NA
ATOM     16  H   UNL     1       1.647  11.597  20.887  0.00  0.00    +0.000 HD
ATOM     17  H   UNL     1       0.453  12.285  19.878  0.00  0.00    +0.000 HD
ENDBRANCH  12  15
ENDBRANCH   6  12
ENDBRANCH   1   9
BRANCH   3  18
ATOM     18  C   UNL     1       6.834   4.637  16.173  0.00  0.00    +0.000 C 
ATOM     19  O   UNL     1       7.874   4.452  16.801  0.00  0.00    +0.000 OA
BRANCH  18  20
ATOM     20  C   UNL     1       6.848   4.538  14.691  0.00  0.00    +0.000 A 
ATOM     21  C   UNL     1       6.006   3.610  14.067  0.00  0.00    +0.000 A 
ATOM     22  C   UNL     1       6.024   3.478  12.678  0.00  0.00    +0.000 A 
ATOM     23  C   UNL     1       6.891   4.259  11.912  0.00  0.00    +0.000 A 
ATOM     24  C   UNL     1       7.746   5.169  12.531  0.00  0.00    +0.000 A 
ATOM     25  C   UNL     1       7.730   5.307  13.918  0.00  0.00    +0.000 A 
ENDBRANCH  18  20
ENDBRANCH   3  18
TORSDOF 5
ENDMDL
MODEL 8
REMARK VINA RESULT:      -7.8      4.496      6.530
REMARK  Name = 
REMARK  5 active torsions:
REMARK  status: ('A' for Active; 'I' for Inactive)
REMARK    1  A    between atoms: N_1  and  S_2
REMARK    2  A    between atoms: S_2  and  C_5
REMARK    3  A    between atoms: C_8  and  N_9
REMARK    4  A    between atoms: C_11  and  C_12
REMARK    5  A    between atoms: C_12  and  C_14
REMARK                            x       y       z     vdW  Elec       q    Type
REMARK                         _______ _______ _______ _____ _____    ______ ____
ROOT
ATOM      1  N   UNL     1       2.463   6.708  19.700  0.00  0.00    +0.000 N 
ATOM      2  C   UNL     1       3.571   6.207  19.063  0.00  0.00    +0.000 A 
ATOM      3  C   UNL     1       3.676   4.903  19.499  0.00  0.00    +0.000 A 
ATOM      4  N   UNL     1       2.677   4.661  20.403  0.00  0.00    +0.000 NA
ATOM      5  N   UNL     1       1.956   5.764  20.529  0.00  0.00    +0.000 NA
ENDROOT
BRANCH   1   9
ATOM      6  C   UNL     1       0.633  10.474  19.305  0.00  0.00    +0.000 A 
ATOM      7  C   UNL     1       1.271   9.905  18.201  0.00  0.00    +0.000 A 
ATOM      8  C   UNL     1       1.883   8.655  18.327  0.00  0.00    +0.000 A 
ATOM      9  C   UNL     1       1.856   7.980  19.557  0.00  0.00    +0.000 A 
ATOM     10  C   UNL     1       1.206   8.561  20.659  0.00  0.00    +0.000 A 
ATOM     11  C   UNL     1       0.600   9.812  20.533  0.00  0.00    +0.000 A 
BRANCH   6  12
ATOM     12  S   UNL     1      -0.172  12.040  19.138  0.00  0.00    +0.000 S 
ATOM     13  O   UNL     1       0.819  13.037  18.818  0.00  0.00    +0.000 OA
ATOM     14  O   UNL     1      -1.134  12.201  20.203  0.00  0.00    +0.000 OA
BRANCH  12  15
ATOM     15  N   UNL     1      -1.081  11.815  17.745  0.00  0.00    +0.000 NA
ATOM     16  H   UNL     1      -2.047  12.093  17.922  0.00  0.00    +0.000 HD
ATOM     17  H   UNL     1      -0.986  10.853  17.418  0.00  0.00    +0.000 HD
ENDBRANCH  12  15
ENDBRANCH   6  12
ENDBRANCH   1   9
BRANCH   3  18
ATOM     18  C   UNL     1       4.672   3.928  19.095  0.00  0.00    +0.000 C 
ATOM     19  O   UNL     1       4.922   2.931  19.768  0.00  0.00    +0.000 OA
BRANCH  18  20
ATOM     20  C   UNL     1       5.428   4.170  17.840  0.00  0.00    +0.000 A 
ATOM     21  C   UNL     1       4.813   3.890  16.614  0.00  0.00    +0.000 A 
ATOM     22  C   UNL     1       5.514   4.081  15.423  0.00  0.00    +0.000 A 
ATOM     23  C   UNL     1       6.833   4.538  15.454  0.00  0.00    +0.000 A 
ATOM     24  C   UNL     1       7.456   4.798  16.673  0.00  0.00    +0.000 A 
ATOM     25  C   UNL     1       6.759   4.611  17.866  0.00  0.00    +0.000 A 
ENDBRANCH  18  20
ENDBRANCH   3  18
TORSDOF 5
ENDMDL
MODEL 9
REMARK VINA RESULT:      -7.8      3.466      4.348
REMARK  Name = 
REMARK  5 active torsions:
REMARK  status: ('A' for Active; 'I' for Inactive)
REMARK    1  A    between atoms: N_1  and  S_2
REMARK    2  A    between atoms: S_2  and  C_5
REMARK    3  A    between atoms: C_8  and  N_9
REMARK    4  A    between atoms: C_11  and  C_12
REMARK    5  A    between atoms: C_12  and  C_14
REMARK                            x       y       z     vdW  Elec       q    Type
REMARK                         _______ _______ _______ _____ _____    ______ ____
ROOT
ATOM      1  N   UNL     1       3.950   6.044  17.806  0.00  0.00    +0.000 N 
ATOM      2  C   UNL     1       5.221   6.213  17.315  0.00  0.00    +0.000 A 
ATOM      3  C   UNL     1       5.592   4.971  16.844  0.00  0.00    +0.000 A 
ATOM      4  N   UNL     1       4.578   4.086  17.094  0.00  0.00    +0.000 NA
ATOM      5  N   UNL     1       3.593   4.741  17.689  0.00  0.00    +0.000 NA
ENDROOT
BRANCH   1   9
ATOM      6  C   UNL     1       1.312   8.896  19.416  0.00  0.00    +0.000 A 
ATOM      7  C   UNL     1       1.801   9.073  18.120  0.00  0.00    +0.000 A 
ATOM      8  C   UNL     1       2.681   8.129  17.581  0.00  0.00    +0.000 A 
ATOM      9  C   UNL     1       3.067   7.014  18.341  0.00  0.00    +0.000 A 
ATOM     10  C   UNL     1       2.563   6.846  19.641  0.00  0.00    +0.000 A 
ATOM     11  C   UNL     1       1.690   7.791  20.180  0.00  0.00    +0.000 A 
BRANCH   6  12
ATOM     12  S   UNL     1       0.173  10.070  20.087  0.00  0.00    +0.000 S 
ATOM     13  O   UNL     1      -0.162   9.672  21.432  0.00  0.00    +0.000 OA
ATOM     14  O   UNL     1      -0.823  10.396  19.093  0.00  0.00    +0.000 OA
BRANCH  12  15
ATOM     15  N   UNL     1       1.132  11.441  20.228  0.00  0.00    +0.000 NA
ATOM     16  H   UNL     1       0.793  12.012  21.002  0.00  0.00    +0.000 HD
ATOM     17  H   UNL     1       1.164  11.937  19.336  0.00  0.00    +0.000 HD
ENDBRANCH  12  15
ENDBRANCH   6  12
ENDBRANCH   1   9
BRANCH   3  18
ATOM     18  C   UNL     1       6.843   4.625  16.196  0.00  0.00    +0.000 C 
ATOM     19  O   UNL     1       7.888   4.479  16.826  0.00  0.00    +0.000 OA
BRANCH  18  20
ATOM     20  C   UNL     1       6.854   4.475  14.719  0.00  0.00    +0.000 A 
ATOM     21  C   UNL     1       7.728   5.268  13.965  0.00  0.00    +0.000 A 
ATOM     22  C   UNL     1       7.735   5.167  12.573  0.00  0.00    +0.000 A 
ATOM     23  C   UNL     1       6.862   4.287  11.932  0.00  0.00    +0.000 A 
ATOM     24  C   UNL     1       5.976   3.510  12.677  0.00  0.00    +0.000 A 
ATOM     25  C   UNL     1       5.967   3.606  14.068  0.00  0.00    +0.000 A 
ENDBRANCH  18  20
ENDBRANCH   3  18
TORSDOF 5
ENDMDL
