MODEL 1
REMARK VINA RESULT:      -8.3      0.000      0.000
REMARK  Name = 
REMARK  5 active torsions:
REMARK  status: ('A' for Active; 'I' for Inactive)
REMARK    1  A    between atoms: C_1  and  N_2
REMARK    2  A    between atoms: C_5  and  C_6
REMARK    3  A    between atoms: N_11  and  C_12
REMARK    4  A    between atoms: CA_18  and  C_19
REMARK    5  A    between atoms: C_19  and  OXT_21
REMARK                            x       y       z     vdW  Elec       q    Type
REMARK                         _______ _______ _______ _____ _____    ______ ____
ROOT
ATOM      1  C   UNL     1       5.310   4.261  18.274  0.00  0.00    +0.000 A 
ATOM      2  C   UNL     1       6.226   5.281  18.556  0.00  0.00    +0.000 A 
ATOM      3  C   UNL     1       6.984   5.883  17.548  0.00  0.00    +0.000 A 
ATOM      4 CL   UNL     1       8.086   7.145  17.922  0.00  0.00    +0.000 Cl
ATOM      5  C   UNL     1       6.835   5.409  16.243  0.00  0.00    +0.000 A 
ATOM      6  N   UNL     1       7.465   5.770  15.076  0.00  0.00    +0.000 N 
ATOM      7  CA  UNL     1       7.099   4.933  14.044  0.00  0.00    +0.000 A 
ATOM      8  C   UNL     1       6.080   4.130  14.535  0.00  0.00    +0.000 A 
ATOM      9  C   UNL     1       5.936   4.396  15.923  0.00  0.00    +0.000 A 
ATOM     10  C   UNL     1       5.141   3.840  16.945  0.00  0.00    +0.000 A 
ATOM     11  H   UNL     1       8.170   6.496  14.999  0.00  0.00    +0.000 HD
ENDROOT
BRANCH   1  17
ATOM     12  C   UNL     1       1.812   5.575  20.449  0.00  0.00    +0.000 A 
ATOM     13  C   UNL     1       0.955   4.616  20.934  0.00  0.00    +0.000 A 
ATOM     14  C   UNL     1       1.388   3.321  20.814  0.00  0.00    +0.000 A 
ATOM     15  N   UNL     1       2.575   2.980  20.279  0.00  0.00    +0.000 NA
ATOM     16  C   UNL     1       3.339   3.979  19.816  0.00  0.00    +0.000 A 
ATOM     17  N   UNL     1       4.573   3.616  19.280  0.00  0.00    +0.000 N 
ATOM     18  N   UNL     1       2.996   5.274  19.879  0.00  0.00    +0.000 NA
ATOM     19  H   UNL     1       4.691   2.614  19.337  0.00  0.00    +0.000 HD
BRANCH  12  24
ATOM     20  C   UNL     1       1.161  10.366  19.366  0.00  0.00    +0.000 C 
ATOM     21  N   UNL     1       1.172   9.092  20.039  0.00  0.00    +0.000 N 
ATOM     22  C   UNL     1       0.565   8.804  21.227  0.00  0.00    +0.000 A 
ATOM     23  N   UNL     1       0.710   7.538  21.545  0.00  0.00    +0.000 NA
ATOM     24  C   UNL     1       1.448   6.983  20.518  0.00  0.00    +0.000 A 
ATOM     25  C   UNL     1       1.762   7.949  19.581  0.00  0.00    +0.000 A 
ENDBRANCH  12  24
ENDBRANCH   1  17
BRANCH   7  26
ATOM     26  C   UNL     1       7.727   5.004  12.750  0.00  0.00    +0.000 C 
ATOM     27  O   UNL     1       7.421   4.311  11.790  0.00  0.00    +0.000 OA
BRANCH  26  28
ATOM     28  OXT UNL     1       8.660   5.979  12.682  0.00  0.00    +0.000 OA
ATOM     29  HXT UNL     1       9.510   5.663  12.324  0.00  0.00    +0.000 HD
ENDBRANCH  26  28
ENDBRANCH   7  26
TORSDOF 4
ENDMDL
MODEL 2
REMARK VINA RESULT:      -8.0      0.631      1.145
REMARK  Name = 
REMARK  5 active torsions:
REMARK  status: ('A' for Active; 'I' for Inactive)
REMARK    1  A    between atoms: C_1  and  N_2
REMARK    2  A    between atoms: C_5  and  C_6
REMARK    3  A    between atoms: N_11  and  C_12
REMARK    4  A    between atoms: CA_18  and  C_19
REMARK    5  A    between atoms: C_19  and  OXT_21
REMARK                            x       y       z     vdW  Elec       q    Type
REMARK                         _______ _______ _______ _____ _____    ______ ____
ROOT
ATOM      1  C   UNL     1       5.317   4.134  18.346  0.00  0.00    +0.000 A 
ATOM      2  C   UNL     1       6.271   5.103  18.680  0.00  0.00    +0.000 A 
ATOM      3  C   UNL     1       7.044   5.735  17.705  0.00  0.00    +0.000 A 
ATOM      4 CL   UNL     1       8.192   6.934  18.144  0.00  0.00    +0.000 Cl
ATOM      5  C   UNL     1       6.873   5.343  16.375  0.00  0.00    +0.000 A 
ATOM      6  N   UNL     1       7.511   5.750  15.227  0.00  0.00    +0.000 N 
ATOM      7  CA  UNL     1       7.112   4.987  14.151  0.00  0.00    +0.000 A 
ATOM      8  C   UNL     1       6.067   4.193  14.600  0.00  0.00    +0.000 A 
ATOM      9  C   UNL     1       5.938   4.382  16.003  0.00  0.00    +0.000 A 
ATOM     10  C   UNL     1       5.128   3.797  16.996  0.00  0.00    +0.000 A 
ATOM     11  H   UNL     1       8.241   6.453  15.188  0.00  0.00    +0.000 HD
ENDROOT
BRANCH   1  17
ATOM     12  C   UNL     1       1.780   5.379  20.496  0.00  0.00    +0.000 A 
ATOM     13  C   UNL     1       0.914   4.405  20.935  0.00  0.00    +0.000 A 
ATOM     14  C   UNL     1       1.350   3.115  20.783  0.00  0.00    +0.000 A 
ATOM     15  N   UNL     1       2.547   2.791  20.259  0.00  0.00    +0.000 NA
ATOM     16  C   UNL     1       3.319   3.804  19.842  0.00  0.00    +0.000 A 
ATOM     17  N   UNL     1       4.563   3.457  19.317  0.00  0.00    +0.000 N 
ATOM     18  N   UNL     1       2.975   5.096  19.939  0.00  0.00    +0.000 NA
ATOM     19  H   UNL     1       4.680   2.454  19.345  0.00  0.00    +0.000 HD
BRANCH  12  24
ATOM     20  C   UNL     1      -0.219   9.662  21.983  0.00  0.00    +0.000 C 
ATOM     21  N   UNL     1       0.525   8.665  21.257  0.00  0.00    +0.000 N 
ATOM     22  C   UNL     1       1.414   8.900  20.248  0.00  0.00    +0.000 A 
ATOM     23  N   UNL     1       1.972   7.785  19.831  0.00  0.00    +0.000 NA
ATOM     24  C   UNL     1       1.414   6.784  20.603  0.00  0.00    +0.000 A 
ATOM     25  C   UNL     1       0.493   7.319  21.483  0.00  0.00    +0.000 A 
ENDBRANCH  12  24
ENDBRANCH   1  17
BRANCH   7  26
ATOM     26  C   UNL     1       7.736   5.111  12.859  0.00  0.00    +0.000 C 
ATOM     27  O   UNL     1       8.572   5.954  12.569  0.00  0.00    +0.000 OA
BRANCH  26  28
ATOM     28  OXT UNL     1       7.347   4.141  12.002  0.00  0.00    +0.000 OA
ATOM     29  HXT UNL     1       6.790   3.463  12.427  0.00  0.00    +0.000 HD
ENDBRANCH  26  28
ENDBRANCH   7  26
TORSDOF 4
ENDMDL
MODEL 3
REMARK VINA RESULT:      -7.4      5.414      8.711
REMARK  Name = 
REMARK  5 active torsions:
REMARK  status: ('A' for Active; 'I' for Inactive)
REMARK    1  A    between atoms: C_1  and  N_2
REMARK    2  A    between atoms: C_5  and  C_6
REMARK    3  A    between atoms: N_11  and  C_12
REMARK    4  A    between atoms: CA_18  and  C_19
REMARK    5  A    between atoms: C_19  and  OXT_21
REMARK                            x       y       z     vdW  Elec       q    Type
REMARK                         _______ _______ _______ _____ _____    ______ ____
ROOT
ATOM      1  C   UNL     1       1.255   9.647  18.430  0.00  0.00    +0.000 A 
ATOM      2  C   UNL     1       0.986  10.320  19.628  0.00  0.00    +0.000 A 
ATOM      3  C   UNL     1      -0.290  10.805  19.924  0.00  0.00    +0.000 A 
ATOM      4 CL   UNL     1      -0.594  11.610  21.410  0.00  0.00    +0.000 Cl
ATOM      5  C   UNL     1      -1.294  10.638  18.967  0.00  0.00    +0.000 A 
ATOM      6  N   UNL     1      -2.609  11.040  18.961  0.00  0.00    +0.000 N 
ATOM      7  CA  UNL     1      -3.194  10.779  17.741  0.00  0.00    +0.000 A 
ATOM      8  C   UNL     1      -2.274  10.035  17.018  0.00  0.00    +0.000 A 
ATOM      9  C   UNL     1      -1.066   9.977  17.764  0.00  0.00    +0.000 A 
ATOM     10  C   UNL     1       0.214   9.446  17.509  0.00  0.00    +0.000 A 
ATOM     11  H   UNL     1      -3.064  11.542  19.717  0.00  0.00    +0.000 HD
ENDROOT
BRANCH   1  17
ATOM     12  C   UNL     1       2.855   5.632  18.334  0.00  0.00    +0.000 A 
ATOM     13  C   UNL     1       3.890   5.369  17.469  0.00  0.00    +0.000 A 
ATOM     14  C   UNL     1       4.420   6.462  16.833  0.00  0.00    +0.000 A 
ATOM     15  N   UNL     1       3.991   7.721  17.035  0.00  0.00    +0.000 NA
ATOM     16  C   UNL     1       2.965   7.882  17.883  0.00  0.00    +0.000 A 
ATOM     17  N   UNL     1       2.540   9.192  18.097  0.00  0.00    +0.000 N 
ATOM     18  N   UNL     1       2.376   6.875  18.542  0.00  0.00    +0.000 NA
ATOM     19  H   UNL     1       3.106   9.830  17.555  0.00  0.00    +0.000 HD
BRANCH  12  24
ATOM     20  C   UNL     1       1.416   2.496  21.891  0.00  0.00    +0.000 C 
ATOM     21  N   UNL     1       1.589   3.162  20.625  0.00  0.00    +0.000 N 
ATOM     22  C   UNL     1       0.897   2.903  19.478  0.00  0.00    +0.000 A 
ATOM     23  N   UNL     1       1.246   3.722  18.511  0.00  0.00    +0.000 NA
ATOM     24  C   UNL     1       2.213   4.544  19.057  0.00  0.00    +0.000 A 
ATOM     25  C   UNL     1       2.451   4.190  20.372  0.00  0.00    +0.000 A 
ENDBRANCH  12  24
ENDBRANCH   1  17
BRANCH   7  26
ATOM     26  C   UNL     1      -4.523  11.234  17.424  0.00  0.00    +0.000 C 
ATOM     27  O   UNL     1      -5.548  10.782  17.912  0.00  0.00    +0.000 OA
BRANCH  26  28
ATOM     28  OXT UNL     1      -4.519  12.278  16.565  0.00  0.00    +0.000 OA
ATOM     29  HXT UNL     1      -3.628  12.487  16.229  0.00  0.00    +0.000 HD
ENDBRANCH  26  28
ENDBRANCH   7  26
TORSDOF 4
ENDMDL
MODEL 4
REMARK VINA RESULT:      -7.2      4.524      7.248
REMARK  Name = 
REMARK  5 active torsions:
REMARK  status: ('A' for Active; 'I' for Inactive)
REMARK    1  A    between atoms: C_1  and  N_2
REMARK    2  A    between atoms: C_5  and  C_6
REMARK    3  A    between atoms: N_11  and  C_12
REMARK    4  A    between atoms: CA_18  and  C_19
REMARK    5  A    between atoms: C_19  and  OXT_21
REMARK                            x       y       z     vdW  Elec       q    Type
REMARK                         _______ _______ _______ _____ _____    ______ ____
ROOT
ATOM      1  C   UNL     1       1.480   8.781  20.122  0.00  0.00    +0.000 A 
ATOM      2  C   UNL     1       2.205   8.690  18.927  0.00  0.00    +0.000 A 
ATOM      3  C   UNL     1       2.655   7.462  18.437  0.00  0.00    +0.000 A 
ATOM      4 CL   UNL     1       3.525   7.380  16.959  0.00  0.00    +0.000 Cl
ATOM      5  C   UNL     1       2.400   6.318  19.196  0.00  0.00    +0.000 A 
ATOM      6  N   UNL     1       2.751   5.004  18.992  0.00  0.00    +0.000 N 
ATOM      7  CA  UNL     1       2.403   4.232  20.079  0.00  0.00    +0.000 A 
ATOM      8  C   UNL     1       1.658   5.048  20.916  0.00  0.00    +0.000 A 
ATOM      9  C   UNL     1       1.685   6.367  20.389  0.00  0.00    +0.000 A 
ATOM     10  C   UNL     1       1.191   7.608  20.838  0.00  0.00    +0.000 A 
ATOM     11  H   UNL     1       3.274   4.663  18.193  0.00  0.00    +0.000 HD
ENDROOT
BRANCH   1  17
ATOM     12  C   UNL     1      -1.923  11.240  19.093  0.00  0.00    +0.000 A 
ATOM     13  C   UNL     1      -2.452  12.053  20.068  0.00  0.00    +0.000 A 
ATOM     14  C   UNL     1      -1.736  12.118  21.235  0.00  0.00    +0.000 A 
ATOM     15  N   UNL     1      -0.580  11.458  21.437  0.00  0.00    +0.000 NA
ATOM     16  C   UNL     1      -0.148  10.675  20.438  0.00  0.00    +0.000 A 
ATOM     17  N   UNL     1       1.058  10.010  20.652  0.00  0.00    +0.000 N 
ATOM     18  N   UNL     1      -0.784  10.539  19.266  0.00  0.00    +0.000 NA
ATOM     19  H   UNL     1       1.422  10.244  21.565  0.00  0.00    +0.000 HD
BRANCH  12  24
ATOM     20  C   UNL     1      -3.043  10.006  14.427  0.00  0.00    +0.000 C 
ATOM     21  N   UNL     1      -3.090  10.551  15.759  0.00  0.00    +0.000 N 
ATOM     22  C   UNL     1      -4.163  11.160  16.342  0.00  0.00    +0.000 A 
ATOM     23  N   UNL     1      -3.907  11.496  17.587  0.00  0.00    +0.000 NA
ATOM     24  C   UNL     1      -2.606  11.091  17.816  0.00  0.00    +0.000 A 
ATOM     25  C   UNL     1      -2.078  10.519  16.674  0.00  0.00    +0.000 A 
ENDBRANCH  12  24
ENDBRANCH   1  17
BRANCH   7  26
ATOM     26  C   UNL     1       2.790   2.849  20.181  0.00  0.00    +0.000 C 
ATOM     27  O   UNL     1       2.850   2.071  19.239  0.00  0.00    +0.000 OA
BRANCH  26  28
ATOM     28  OXT UNL     1       3.152   2.506  21.437  0.00  0.00    +0.000 OA
ATOM     29  HXT UNL     1       2.961   1.571  21.643  0.00  0.00    +0.000 HD
ENDBRANCH  26  28
ENDBRANCH   7  26
TORSDOF 4
ENDMDL
MODEL 5
REMARK VINA RESULT:      -7.2      4.199      6.632
REMARK  Name = 
REMARK  5 active torsions:
REMARK  status: ('A' for Active; 'I' for Inactive)
REMARK    1  A    between atoms: C_1  and  N_2
REMARK    2  A    between atoms: C_5  and  C_6
REMARK    3  A    between atoms: N_11  and  C_12
REMARK    4  A    between atoms: CA_18  and  C_19
REMARK    5  A    between atoms: C_19  and  OXT_21
REMARK                            x       y       z     vdW  Elec       q    Type
REMARK                         _______ _______ _______ _____ _____    ______ ____
ROOT
ATOM      1  C   UNL     1       2.787   7.599  18.012  0.00  0.00    +0.000 A 
ATOM      2  C   UNL     1       3.971   6.916  17.709  0.00  0.00    +0.000 A 
ATOM      3  C   UNL     1       4.259   5.667  18.265  0.00  0.00    +0.000 A 
ATOM      4 CL   UNL     1       5.711   4.845  17.859  0.00  0.00    +0.000 Cl
ATOM      5  C   UNL     1       3.346   5.128  19.175  0.00  0.00    +0.000 A 
ATOM      6  N   UNL     1       3.381   3.961  19.901  0.00  0.00    +0.000 N 
ATOM      7  CA  UNL     1       2.324   3.903  20.783  0.00  0.00    +0.000 A 
ATOM      8  C   UNL     1       1.506   4.982  20.484  0.00  0.00    +0.000 A 
ATOM      9  C   UNL     1       2.160   5.776  19.505  0.00  0.00    +0.000 A 
ATOM     10  C   UNL     1       1.862   7.009  18.890  0.00  0.00    +0.000 A 
ATOM     11  H   UNL     1       4.128   3.275  19.860  0.00  0.00    +0.000 HD
ENDROOT
BRANCH   1  17
ATOM     12  C   UNL     1       0.974  11.033  19.911  0.00  0.00    +0.000 A 
ATOM     13  C   UNL     1       1.306  12.282  19.441  0.00  0.00    +0.000 A 
ATOM     14  C   UNL     1       2.065  12.301  18.300  0.00  0.00    +0.000 A 
ATOM     15  N   UNL     1       2.458  11.190  17.649  0.00  0.00    +0.000 NA
ATOM     16  C   UNL     1       2.104  10.015  18.189  0.00  0.00    +0.000 A 
ATOM     17  N   UNL     1       2.502   8.873  17.497  0.00  0.00    +0.000 N 
ATOM     18  N   UNL     1       1.373   9.896  19.306  0.00  0.00    +0.000 NA
ATOM     19  H   UNL     1       3.012   9.135  16.665  0.00  0.00    +0.000 HD
BRANCH  12  24
ATOM     20  C   UNL     1      -2.403  11.717  23.472  0.00  0.00    +0.000 C 
ATOM     21  N   UNL     1      -1.307  11.207  22.689  0.00  0.00    +0.000 N 
ATOM     22  C   UNL     1      -0.610  10.059  22.933  0.00  0.00    +0.000 A 
ATOM     23  N   UNL     1       0.293   9.839  22.004  0.00  0.00    +0.000 NA
ATOM     24  C   UNL     1       0.177  10.896  21.122  0.00  0.00    +0.000 A 
ATOM     25  C   UNL     1      -0.804  11.768  21.551  0.00  0.00    +0.000 A 
ENDBRANCH  12  24
ENDBRANCH   1  17
BRANCH   7  26
ATOM     26  C   UNL     1       2.209   2.853  21.762  0.00  0.00    +0.000 C 
ATOM     27  O   UNL     1       1.182   2.573  22.364  0.00  0.00    +0.000 OA
BRANCH  26  28
ATOM     28  OXT UNL     1       3.355   2.151  21.903  0.00  0.00    +0.000 OA
ATOM     29  HXT UNL     1       4.072   2.675  22.304  0.00  0.00    +0.000 HD
ENDBRANCH  26  28
ENDBRANCH   7  26
TORSDOF 4
ENDMDL
MODEL 6
REMARK VINA RESULT:      -7.1      4.521      8.146
REMARK  Name = 
REMARK  5 active torsions:
REMARK  status: ('A' for Active; 'I' for Inactive)
REMARK    1  A    between atoms: C_1  and  N_2
REMARK    2  A    between atoms: C_5  and  C_6
REMARK    3  A    between atoms: N_11  and  C_12
REMARK    4  A    between atoms: CA_18  and  C_19
REMARK    5  A    between atoms: C_19  and  OXT_21
REMARK                            x       y       z     vdW  Elec       q    Type
REMARK                         _______ _______ _______ _____ _____    ______ ____
ROOT
ATOM      1  C   UNL     1       1.445   6.608  20.424  0.00  0.00    +0.000 A 
ATOM      2  C   UNL     1       1.847   7.271  19.258  0.00  0.00    +0.000 A 
ATOM      3  C   UNL     1       1.756   8.659  19.137  0.00  0.00    +0.000 A 
ATOM      4 CL   UNL     1       2.276   9.445  17.701  0.00  0.00    +0.000 Cl
ATOM      5  C   UNL     1       1.208   9.376  20.203  0.00  0.00    +0.000 A 
ATOM      6  N   UNL     1       0.958  10.721  20.350  0.00  0.00    +0.000 N 
ATOM      7  CA  UNL     1       0.275  10.964  21.522  0.00  0.00    +0.000 A 
ATOM      8  C   UNL     1       0.247   9.763  22.215  0.00  0.00    +0.000 A 
ATOM      9  C   UNL     1       0.795   8.755  21.377  0.00  0.00    +0.000 A 
ATOM     10  C   UNL     1       0.947   7.360  21.501  0.00  0.00    +0.000 A 
ATOM     11  H   UNL     1       1.165  11.428  19.653  0.00  0.00    +0.000 HD
ENDROOT
BRANCH   1  17
ATOM     12  C   UNL     1       4.510   3.799  19.239  0.00  0.00    +0.000 A 
ATOM     13  C   UNL     1       4.610   2.619  19.937  0.00  0.00    +0.000 A 
ATOM     14  C   UNL     1       3.612   2.384  20.846  0.00  0.00    +0.000 A 
ATOM     15  N   UNL     1       2.579   3.223  21.051  0.00  0.00    +0.000 NA
ATOM     16  C   UNL     1       2.571   4.358  20.338  0.00  0.00    +0.000 A 
ATOM     17  N   UNL     1       1.489   5.211  20.546  0.00  0.00    +0.000 N 
ATOM     18  N   UNL     1       3.508   4.680  19.435  0.00  0.00    +0.000 NA
ATOM     19  H   UNL     1       0.861   4.809  21.228  0.00  0.00    +0.000 HD
BRANCH  12  24
ATOM     20  C   UNL     1       6.831   4.846  14.988  0.00  0.00    +0.000 C 
ATOM     21  N   UNL     1       6.539   4.606  16.378  0.00  0.00    +0.000 N 
ATOM     22  C   UNL     1       7.386   4.817  17.427  0.00  0.00    +0.000 A 
ATOM     23  N   UNL     1       6.802   4.556  18.575  0.00  0.00    +0.000 NA
ATOM     24  C   UNL     1       5.521   4.153  18.253  0.00  0.00    +0.000 A 
ATOM     25  C   UNL     1       5.351   4.160  16.882  0.00  0.00    +0.000 A 
ENDBRANCH  12  24
ENDBRANCH   1  17
BRANCH   7  26
ATOM     26  C   UNL     1      -0.236  12.271  21.845  0.00  0.00    +0.000 C 
ATOM     27  O   UNL     1      -0.327  13.198  21.052  0.00  0.00    +0.000 OA
BRANCH  26  28
ATOM     28  OXT UNL     1      -0.677  12.352  23.120  0.00  0.00    +0.000 OA
ATOM     29  HXT UNL     1      -0.317  11.648  23.690  0.00  0.00    +0.000 HD
ENDBRANCH  26  28
ENDBRANCH   7  26
TORSDOF 4
ENDMDL
MODEL 7
REMARK VINA RESULT:      -7.0      4.115      6.493
REMARK  Name = 
REMARK  5 active torsions:
REMARK  status: ('A' for Active; 'I' for Inactive)
REMARK    1  A    between atoms: C_1  and  N_2
REMARK    2  A    between atoms: C_5  and  C_6
REMARK    3  A    between atoms: N_11  and  C_12
REMARK    4  A    between atoms: CA_18  and  C_19
REMARK    5  A    between atoms: C_19  and  OXT_21
REMARK                            x       y       z     vdW  Elec       q    Type
REMARK                         _______ _______ _______ _____ _____    ______ ____
ROOT
ATOM      1  C   UNL     1       2.033   7.897  20.028  0.00  0.00    +0.000 A 
ATOM      2  C   UNL     1       2.790   7.954  18.851  0.00  0.00    +0.000 A 
ATOM      3  C   UNL     1       3.092   6.804  18.119  0.00  0.00    +0.000 A 
ATOM      4 CL   UNL     1       4.006   6.908  16.669  0.00  0.00    +0.000 Cl
ATOM      5  C   UNL     1       2.652   5.575  18.617  0.00  0.00    +0.000 A 
ATOM      6  N   UNL     1       2.832   4.296  18.145  0.00  0.00    +0.000 N 
ATOM      7  CA  UNL     1       2.337   3.372  19.039  0.00  0.00    +0.000 A 
ATOM      8  C   UNL     1       1.673   4.094  20.020  0.00  0.00    +0.000 A 
ATOM      9  C   UNL     1       1.900   5.476  19.783  0.00  0.00    +0.000 A 
ATOM     10  C   UNL     1       1.558   6.654  20.477  0.00  0.00    +0.000 A 
ATOM     11  H   UNL     1       3.338   4.057  17.299  0.00  0.00    +0.000 HD
ENDROOT
BRANCH   1  17
ATOM     12  C   UNL     1      -1.196  10.756  19.725  0.00  0.00    +0.000 A 
ATOM     13  C   UNL     1      -1.586  11.414  20.868  0.00  0.00    +0.000 A 
ATOM     14  C   UNL     1      -0.793  11.209  21.967  0.00  0.00    +0.000 A 
ATOM     15  N   UNL     1       0.309  10.437  21.956  0.00  0.00    +0.000 NA
ATOM     16  C   UNL     1       0.604   9.820  20.803  0.00  0.00    +0.000 A 
ATOM     17  N   UNL     1       1.757   9.037  20.799  0.00  0.00    +0.000 N 
ATOM     18  N   UNL     1      -0.116   9.950  19.680  0.00  0.00    +0.000 NA
ATOM     19  H   UNL     1       2.199   9.071  21.707  0.00  0.00    +0.000 HD
BRANCH  12  24
ATOM     20  C   UNL     1      -2.894  10.235  15.099  0.00  0.00    +0.000 C 
ATOM     21  N   UNL     1      -2.709  10.668  16.461  0.00  0.00    +0.000 N 
ATOM     22  C   UNL     1      -3.537  11.495  17.163  0.00  0.00    +0.000 A 
ATOM     23  N   UNL     1      -3.122  11.651  18.400  0.00  0.00    +0.000 NA
ATOM     24  C   UNL     1      -1.970  10.896  18.501  0.00  0.00    +0.000 A 
ATOM     25  C   UNL     1      -1.690  10.293  17.289  0.00  0.00    +0.000 A 
ENDBRANCH  12  24
ENDBRANCH   1  17
BRANCH   7  26
ATOM     26  C   UNL     1       2.529   1.957  18.853  0.00  0.00    +0.000 C 
ATOM     27  O   UNL     1       3.616   1.418  18.696  0.00  0.00    +0.000 OA
BRANCH  26  28
ATOM     28  OXT UNL     1       1.373   1.263  18.939  0.00  0.00    +0.000 OA
ATOM     29  HXT UNL     1       1.042   1.192  19.853  0.00  0.00    +0.000 HD
ENDBRANCH  26  28
ENDBRANCH   7  26
TORSDOF 4
ENDMDL
MODEL 8
REMARK VINA RESULT:      -7.0      2.514      4.384
REMARK  Name = 
REMARK  5 active torsions:
REMARK  status: ('A' for Active; 'I' for Inactive)
REMARK    1  A    between atoms: C_1  and  N_2
REMARK    2  A    between atoms: C_5  and  C_6
REMARK    3  A    between atoms: N_11  and  C_12
REMARK    4  A    between atoms: CA_18  and  C_19
REMARK    5  A    between atoms: C_19  and  OXT_21
REMARK                            x       y       z     vdW  Elec       q    Type
REMARK                         _______ _______ _______ _____ _____    ______ ____
ROOT
ATOM      1  C   UNL     1       2.414   5.658  19.877  0.00  0.00    +0.000 A 
ATOM      2  C   UNL     1       2.001   4.413  19.388  0.00  0.00    +0.000 A 
ATOM      3  C   UNL     1       2.653   3.794  18.320  0.00  0.00    +0.000 A 
ATOM      4 CL   UNL     1       2.136   2.257  17.755  0.00  0.00    +0.000 Cl
ATOM      5  C   UNL     1       3.713   4.473  17.715  0.00  0.00    +0.000 A 
ATOM      6  N   UNL     1       4.501   4.138  16.639  0.00  0.00    +0.000 N 
ATOM      7  CA  UNL     1       5.339   5.180  16.305  0.00  0.00    +0.000 A 
ATOM      8  C   UNL     1       5.198   6.131  17.304  0.00  0.00    +0.000 A 
ATOM      9  C   UNL     1       4.152   5.712  18.170  0.00  0.00    +0.000 A 
ATOM     10  C   UNL     1       3.517   6.295  19.285  0.00  0.00    +0.000 A 
ATOM     11  H   UNL     1       4.417   3.279  16.105  0.00  0.00    +0.000 HD
ENDROOT
BRANCH   1  17
ATOM     12  C   UNL     1       0.979   9.727  20.146  0.00  0.00    +0.000 A 
ATOM     13  C   UNL     1      -0.100   9.979  20.960  0.00  0.00    +0.000 A 
ATOM     14  C   UNL     1      -0.514   8.927  21.735  0.00  0.00    +0.000 A 
ATOM     15  N   UNL     1       0.085   7.722  21.736  0.00  0.00    +0.000 NA
ATOM     16  C   UNL     1       1.120   7.561  20.899  0.00  0.00    +0.000 A 
ATOM     17  N   UNL     1       1.743   6.315  20.921  0.00  0.00    +0.000 N 
ATOM     18  N   UNL     1       1.589   8.525  20.095  0.00  0.00    +0.000 NA
ATOM     19  H   UNL     1       1.292   5.717  21.599  0.00  0.00    +0.000 HD
BRANCH  12  24
ATOM     20  C   UNL     1       2.352  14.112  18.292  0.00  0.00    +0.000 C 
ATOM     21  N   UNL     1       2.092  12.705  18.460  0.00  0.00    +0.000 N 
ATOM     22  C   UNL     1       2.485  11.707  17.617  0.00  0.00    +0.000 A 
ATOM     23  N   UNL     1       2.144  10.525  18.079  0.00  0.00    +0.000 NA
ATOM     24  C   UNL     1       1.497  10.771  19.274  0.00  0.00    +0.000 A 
ATOM     25  C   UNL     1       1.439  12.131  19.513  0.00  0.00    +0.000 A 
ENDBRANCH  12  24
ENDBRANCH   1  17
BRANCH   7  26
ATOM     26  C   UNL     1       6.163   5.142  15.125  0.00  0.00    +0.000 C 
ATOM     27  O   UNL     1       7.303   5.580  15.058  0.00  0.00    +0.000 OA
BRANCH  26  28
ATOM     28  OXT UNL     1       5.564   4.501  14.097  0.00  0.00    +0.000 OA
ATOM     29  HXT UNL     1       6.058   4.586  13.260  0.00  0.00    +0.000 HD
ENDBRANCH  26  28
ENDBRANCH   7  26
TORSDOF 4
ENDMDL
MODEL 9
REMARK VINA RESULT:      -7.0      4.590      7.302
REMARK  Name = 
REMARK  5 active torsions:
REMARK  status: ('A' for Active; 'I' for Inactive)
REMARK    1  A    between atoms: C_1  and  N_2
REMARK    2  A    between atoms: C_5  and  C_6
REMARK    3  A    between atoms: N_11  and  C_12
REMARK    4  A    between atoms: CA_18  and  C_19
REMARK    5  A    between atoms: C_19  and  OXT_21
REMARK                            x       y       z     vdW  Elec       q    Type
REMARK                         _______ _______ _______ _____ _____    ______ ____
ROOT
ATOM      1  C   UNL     1       2.645   8.540  18.375  0.00  0.00    +0.000 A 
ATOM      2  C   UNL     1       3.375   7.671  17.556  0.00  0.00    +0.000 A 
ATOM      3  C   UNL     1       3.407   6.295  17.793  0.00  0.00    +0.000 A 
ATOM      4 CL   UNL     1       4.296   5.253  16.758  0.00  0.00    +0.000 Cl
ATOM      5  C   UNL     1       2.719   5.805  18.905  0.00  0.00    +0.000 A 
ATOM      6  N   UNL     1       2.608   4.528  19.405  0.00  0.00    +0.000 N 
ATOM      7  CA  UNL     1       1.940   4.533  20.610  0.00  0.00    +0.000 A 
ATOM      8  C   UNL     1       1.466   5.824  20.790  0.00  0.00    +0.000 A 
ATOM      9  C   UNL     1       1.985   6.635  19.745  0.00  0.00    +0.000 A 
ATOM     10  C   UNL     1       1.919   8.013  19.457  0.00  0.00    +0.000 A 
ATOM     11  H   UNL     1       3.035   3.706  18.992  0.00  0.00    +0.000 HD
ENDROOT
BRANCH   1  17
ATOM     12  C   UNL     1      -0.654  11.334  18.335  0.00  0.00    +0.000 A 
ATOM     13  C   UNL     1      -0.401  12.637  18.693  0.00  0.00    +0.000 A 
ATOM     14  C   UNL     1       0.920  12.955  18.874  0.00  0.00    +0.000 A 
ATOM     15  N   UNL     1       1.926  12.078  18.702  0.00  0.00    +0.000 NA
ATOM     16  C   UNL     1       1.587  10.824  18.370  0.00  0.00    +0.000 A 
ATOM     17  N   UNL     1       2.638   9.930  18.178  0.00  0.00    +0.000 N 
ATOM     18  N   UNL     1       0.324  10.417  18.182  0.00  0.00    +0.000 NA
ATOM     19  H   UNL     1       3.520  10.400  18.325  0.00  0.00    +0.000 HD
BRANCH  12  24
ATOM     20  C   UNL     1      -5.600  11.116  18.156  0.00  0.00    +0.000 C 
ATOM     21  N   UNL     1      -4.200  10.793  18.056  0.00  0.00    +0.000 N 
ATOM     22  C   UNL     1      -3.671   9.683  17.465  0.00  0.00    +0.000 A 
ATOM     23  N   UNL     1      -2.357   9.708  17.486  0.00  0.00    +0.000 NA
ATOM     24  C   UNL     1      -2.022  10.886  18.125  0.00  0.00    +0.000 A 
ATOM     25  C   UNL     1      -3.166  11.562  18.505  0.00  0.00    +0.000 A 
ENDBRANCH  12  24
ENDBRANCH   1  17
BRANCH   7  26
ATOM     26  C   UNL     1       1.817   3.344  21.413  0.00  0.00    +0.000 C 
ATOM     27  O   UNL     1       2.593   3.021  22.301  0.00  0.00    +0.000 OA
BRANCH  26  28
ATOM     28  OXT UNL     1       0.697   2.642  21.129  0.00  0.00    +0.000 OA
ATOM     29  HXT UNL     1      -0.046   3.211  20.857  0.00  0.00    +0.000 HD
ENDBRANCH  26  28
ENDBRANCH   7  26
TORSDOF 4
ENDMDL
