MODEL 1
REMARK VINA RESULT:      -6.2      0.000      0.000
REMARK  Name = 
REMARK  2 active torsions:
REMARK  status: ('A' for Active; 'I' for Inactive)
REMARK    1  A    between atoms: N_4  and  N_5
REMARK    2  A    between atoms: C_6  and  C_7
REMARK                            x       y       z     vdW  Elec       q    Type
REMARK                         _______ _______ _______ _____ _____    ______ ____
ROOT
ATOM      1  N   UNL     1       5.480   6.105  17.349  0.00  0.00    +0.000 NA
ATOM      2  C   UNL     1       4.221   5.808  17.276  0.00  0.00    +0.000 C 
ENDROOT
BRANCH   2   3
ATOM      3  C   UNL     1       3.415   5.729  18.457  0.00  0.00    +0.000 A 
ATOM      4  C   UNL     1       2.578   6.692  19.016  0.00  0.00    +0.000 A 
ATOM      5 CL   UNL     1       2.290   8.263  18.417  0.00  0.00    +0.000 Cl
ATOM      6  N   UNL     1       1.961   6.237  20.165  0.00  0.00    +0.000 NA
ATOM      7  C   UNL     1       2.419   5.027  20.298  0.00  0.00    +0.000 A 
ATOM      8  N   UNL     1       3.287   4.680  19.317  0.00  0.00    +0.000 N 
ATOM      9  C   UNL     1       3.897   3.372  19.418  0.00  0.00    +0.000 C 
ATOM     10  C   UNL     1       3.027   2.557  20.380  0.00  0.00    +0.000 C 
ATOM     11  S   UNL     1       2.136   3.771  21.432  0.00  0.00    +0.000 S 
ENDBRANCH   2   3
BRANCH   1  15
ATOM     12  N   UNL     1       7.594   5.313  14.549  0.00  0.00    +0.000 NA
ATOM     13  C   UNL     1       7.101   5.277  15.737  0.00  0.00    +0.000 C 
ATOM     14  N   UNL     1       7.494   4.389  16.676  0.00  0.00    +0.000 N 
ATOM     15  N   UNL     1       6.126   6.137  16.142  0.00  0.00    +0.000 N 
ATOM     16  H   UNL     1       8.324   4.602  14.477  0.00  0.00    +0.000 HD
ATOM     17  H   UNL     1       7.869   3.515  16.337  0.00  0.00    +0.000 HD
ATOM     18  H   UNL     1       6.772   4.282  17.380  0.00  0.00    +0.000 HD
ATOM     19  H   UNL     1       5.866   6.801  15.414  0.00  0.00    +0.000 HD
ENDBRANCH   1  15
TORSDOF 2
ENDMDL
MODEL 2
REMARK VINA RESULT:      -6.1      0.981      1.080
REMARK  Name = 
REMARK  2 active torsions:
REMARK  status: ('A' for Active; 'I' for Inactive)
REMARK    1  A    between atoms: N_4  and  N_5
REMARK    2  A    between atoms: C_6  and  C_7
REMARK                            x       y       z     vdW  Elec       q    Type
REMARK                         _______ _______ _______ _____ _____    ______ ____
ROOT
ATOM      1  N   UNL     1       5.392   5.268  16.357  0.00  0.00    +0.000 NA
ATOM      2  C   UNL     1       5.126   6.112  17.302  0.00  0.00    +0.000 C 
ENDROOT
BRANCH   2   3
ATOM      3  C   UNL     1       4.080   5.852  18.246  0.00  0.00    +0.000 A 
ATOM      4  C   UNL     1       2.977   6.638  18.575  0.00  0.00    +0.000 A 
ATOM      5 CL   UNL     1       2.578   8.160  17.918  0.00  0.00    +0.000 Cl
ATOM      6  N   UNL     1       2.185   6.039  19.536  0.00  0.00    +0.000 NA
ATOM      7  C   UNL     1       2.798   4.919  19.783  0.00  0.00    +0.000 A 
ATOM      8  N   UNL     1       3.928   4.763  19.050  0.00  0.00    +0.000 N 
ATOM      9  C   UNL     1       4.711   3.574  19.305  0.00  0.00    +0.000 C 
ATOM     10  C   UNL     1       3.786   2.586  20.023  0.00  0.00    +0.000 C 
ATOM     11  S   UNL     1       2.467   3.590  20.815  0.00  0.00    +0.000 S 
ENDBRANCH   2   3
BRANCH   1  15
ATOM     12  N   UNL     1       7.801   5.393  13.689  0.00  0.00    +0.000 NA
ATOM     13  C   UNL     1       6.905   4.924  14.484  0.00  0.00    +0.000 C 
ATOM     14  N   UNL     1       6.373   3.690  14.356  0.00  0.00    +0.000 N 
ATOM     15  N   UNL     1       6.411   5.650  15.526  0.00  0.00    +0.000 N 
ATOM     16  H   UNL     1       8.040   4.672  13.005  0.00  0.00    +0.000 HD
ATOM     17  H   UNL     1       6.375   3.295  13.427  0.00  0.00    +0.000 HD
ATOM     18  H   UNL     1       5.472   3.647  14.821  0.00  0.00    +0.000 HD
ATOM     19  H   UNL     1       6.845   6.569  15.600  0.00  0.00    +0.000 HD
ENDBRANCH   1  15
TORSDOF 2
ENDMDL
MODEL 3
REMARK VINA RESULT:      -6.1      2.666      3.166
REMARK  Name = 
REMARK  2 active torsions:
REMARK  status: ('A' for Active; 'I' for Inactive)
REMARK    1  A    between atoms: N_4  and  N_5
REMARK    2  A    between atoms: C_6  and  C_7
REMARK                            x       y       z     vdW  Elec       q    Type
REMARK                         _______ _______ _______ _____ _____    ______ ____
ROOT
ATOM      1  N   UNL     1       6.133   4.641  19.009  0.00  0.00    +0.000 NA
ATOM      2  C   UNL     1       4.934   5.120  18.903  0.00  0.00    +0.000 C 
ENDROOT
BRANCH   2   3
ATOM      3  C   UNL     1       3.849   4.292  18.470  0.00  0.00    +0.000 A 
ATOM      4  C   UNL     1       3.599   3.759  17.208  0.00  0.00    +0.000 A 
ATOM      5 CL   UNL     1       4.553   3.963  15.809  0.00  0.00    +0.000 Cl
ATOM      6  N   UNL     1       2.444   3.002  17.186  0.00  0.00    +0.000 NA
ATOM      7  C   UNL     1       2.004   3.079  18.407  0.00  0.00    +0.000 A 
ATOM      8  N   UNL     1       2.796   3.836  19.206  0.00  0.00    +0.000 N 
ATOM      9  C   UNL     1       2.352   4.031  20.569  0.00  0.00    +0.000 C 
ATOM     10  C   UNL     1       1.324   2.932  20.856  0.00  0.00    +0.000 C 
ATOM     11  S   UNL     1       0.656   2.407  19.227  0.00  0.00    +0.000 S 
ENDBRANCH   2   3
BRANCH   1  15
ATOM     12  N   UNL     1       8.573   7.282  19.102  0.00  0.00    +0.000 NA
ATOM     13  C   UNL     1       7.778   6.391  18.624  0.00  0.00    +0.000 C 
ATOM     14  N   UNL     1       7.567   6.218  17.302  0.00  0.00    +0.000 N 
ATOM     15  N   UNL     1       7.071   5.548  19.427  0.00  0.00    +0.000 N 
ATOM     16  H   UNL     1       9.015   7.777  18.324  0.00  0.00    +0.000 HD
ATOM     17  H   UNL     1       7.712   7.026  16.715  0.00  0.00    +0.000 HD
ATOM     18  H   UNL     1       6.681   5.749  17.147  0.00  0.00    +0.000 HD
ATOM     19  H   UNL     1       7.266   5.698  20.416  0.00  0.00    +0.000 HD
ENDBRANCH   1  15
TORSDOF 2
ENDMDL
MODEL 4
REMARK VINA RESULT:      -6.1      2.655      3.228
REMARK  Name = 
REMARK  2 active torsions:
REMARK  status: ('A' for Active; 'I' for Inactive)
REMARK    1  A    between atoms: N_4  and  N_5
REMARK    2  A    between atoms: C_6  and  C_7
REMARK                            x       y       z     vdW  Elec       q    Type
REMARK                         _______ _______ _______ _____ _____    ______ ____
ROOT
ATOM      1  N   UNL     1       7.322   4.728  15.553  0.00  0.00    +0.000 NA
ATOM      2  C   UNL     1       6.422   5.450  16.142  0.00  0.00    +0.000 C 
ENDROOT
BRANCH   2   3
ATOM      3  C   UNL     1       5.971   5.126  17.462  0.00  0.00    +0.000 A 
ATOM      4  C   UNL     1       6.555   5.429  18.690  0.00  0.00    +0.000 A 
ATOM      5 CL   UNL     1       8.004   6.291  18.944  0.00  0.00    +0.000 Cl
ATOM      6  N   UNL     1       5.811   4.946  19.750  0.00  0.00    +0.000 NA
ATOM      7  C   UNL     1       4.803   4.360  19.173  0.00  0.00    +0.000 A 
ATOM      8  N   UNL     1       4.853   4.434  17.820  0.00  0.00    +0.000 N 
ATOM      9  C   UNL     1       3.804   3.755  17.091  0.00  0.00    +0.000 C 
ATOM     10  C   UNL     1       2.661   3.522  18.084  0.00  0.00    +0.000 C 
ATOM     11  S   UNL     1       3.414   3.543  19.759  0.00  0.00    +0.000 S 
ENDBRANCH   2   3
BRANCH   1  15
ATOM     12  N   UNL     1       7.494   5.112  11.981  0.00  0.00    +0.000 NA
ATOM     13  C   UNL     1       7.215   4.598  13.126  0.00  0.00    +0.000 C 
ATOM     14  N   UNL     1       6.469   3.483  13.277  0.00  0.00    +0.000 N 
ATOM     15  N   UNL     1       7.651   5.151  14.292  0.00  0.00    +0.000 N 
ATOM     16  H   UNL     1       7.091   4.520  11.251  0.00  0.00    +0.000 HD
ATOM     17  H   UNL     1       5.805   3.285  12.543  0.00  0.00    +0.000 HD
ATOM     18  H   UNL     1       6.073   3.450  14.211  0.00  0.00    +0.000 HD
ATOM     19  H   UNL     1       8.223   5.981  14.139  0.00  0.00    +0.000 HD
ENDBRANCH   1  15
TORSDOF 2
ENDMDL
MODEL 5
REMARK VINA RESULT:      -6.0      2.735      3.074
REMARK  Name = 
REMARK  2 active torsions:
REMARK  status: ('A' for Active; 'I' for Inactive)
REMARK    1  A    between atoms: N_4  and  N_5
REMARK    2  A    between atoms: C_6  and  C_7
REMARK                            x       y       z     vdW  Elec       q    Type
REMARK                         _______ _______ _______ _____ _____    ______ ____
ROOT
ATOM      1  N   UNL     1       6.330   3.608  15.365  0.00  0.00    +0.000 NA
ATOM      2  C   UNL     1       5.217   3.994  15.904  0.00  0.00    +0.000 C 
ENDROOT
BRANCH   2   3
ATOM      3  C   UNL     1       5.037   3.956  17.324  0.00  0.00    +0.000 A 
ATOM      4  C   UNL     1       5.815   4.536  18.324  0.00  0.00    +0.000 A 
ATOM      5 CL   UNL     1       7.227   5.467  18.106  0.00  0.00    +0.000 Cl
ATOM      6  N   UNL     1       5.311   4.278  19.585  0.00  0.00    +0.000 NA
ATOM      7  C   UNL     1       4.255   3.556  19.351  0.00  0.00    +0.000 A 
ATOM      8  N   UNL     1       4.052   3.332  18.029  0.00  0.00    +0.000 N 
ATOM      9  C   UNL     1       2.934   2.485  17.675  0.00  0.00    +0.000 C 
ATOM     10  C   UNL     1       2.009   2.448  18.897  0.00  0.00    +0.000 C 
ATOM     11  S   UNL     1       3.054   2.853  20.353  0.00  0.00    +0.000 S 
ENDBRANCH   2   3
BRANCH   1  15
ATOM     12  N   UNL     1       7.164   4.503  11.983  0.00  0.00    +0.000 NA
ATOM     13  C   UNL     1       7.122   4.551  13.268  0.00  0.00    +0.000 C 
ATOM     14  N   UNL     1       7.829   5.437  14.001  0.00  0.00    +0.000 N 
ATOM     15  N   UNL     1       6.358   3.692  13.999  0.00  0.00    +0.000 N 
ATOM     16  H   UNL     1       7.774   5.252  11.648  0.00  0.00    +0.000 HD
ATOM     17  H   UNL     1       8.679   5.788  13.583  0.00  0.00    +0.000 HD
ATOM     18  H   UNL     1       7.946   5.095  14.948  0.00  0.00    +0.000 HD
ATOM     19  H   UNL     1       5.828   3.048  13.413  0.00  0.00    +0.000 HD
ENDBRANCH   1  15
TORSDOF 2
ENDMDL
MODEL 6
REMARK VINA RESULT:      -5.9      1.427      1.563
REMARK  Name = 
REMARK  2 active torsions:
REMARK  status: ('A' for Active; 'I' for Inactive)
REMARK    1  A    between atoms: N_4  and  N_5
REMARK    2  A    between atoms: C_6  and  C_7
REMARK                            x       y       z     vdW  Elec       q    Type
REMARK                         _______ _______ _______ _____ _____    ______ ____
ROOT
ATOM      1  N   UNL     1       6.071   5.205  16.583  0.00  0.00    +0.000 NA
ATOM      2  C   UNL     1       4.914   5.783  16.516  0.00  0.00    +0.000 C 
ENDROOT
BRANCH   2   3
ATOM      3  C   UNL     1       3.883   5.472  17.460  0.00  0.00    +0.000 A 
ATOM      4  C   UNL     1       3.013   6.332  18.128  0.00  0.00    +0.000 A 
ATOM      5 CL   UNL     1       2.953   8.030  17.988  0.00  0.00    +0.000 Cl
ATOM      6  N   UNL     1       2.149   5.648  18.962  0.00  0.00    +0.000 NA
ATOM      7  C   UNL     1       2.492   4.404  18.803  0.00  0.00    +0.000 A 
ATOM      8  N   UNL     1       3.517   4.246  17.930  0.00  0.00    +0.000 N 
ATOM      9  C   UNL     1       4.009   2.899  17.738  0.00  0.00    +0.000 C 
ATOM     10  C   UNL     1       2.912   1.956  18.245  0.00  0.00    +0.000 C 
ATOM     11  S   UNL     1       1.907   2.923  19.441  0.00  0.00    +0.000 S 
ENDBRANCH   2   3
BRANCH   1  15
ATOM     12  N   UNL     1       7.946   5.443  13.523  0.00  0.00    +0.000 NA
ATOM     13  C   UNL     1       7.165   4.961  14.425  0.00  0.00    +0.000 C 
ATOM     14  N   UNL     1       6.485   3.805  14.276  0.00  0.00    +0.000 N 
ATOM     15  N   UNL     1       6.956   5.594  15.613  0.00  0.00    +0.000 N 
ATOM     16  H   UNL     1       7.973   4.793  12.734  0.00  0.00    +0.000 HD
ATOM     17  H   UNL     1       6.271   3.529  13.329  0.00  0.00    +0.000 HD
ATOM     18  H   UNL     1       5.686   3.786  14.901  0.00  0.00    +0.000 HD
ATOM     19  H   UNL     1       7.496   6.455  15.695  0.00  0.00    +0.000 HD
ENDBRANCH   1  15
TORSDOF 2
ENDMDL
MODEL 7
REMARK VINA RESULT:      -5.9      2.667      3.191
REMARK  Name = 
REMARK  2 active torsions:
REMARK  status: ('A' for Active; 'I' for Inactive)
REMARK    1  A    between atoms: N_4  and  N_5
REMARK    2  A    between atoms: C_6  and  C_7
REMARK                            x       y       z     vdW  Elec       q    Type
REMARK                         _______ _______ _______ _____ _____    ______ ____
ROOT
ATOM      1  N   UNL     1       5.463   4.237  14.622  0.00  0.00    +0.000 NA
ATOM      2  C   UNL     1       5.539   3.872  15.862  0.00  0.00    +0.000 C 
ENDROOT
BRANCH   2   3
ATOM      3  C   UNL     1       4.718   4.489  16.860  0.00  0.00    +0.000 A 
ATOM      4  C   UNL     1       4.782   5.782  17.375  0.00  0.00    +0.000 A 
ATOM      5 CL   UNL     1       5.890   7.001  16.935  0.00  0.00    +0.000 Cl
ATOM      6  N   UNL     1       3.808   6.007  18.329  0.00  0.00    +0.000 NA
ATOM      7  C   UNL     1       3.173   4.873  18.391  0.00  0.00    +0.000 A 
ATOM      8  N   UNL     1       3.676   3.940  17.546  0.00  0.00    +0.000 N 
ATOM      9  C   UNL     1       3.073   2.626  17.591  0.00  0.00    +0.000 C 
ATOM     10  C   UNL     1       1.711   2.794  18.273  0.00  0.00    +0.000 C 
ATOM     11  S   UNL     1       1.822   4.319  19.291  0.00  0.00    +0.000 S 
ENDBRANCH   2   3
BRANCH   1  15
ATOM     12  N   UNL     1       6.924   2.664  11.736  0.00  0.00    +0.000 NA
ATOM     13  C   UNL     1       6.039   3.209  12.494  0.00  0.00    +0.000 C 
ATOM     14  N   UNL     1       4.781   3.480  12.088  0.00  0.00    +0.000 N 
ATOM     15  N   UNL     1       6.310   3.566  13.780  0.00  0.00    +0.000 N 
ATOM     16  H   UNL     1       6.496   2.457  10.831  0.00  0.00    +0.000 HD
ATOM     17  H   UNL     1       4.651   3.630  11.098  0.00  0.00    +0.000 HD
ATOM     18  H   UNL     1       4.373   4.204  12.671  0.00  0.00    +0.000 HD
ATOM     19  H   UNL     1       7.263   3.333  14.056  0.00  0.00    +0.000 HD
ENDBRANCH   1  15
TORSDOF 2
ENDMDL
MODEL 8
REMARK VINA RESULT:      -5.8      2.337      2.995
REMARK  Name = 
REMARK  2 active torsions:
REMARK  status: ('A' for Active; 'I' for Inactive)
REMARK    1  A    between atoms: N_4  and  N_5
REMARK    2  A    between atoms: C_6  and  C_7
REMARK                            x       y       z     vdW  Elec       q    Type
REMARK                         _______ _______ _______ _____ _____    ______ ____
ROOT
ATOM      1  N   UNL     1       5.612   3.981  16.670  0.00  0.00    +0.000 NA
ATOM      2  C   UNL     1       4.322   4.101  16.674  0.00  0.00    +0.000 C 
ENDROOT
BRANCH   2   3
ATOM      3  C   UNL     1       3.574   3.944  17.885  0.00  0.00    +0.000 A 
ATOM      4  C   UNL     1       3.293   2.782  18.600  0.00  0.00    +0.000 A 
ATOM      5 CL   UNL     1       3.782   1.198  18.203  0.00  0.00    +0.000 Cl
ATOM      6  N   UNL     1       2.540   3.040  19.730  0.00  0.00    +0.000 NA
ATOM      7  C   UNL     1       2.367   4.329  19.695  0.00  0.00    +0.000 A 
ATOM      8  N   UNL     1       2.955   4.910  18.620  0.00  0.00    +0.000 N 
ATOM      9  C   UNL     1       2.762   6.335  18.463  0.00  0.00    +0.000 C 
ATOM     10  C   UNL     1       2.318   6.870  19.829  0.00  0.00    +0.000 C 
ATOM     11  S   UNL     1       1.582   5.448  20.730  0.00  0.00    +0.000 S 
ENDBRANCH   2   3
BRANCH   1  15
ATOM     12  N   UNL     1       7.661   5.160  13.960  0.00  0.00    +0.000 NA
ATOM     13  C   UNL     1       7.086   5.125  15.110  0.00  0.00    +0.000 C 
ATOM     14  N   UNL     1       7.315   6.032  16.082  0.00  0.00    +0.000 N 
ATOM     15  N   UNL     1       6.194   4.150  15.442  0.00  0.00    +0.000 N 
ATOM     16  H   UNL     1       8.263   5.986  13.922  0.00  0.00    +0.000 HD
ATOM     17  H   UNL     1       8.214   6.491  16.064  0.00  0.00    +0.000 HD
ATOM     18  H   UNL     1       7.068   5.646  16.988  0.00  0.00    +0.000 HD
ATOM     19  H   UNL     1       6.035   3.493  14.680  0.00  0.00    +0.000 HD
ENDBRANCH   1  15
TORSDOF 2
ENDMDL
MODEL 9
REMARK VINA RESULT:      -5.8      3.117      4.542
REMARK  Name = 
REMARK  2 active torsions:
REMARK  status: ('A' for Active; 'I' for Inactive)
REMARK    1  A    between atoms: N_4  and  N_5
REMARK    2  A    between atoms: C_6  and  C_7
REMARK                            x       y       z     vdW  Elec       q    Type
REMARK                         _______ _______ _______ _____ _____    ______ ____
ROOT
ATOM      1  N   UNL     1       2.822   7.316  18.286  0.00  0.00    +0.000 NA
ATOM      2  C   UNL     1       3.788   6.585  17.828  0.00  0.00    +0.000 C 
ENDROOT
BRANCH   2   3
ATOM      3  C   UNL     1       4.023   5.271  18.346  0.00  0.00    +0.000 A 
ATOM      4  C   UNL     1       5.162   4.760  18.964  0.00  0.00    +0.000 A 
ATOM      5 CL   UNL     1       6.617   5.596  19.272  0.00  0.00    +0.000 Cl
ATOM      6  N   UNL     1       5.002   3.438  19.332  0.00  0.00    +0.000 NA
ATOM      7  C   UNL     1       3.794   3.157  18.941  0.00  0.00    +0.000 A 
ATOM      8  N   UNL     1       3.174   4.205  18.347  0.00  0.00    +0.000 N 
ATOM      9  C   UNL     1       1.847   3.967  17.822  0.00  0.00    +0.000 C 
ATOM     10  C   UNL     1       1.329   2.696  18.503  0.00  0.00    +0.000 C 
ATOM     11  S   UNL     1       2.811   1.754  19.043  0.00  0.00    +0.000 S 
ENDBRANCH   2   3
BRANCH   1  15
ATOM     12  N   UNL     1       1.982  10.746  17.602  0.00  0.00    +0.000 NA
ATOM     13  C   UNL     1       1.951   9.583  18.150  0.00  0.00    +0.000 C 
ATOM     14  N   UNL     1       1.170   9.284  19.210  0.00  0.00    +0.000 N 
ATOM     15  N   UNL     1       2.720   8.551  17.703  0.00  0.00    +0.000 N 
ATOM     16  H   UNL     1       1.309  11.350  18.079  0.00  0.00    +0.000 HD
ATOM     17  H   UNL     1       0.921  10.053  19.815  0.00  0.00    +0.000 HD
ATOM     18  H   UNL     1       1.540   8.477  19.701  0.00  0.00    +0.000 HD
ATOM     19  H   UNL     1       3.284   8.809  16.895  0.00  0.00    +0.000 HD
ENDBRANCH   1  15
TORSDOF 2
ENDMDL
