MODEL 1
REMARK VINA RESULT:      -9.6      0.000      0.000
REMARK  Name = 
REMARK  6 active torsions:
REMARK  status: ('A' for Active; 'I' for Inactive)
REMARK    1  A    between atoms: C_1  and  N_2
REMARK    2  A    between atoms: C_6  and  O_7
REMARK    3  A    between atoms: O_7  and  C_8
REMARK    4  A    between atoms: N_16  and  C_17
REMARK    5  A    between atoms: C_21  and  C_22
REMARK    6  A    between atoms: N_27  and  C_28
REMARK                            x       y       z     vdW  Elec       q    Type
REMARK                         _______ _______ _______ _____ _____    ______ ____
ROOT
ATOM      1  C   UNL     1       1.767   6.289  20.675  0.00  0.00    +0.000 A 
ATOM      2  C   UNL     1       0.924   5.177  20.624  0.00  0.00    +0.000 A 
ATOM      3  C   UNL     1       1.269   4.040  19.891  0.00  0.00    +0.000 A 
ATOM      4  C   UNL     1       2.438   4.118  19.131  0.00  0.00    +0.000 A 
ATOM      5  C   UNL     1       3.201   5.265  19.042  0.00  0.00    +0.000 A 
ATOM      6  C   UNL     1       2.876   6.386  19.822  0.00  0.00    +0.000 A 
ATOM      7  N   UNL     1       4.234   5.087  18.165  0.00  0.00    +0.000 NA
ATOM      8  C   UNL     1       4.171   3.835  17.757  0.00  0.00    +0.000 A 
ATOM      9  N   UNL     1       5.002   3.219  16.882  0.00  0.00    +0.000 N 
ATOM     10  N   UNL     1       3.116   3.190  18.376  0.00  0.00    +0.000 N 
ATOM     11  C   UNL     1       2.709   1.809  18.310  0.00  0.00    +0.000 C 
ATOM     12  H   UNL     1       5.164   2.223  16.952  0.00  0.00    +0.000 HD
ENDROOT
BRANCH   9  13
ATOM     13  C   UNL     1       5.730   3.836  15.834  0.00  0.00    +0.000 A 
ATOM     14  C   UNL     1       6.777   4.715  16.155  0.00  0.00    +0.000 A 
ATOM     15  C   UNL     1       7.619   5.235  15.164  0.00  0.00    +0.000 A 
ATOM     16  C   UNL     1       7.437   4.874  13.832  0.00  0.00    +0.000 A 
ATOM     17  C   UNL     1       6.382   4.028  13.473  0.00  0.00    +0.000 A 
ATOM     18  C   UNL     1       5.518   3.552  14.477  0.00  0.00    +0.000 A 
BRANCH  17  19
ATOM     19  C   UNL     1       6.203   3.559  12.051  0.00  0.00    +0.000 C 
ATOM     20  F   UNL     1       6.490   2.235  11.880  0.00  0.00    +0.000 F 
ATOM     21  F   UNL     1       4.921   3.711  11.613  0.00  0.00    +0.000 F 
ATOM     22  F   UNL     1       6.986   4.224  11.160  0.00  0.00    +0.000 F 
ENDBRANCH  17  19
ENDBRANCH   9  13
BRANCH   1  23
ATOM     23  O   UNL     1       1.575   7.345  21.532  0.00  0.00    +0.000 OA
BRANCH  23  29
ATOM     24  C   UNL     1      -1.759  12.447  21.659  0.00  0.00    +0.000 C 
ATOM     25  N   UNL     1      -1.010  11.251  21.955  0.00  0.00    +0.000 N 
ATOM     26  N   UNL     1      -0.991  10.759  23.211  0.00  0.00    +0.000 NA
ATOM     27  C   UNL     1      -0.190   9.694  23.107  0.00  0.00    +0.000 A 
ATOM     28  C   UNL     1       0.259   9.460  21.785  0.00  0.00    +0.000 A 
ATOM     29  C   UNL     1       1.000   8.521  21.053  0.00  0.00    +0.000 A 
ATOM     30  N   UNL     1       1.226   8.748  19.736  0.00  0.00    +0.000 NA
ATOM     31  C   UNL     1       0.681   9.842  19.175  0.00  0.00    +0.000 A 
ATOM     32  N   UNL     1      -0.100  10.768  19.756  0.00  0.00    +0.000 NA
ATOM     33  C   UNL     1      -0.271  10.518  21.065  0.00  0.00    +0.000 A 
ENDBRANCH  23  29
ENDBRANCH   1  23
TORSDOF 4
ENDMDL
MODEL 2
REMARK VINA RESULT:      -9.3      1.568      2.156
REMARK  Name = 
REMARK  6 active torsions:
REMARK  status: ('A' for Active; 'I' for Inactive)
REMARK    1  A    between atoms: C_1  and  N_2
REMARK    2  A    between atoms: C_6  and  O_7
REMARK    3  A    between atoms: O_7  and  C_8
REMARK    4  A    between atoms: N_16  and  C_17
REMARK    5  A    between atoms: C_21  and  C_22
REMARK    6  A    between atoms: N_27  and  C_28
REMARK                            x       y       z     vdW  Elec       q    Type
REMARK                         _______ _______ _______ _____ _____    ______ ____
ROOT
ATOM      1  C   UNL     1       2.108   8.094  18.942  0.00  0.00    +0.000 A 
ATOM      2  C   UNL     1       1.856   6.994  19.765  0.00  0.00    +0.000 A 
ATOM      3  C   UNL     1       2.588   5.812  19.637  0.00  0.00    +0.000 A 
ATOM      4  C   UNL     1       3.499   5.753  18.581  0.00  0.00    +0.000 A 
ATOM      5  C   UNL     1       3.648   6.770  17.659  0.00  0.00    +0.000 A 
ATOM      6  C   UNL     1       2.947   7.975  17.825  0.00  0.00    +0.000 A 
ATOM      7  N   UNL     1       4.541   6.411  16.688  0.00  0.00    +0.000 NA
ATOM      8  C   UNL     1       5.001   5.220  17.021  0.00  0.00    +0.000 A 
ATOM      9  N   UNL     1       5.912   4.480  16.344  0.00  0.00    +0.000 N 
ATOM     10  N   UNL     1       4.429   4.810  18.210  0.00  0.00    +0.000 N 
ATOM     11  C   UNL     1       4.682   3.631  19.000  0.00  0.00    +0.000 C 
ATOM     12  H   UNL     1       6.512   3.835  16.842  0.00  0.00    +0.000 HD
ENDROOT
BRANCH   9  13
ATOM     13  C   UNL     1       6.156   4.514  14.949  0.00  0.00    +0.000 A 
ATOM     14  C   UNL     1       7.389   4.998  14.482  0.00  0.00    +0.000 A 
ATOM     15  C   UNL     1       7.737   4.916  13.128  0.00  0.00    +0.000 A 
ATOM     16  C   UNL     1       6.860   4.335  12.215  0.00  0.00    +0.000 A 
ATOM     17  C   UNL     1       5.609   3.876  12.640  0.00  0.00    +0.000 A 
ATOM     18  C   UNL     1       5.259   4.008  13.996  0.00  0.00    +0.000 A 
BRANCH  17  19
ATOM     19  C   UNL     1       4.669   3.175  11.691  0.00  0.00    +0.000 C 
ATOM     20  F   UNL     1       5.146   1.977  11.247  0.00  0.00    +0.000 F 
ATOM     21  F   UNL     1       3.466   2.895  12.269  0.00  0.00    +0.000 F 
ATOM     22  F   UNL     1       4.390   3.899  10.574  0.00  0.00    +0.000 F 
ENDBRANCH  17  19
ENDBRANCH   9  13
BRANCH   1  23
ATOM     23  O   UNL     1       1.563   9.338  19.154  0.00  0.00    +0.000 OA
BRANCH  23  29
ATOM     24  C   UNL     1      -2.147  12.099  23.125  0.00  0.00    +0.000 C 
ATOM     25  N   UNL     1      -1.466  11.586  21.963  0.00  0.00    +0.000 N 
ATOM     26  N   UNL     1      -1.822  12.005  20.730  0.00  0.00    +0.000 NA
ATOM     27  C   UNL     1      -1.014  11.305  19.927  0.00  0.00    +0.000 A 
ATOM     28  C   UNL     1      -0.102  10.483  20.632  0.00  0.00    +0.000 A 
ATOM     29  C   UNL     1       0.985   9.631  20.388  0.00  0.00    +0.000 A 
ATOM     30  N   UNL     1       1.557   8.983  21.432  0.00  0.00    +0.000 NA
ATOM     31  C   UNL     1       1.088   9.229  22.668  0.00  0.00    +0.000 A 
ATOM     32  N   UNL     1       0.106  10.072  23.029  0.00  0.00    +0.000 NA
ATOM     33  C   UNL     1      -0.449  10.668  21.960  0.00  0.00    +0.000 A 
ENDBRANCH  23  29
ENDBRANCH   1  23
TORSDOF 4
ENDMDL
MODEL 3
REMARK VINA RESULT:      -9.2      4.687      7.484
REMARK  Name = 
REMARK  6 active torsions:
REMARK  status: ('A' for Active; 'I' for Inactive)
REMARK    1  A    between atoms: C_1  and  N_2
REMARK    2  A    between atoms: C_6  and  O_7
REMARK    3  A    between atoms: O_7  and  C_8
REMARK    4  A    between atoms: N_16  and  C_17
REMARK    5  A    between atoms: C_21  and  C_22
REMARK    6  A    between atoms: N_27  and  C_28
REMARK                            x       y       z     vdW  Elec       q    Type
REMARK                         _______ _______ _______ _____ _____    ______ ____
ROOT
ATOM      1  C   UNL     1      -0.503  12.746  19.409  0.00  0.00    +0.000 A 
ATOM      2  C   UNL     1      -1.121  12.725  20.662  0.00  0.00    +0.000 A 
ATOM      3  C   UNL     1      -0.868  11.702  21.577  0.00  0.00    +0.000 A 
ATOM      4  C   UNL     1      -0.058  10.655  21.134  0.00  0.00    +0.000 A 
ATOM      5  C   UNL     1       0.432  10.577  19.846  0.00  0.00    +0.000 A 
ATOM      6  C   UNL     1       0.216  11.634  18.948  0.00  0.00    +0.000 A 
ATOM      7  N   UNL     1       1.118   9.408  19.663  0.00  0.00    +0.000 NA
ATOM      8  C   UNL     1       1.122   8.788  20.827  0.00  0.00    +0.000 A 
ATOM      9  N   UNL     1       1.693   7.592  21.111  0.00  0.00    +0.000 N 
ATOM     10  N   UNL     1       0.461   9.552  21.770  0.00  0.00    +0.000 N 
ATOM     11  C   UNL     1       0.285   9.328  23.184  0.00  0.00    +0.000 C 
ATOM     12  H   UNL     1       2.027   7.400  22.047  0.00  0.00    +0.000 HD
ENDROOT
BRANCH   9  13
ATOM     13  C   UNL     1       1.909   6.525  20.205  0.00  0.00    +0.000 A 
ATOM     14  C   UNL     1       2.775   6.717  19.116  0.00  0.00    +0.000 A 
ATOM     15  C   UNL     1       3.137   5.656  18.279  0.00  0.00    +0.000 A 
ATOM     16  C   UNL     1       2.647   4.375  18.522  0.00  0.00    +0.000 A 
ATOM     17  C   UNL     1       1.754   4.155  19.576  0.00  0.00    +0.000 A 
ATOM     18  C   UNL     1       1.366   5.243  20.380  0.00  0.00    +0.000 A 
BRANCH  17  19
ATOM     19  C   UNL     1       1.266   2.768  19.912  0.00  0.00    +0.000 C 
ATOM     20  F   UNL     1       2.204   1.800  19.703  0.00  0.00    +0.000 F 
ATOM     21  F   UNL     1       0.908   2.649  21.222  0.00  0.00    +0.000 F 
ATOM     22  F   UNL     1       0.177   2.389  19.190  0.00  0.00    +0.000 F 
ENDBRANCH  17  19
ENDBRANCH   9  13
BRANCH   1  23
ATOM     23  O   UNL     1      -0.558  13.822  18.556  0.00  0.00    +0.000 OA
BRANCH  23  29
ATOM     24  C   UNL     1       4.703  16.851  19.102  0.00  0.00    +0.000 C 
ATOM     25  N   UNL     1       3.651  15.900  18.846  0.00  0.00    +0.000 N 
ATOM     26  N   UNL     1       3.954  14.651  18.433  0.00  0.00    +0.000 NA
ATOM     27  C   UNL     1       2.753  14.085  18.274  0.00  0.00    +0.000 A 
ATOM     28  C   UNL     1       1.681  14.938  18.636  0.00  0.00    +0.000 A 
ATOM     29  C   UNL     1       0.286  14.910  18.770  0.00  0.00    +0.000 A 
ATOM     30  N   UNL     1      -0.361  16.047  19.123  0.00  0.00    +0.000 NA
ATOM     31  C   UNL     1       0.374  17.143  19.383  0.00  0.00    +0.000 A 
ATOM     32  N   UNL     1       1.712  17.269  19.358  0.00  0.00    +0.000 NA
ATOM     33  C   UNL     1       2.306  16.126  18.974  0.00  0.00    +0.000 A 
ENDBRANCH  23  29
ENDBRANCH   1  23
TORSDOF 4
ENDMDL
MODEL 4
REMARK VINA RESULT:      -9.0      1.921      2.435
REMARK  Name = 
REMARK  6 active torsions:
REMARK  status: ('A' for Active; 'I' for Inactive)
REMARK    1  A    between atoms: C_1  and  N_2
REMARK    2  A    between atoms: C_6  and  O_7
REMARK    3  A    between atoms: O_7  and  C_8
REMARK    4  A    between atoms: N_16  and  C_17
REMARK    5  A    between atoms: C_21  and  C_22
REMARK    6  A    between atoms: N_27  and  C_28
REMARK                            x       y       z     vdW  Elec       q    Type
REMARK                         _______ _______ _______ _____ _____    ______ ____
ROOT
ATOM      1  C   UNL     1       2.185   8.598  18.763  0.00  0.00    +0.000 A 
ATOM      2  C   UNL     1       1.754   7.541  19.569  0.00  0.00    +0.000 A 
ATOM      3  C   UNL     1       2.338   6.277  19.476  0.00  0.00    +0.000 A 
ATOM      4  C   UNL     1       3.287   6.099  18.468  0.00  0.00    +0.000 A 
ATOM      5  C   UNL     1       3.609   7.086  17.557  0.00  0.00    +0.000 A 
ATOM      6  C   UNL     1       3.057   8.370  17.690  0.00  0.00    +0.000 A 
ATOM      7  N   UNL     1       4.499   6.613  16.632  0.00  0.00    +0.000 NA
ATOM      8  C   UNL     1       4.787   5.376  16.985  0.00  0.00    +0.000 A 
ATOM      9  N   UNL     1       5.632   4.525  16.354  0.00  0.00    +0.000 N 
ATOM     10  N   UNL     1       4.108   5.045  18.143  0.00  0.00    +0.000 N 
ATOM     11  C   UNL     1       4.171   3.847  18.942  0.00  0.00    +0.000 C 
ATOM     12  H   UNL     1       6.120   3.812  16.881  0.00  0.00    +0.000 HD
ENDROOT
BRANCH   9  13
ATOM     13  C   UNL     1       5.950   4.522  14.974  0.00  0.00    +0.000 A 
ATOM     14  C   UNL     1       7.223   4.949  14.564  0.00  0.00    +0.000 A 
ATOM     15  C   UNL     1       7.638   4.827  13.233  0.00  0.00    +0.000 A 
ATOM     16  C   UNL     1       6.788   4.263  12.285  0.00  0.00    +0.000 A 
ATOM     17  C   UNL     1       5.500   3.860  12.651  0.00  0.00    +0.000 A 
ATOM     18  C   UNL     1       5.084   4.032  13.985  0.00  0.00    +0.000 A 
BRANCH  17  19
ATOM     19  C   UNL     1       4.583   3.177  11.667  0.00  0.00    +0.000 C 
ATOM     20  F   UNL     1       3.354   2.888  12.185  0.00  0.00    +0.000 F 
ATOM     21  F   UNL     1       4.341   3.945  10.567  0.00  0.00    +0.000 F 
ATOM     22  F   UNL     1       5.074   1.997  11.201  0.00  0.00    +0.000 F 
ENDBRANCH  17  19
ENDBRANCH   9  13
BRANCH   1  23
ATOM     23  O   UNL     1       1.790   9.901  18.949  0.00  0.00    +0.000 OA
BRANCH  23  29
ATOM     24  C   UNL     1      -3.573  12.557  20.112  0.00  0.00    +0.000 C 
ATOM     25  N   UNL     1      -2.196  12.133  20.070  0.00  0.00    +0.000 N 
ATOM     26  N   UNL     1      -1.317  12.597  20.983  0.00  0.00    +0.000 NA
ATOM     27  C   UNL     1      -0.166  12.024  20.615  0.00  0.00    +0.000 A 
ATOM     28  C   UNL     1      -0.306  11.150  19.510  0.00  0.00    +0.000 A 
ATOM     29  C   UNL     1       0.453  10.246  18.754  0.00  0.00    +0.000 A 
ATOM     30  N   UNL     1      -0.125   9.631  17.694  0.00  0.00    +0.000 NA
ATOM     31  C   UNL     1      -1.425   9.876  17.446  0.00  0.00    +0.000 A 
ATOM     32  N   UNL     1      -2.265  10.662  18.139  0.00  0.00    +0.000 NA
ATOM     33  C   UNL     1      -1.641  11.272  19.160  0.00  0.00    +0.000 A 
ENDBRANCH  23  29
ENDBRANCH   1  23
TORSDOF 4
ENDMDL
MODEL 5
REMARK VINA RESULT:      -9.0      4.016      6.810
REMARK  Name = 
REMARK  6 active torsions:
REMARK  status: ('A' for Active; 'I' for Inactive)
REMARK    1  A    between atoms: C_1  and  N_2
REMARK    2  A    between atoms: C_6  and  O_7
REMARK    3  A    between atoms: O_7  and  C_8
REMARK    4  A    between atoms: N_16  and  C_17
REMARK    5  A    between atoms: C_21  and  C_22
REMARK    6  A    between atoms: N_27  and  C_28
REMARK                            x       y       z     vdW  Elec       q    Type
REMARK                         _______ _______ _______ _____ _____    ______ ____
ROOT
ATOM      1  C   UNL     1      -0.265  12.352  19.121  0.00  0.00    +0.000 A 
ATOM      2  C   UNL     1      -0.967  12.395  20.328  0.00  0.00    +0.000 A 
ATOM      3  C   UNL     1      -0.785  11.416  21.306  0.00  0.00    +0.000 A 
ATOM      4  C   UNL     1       0.043  10.344  20.970  0.00  0.00    +0.000 A 
ATOM      5  C   UNL     1       0.618  10.201  19.723  0.00  0.00    +0.000 A 
ATOM      6  C   UNL     1       0.473  11.215  18.763  0.00  0.00    +0.000 A 
ATOM      7  N   UNL     1       1.304   9.021  19.643  0.00  0.00    +0.000 NA
ATOM      8  C   UNL     1       1.224   8.457  20.833  0.00  0.00    +0.000 A 
ATOM      9  N   UNL     1       1.763   7.273  21.212  0.00  0.00    +0.000 N 
ATOM     10  N   UNL     1       0.508   9.270  21.692  0.00  0.00    +0.000 N 
ATOM     11  C   UNL     1       0.236   9.116  23.099  0.00  0.00    +0.000 C 
ATOM     12  H   UNL     1       2.033   7.125  22.176  0.00  0.00    +0.000 HD
ENDROOT
BRANCH   9  13
ATOM     13  C   UNL     1       2.030   6.162  20.374  0.00  0.00    +0.000 A 
ATOM     14  C   UNL     1       1.171   5.053  20.416  0.00  0.00    +0.000 A 
ATOM     15  C   UNL     1       1.303   3.996  19.507  0.00  0.00    +0.000 A 
ATOM     16  C   UNL     1       2.294   4.035  18.529  0.00  0.00    +0.000 A 
ATOM     17  C   UNL     1       3.189   5.108  18.482  0.00  0.00    +0.000 A 
ATOM     18  C   UNL     1       3.069   6.140  19.432  0.00  0.00    +0.000 A 
BRANCH  17  19
ATOM     19  C   UNL     1       4.224   5.217  17.390  0.00  0.00    +0.000 C 
ATOM     20  F   UNL     1       5.501   5.043  17.837  0.00  0.00    +0.000 F 
ATOM     21  F   UNL     1       4.050   4.278  16.417  0.00  0.00    +0.000 F 
ATOM     22  F   UNL     1       4.216   6.421  16.757  0.00  0.00    +0.000 F 
ENDBRANCH  17  19
ENDBRANCH   9  13
BRANCH   1  23
ATOM     23  O   UNL     1      -0.253  13.385  18.215  0.00  0.00    +0.000 OA
BRANCH  23  29
ATOM     24  C   UNL     1       4.645  16.833  19.346  0.00  0.00    +0.000 C 
ATOM     25  N   UNL     1       3.711  15.796  18.985  0.00  0.00    +0.000 N 
ATOM     26  N   UNL     1       4.159  14.568  18.651  0.00  0.00    +0.000 NA
ATOM     27  C   UNL     1       3.036  13.906  18.355  0.00  0.00    +0.000 A 
ATOM     28  C   UNL     1       1.865  14.677  18.551  0.00  0.00    +0.000 A 
ATOM     29  C   UNL     1       0.470  14.541  18.504  0.00  0.00    +0.000 A 
ATOM     30  N   UNL     1      -0.302  15.630  18.737  0.00  0.00    +0.000 NA
ATOM     31  C   UNL     1       0.307  16.786  19.058  0.00  0.00    +0.000 A 
ATOM     32  N   UNL     1       1.622  17.017  19.202  0.00  0.00    +0.000 NA
ATOM     33  C   UNL     1       2.348  15.918  18.931  0.00  0.00    +0.000 A 
ENDBRANCH  23  29
ENDBRANCH   1  23
TORSDOF 4
ENDMDL
MODEL 6
REMARK VINA RESULT:      -8.9      4.977      9.768
REMARK  Name = 
REMARK  6 active torsions:
REMARK  status: ('A' for Active; 'I' for Inactive)
REMARK    1  A    between atoms: C_1  and  N_2
REMARK    2  A    between atoms: C_6  and  O_7
REMARK    3  A    between atoms: O_7  and  C_8
REMARK    4  A    between atoms: N_16  and  C_17
REMARK    5  A    between atoms: C_21  and  C_22
REMARK    6  A    between atoms: N_27  and  C_28
REMARK                            x       y       z     vdW  Elec       q    Type
REMARK                         _______ _______ _______ _____ _____    ______ ____
ROOT
ATOM      1  C   UNL     1       2.173   7.633  18.775  0.00  0.00    +0.000 A 
ATOM      2  C   UNL     1       1.960   7.375  20.131  0.00  0.00    +0.000 A 
ATOM      3  C   UNL     1       1.306   8.299  20.948  0.00  0.00    +0.000 A 
ATOM      4  C   UNL     1       0.980   9.526  20.368  0.00  0.00    +0.000 A 
ATOM      5  C   UNL     1       1.327   9.861  19.074  0.00  0.00    +0.000 A 
ATOM      6  C   UNL     1       1.938   8.908  18.243  0.00  0.00    +0.000 A 
ATOM      7  N   UNL     1       0.962  11.149  18.798  0.00  0.00    +0.000 NA
ATOM      8  C   UNL     1       0.338  11.602  19.867  0.00  0.00    +0.000 A 
ATOM      9  N   UNL     1      -0.199  12.834  20.037  0.00  0.00    +0.000 N 
ATOM     10  N   UNL     1       0.276  10.612  20.831  0.00  0.00    +0.000 N 
ATOM     11  C   UNL     1      -0.376  10.613  22.117  0.00  0.00    +0.000 C 
ATOM     12  H   UNL     1      -0.994  12.961  20.650  0.00  0.00    +0.000 HD
ENDROOT
BRANCH   9  13
ATOM     13  C   UNL     1       0.227  14.032  19.413  0.00  0.00    +0.000 A 
ATOM     14  C   UNL     1      -0.604  15.163  19.463  0.00  0.00    +0.000 A 
ATOM     15  C   UNL     1      -0.168  16.407  18.992  0.00  0.00    +0.000 A 
ATOM     16  C   UNL     1       1.116  16.547  18.472  0.00  0.00    +0.000 A 
ATOM     17  C   UNL     1       1.957  15.434  18.374  0.00  0.00    +0.000 A 
ATOM     18  C   UNL     1       1.486  14.182  18.811  0.00  0.00    +0.000 A 
BRANCH  17  19
ATOM     19  C   UNL     1       3.378  15.567  17.886  0.00  0.00    +0.000 C 
ATOM     20  F   UNL     1       4.102  16.492  18.580  0.00  0.00    +0.000 F 
ATOM     21  F   UNL     1       4.076  14.401  18.001  0.00  0.00    +0.000 F 
ATOM     22  F   UNL     1       3.468  15.931  16.579  0.00  0.00    +0.000 F 
ENDBRANCH  17  19
ENDBRANCH   9  13
BRANCH   1  23
ATOM     23  O   UNL     1       2.627   6.687  17.887  0.00  0.00    +0.000 OA
BRANCH  23  29
ATOM     24  C   UNL     1       4.820   1.621  20.474  0.00  0.00    +0.000 C 
ATOM     25  N   UNL     1       4.013   2.666  19.895  0.00  0.00    +0.000 N 
ATOM     26  N   UNL     1       2.666   2.573  19.922  0.00  0.00    +0.000 NA
ATOM     27  C   UNL     1       2.274   3.679  19.279  0.00  0.00    +0.000 A 
ATOM     28  C   UNL     1       3.352   4.511  18.891  0.00  0.00    +0.000 A 
ATOM     29  C   UNL     1       3.584   5.762  18.301  0.00  0.00    +0.000 A 
ATOM     30  N   UNL     1       4.861   6.150  18.070  0.00  0.00    +0.000 NA
ATOM     31  C   UNL     1       5.856   5.336  18.466  0.00  0.00    +0.000 A 
ATOM     32  N   UNL     1       5.758   4.156  19.100  0.00  0.00    +0.000 NA
ATOM     33  C   UNL     1       4.474   3.799  19.281  0.00  0.00    +0.000 A 
ENDBRANCH  23  29
ENDBRANCH   1  23
TORSDOF 4
ENDMDL
MODEL 7
REMARK VINA RESULT:      -8.9      5.719     11.261
REMARK  Name = 
REMARK  6 active torsions:
REMARK  status: ('A' for Active; 'I' for Inactive)
REMARK    1  A    between atoms: C_1  and  N_2
REMARK    2  A    between atoms: C_6  and  O_7
REMARK    3  A    between atoms: O_7  and  C_8
REMARK    4  A    between atoms: N_16  and  C_17
REMARK    5  A    between atoms: C_21  and  C_22
REMARK    6  A    between atoms: N_27  and  C_28
REMARK                            x       y       z     vdW  Elec       q    Type
REMARK                         _______ _______ _______ _____ _____    ______ ____
ROOT
ATOM      1  C   UNL     1       1.996   7.726  19.640  0.00  0.00    +0.000 A 
ATOM      2  C   UNL     1       2.233   8.368  18.422  0.00  0.00    +0.000 A 
ATOM      3  C   UNL     1       1.791   9.672  18.193  0.00  0.00    +0.000 A 
ATOM      4  C   UNL     1       1.012  10.252  19.196  0.00  0.00    +0.000 A 
ATOM      5  C   UNL     1       0.632   9.576  20.338  0.00  0.00    +0.000 A 
ATOM      6  C   UNL     1       1.123   8.284  20.584  0.00  0.00    +0.000 A 
ATOM      7  N   UNL     1      -0.196  10.351  21.102  0.00  0.00    +0.000 NA
ATOM      8  C   UNL     1      -0.287  11.518  20.494  0.00  0.00    +0.000 A 
ATOM      9  N   UNL     1      -1.003  12.594  20.899  0.00  0.00    +0.000 N 
ATOM     10  N   UNL     1       0.490  11.515  19.351  0.00  0.00    +0.000 N 
ATOM     11  C   UNL     1       0.770  12.580  18.420  0.00  0.00    +0.000 C 
ATOM     12  H   UNL     1      -0.697  13.527  20.655  0.00  0.00    +0.000 HD
ENDROOT
BRANCH   9  13
ATOM     13  C   UNL     1      -2.183  12.575  21.683  0.00  0.00    +0.000 A 
ATOM     14  C   UNL     1      -2.076  12.642  23.081  0.00  0.00    +0.000 A 
ATOM     15  C   UNL     1      -3.210  12.775  23.892  0.00  0.00    +0.000 A 
ATOM     16  C   UNL     1      -4.475  12.855  23.316  0.00  0.00    +0.000 A 
ATOM     17  C   UNL     1      -4.621  12.755  21.929  0.00  0.00    +0.000 A 
ATOM     18  C   UNL     1      -3.474  12.577  21.133  0.00  0.00    +0.000 A 
BRANCH  17  19
ATOM     19  C   UNL     1      -5.968  12.914  21.269  0.00  0.00    +0.000 C 
ATOM     20  F   UNL     1      -6.481  11.740  20.801  0.00  0.00    +0.000 F 
ATOM     21  F   UNL     1      -6.908  13.405  22.126  0.00  0.00    +0.000 F 
ATOM     22  F   UNL     1      -5.952  13.761  20.205  0.00  0.00    +0.000 F 
ENDBRANCH  17  19
ENDBRANCH   9  13
BRANCH   1  23
ATOM     23  O   UNL     1       2.575   6.530  19.990  0.00  0.00    +0.000 OA
BRANCH  23  29
ATOM     24  C   UNL     1       5.856   3.739  15.676  0.00  0.00    +0.000 C 
ATOM     25  N   UNL     1       5.366   4.544  16.767  0.00  0.00    +0.000 N 
ATOM     26  N   UNL     1       6.167   5.468  17.339  0.00  0.00    +0.000 NA
ATOM     27  C   UNL     1       5.399   5.977  18.308  0.00  0.00    +0.000 A 
ATOM     28  C   UNL     1       4.092   5.432  18.329  0.00  0.00    +0.000 A 
ATOM     29  C   UNL     1       2.872   5.597  18.999  0.00  0.00    +0.000 A 
ATOM     30  N   UNL     1       1.843   4.766  18.699  0.00  0.00    +0.000 NA
ATOM     31  C   UNL     1       2.024   3.852  17.729  0.00  0.00    +0.000 A 
ATOM     32  N   UNL     1       3.118   3.650  16.975  0.00  0.00    +0.000 NA
ATOM     33  C   UNL     1       4.119   4.474  17.329  0.00  0.00    +0.000 A 
ENDBRANCH  23  29
ENDBRANCH   1  23
TORSDOF 4
ENDMDL
MODEL 8
REMARK VINA RESULT:      -8.8      4.835      7.518
REMARK  Name = 
REMARK  6 active torsions:
REMARK  status: ('A' for Active; 'I' for Inactive)
REMARK    1  A    between atoms: C_1  and  N_2
REMARK    2  A    between atoms: C_6  and  O_7
REMARK    3  A    between atoms: O_7  and  C_8
REMARK    4  A    between atoms: N_16  and  C_17
REMARK    5  A    between atoms: C_21  and  C_22
REMARK    6  A    between atoms: N_27  and  C_28
REMARK                            x       y       z     vdW  Elec       q    Type
REMARK                         _______ _______ _______ _____ _____    ______ ____
ROOT
ATOM      1  C   UNL     1      -3.034  11.552  18.311  0.00  0.00    +0.000 A 
ATOM      2  C   UNL     1      -2.438  12.568  19.062  0.00  0.00    +0.000 A 
ATOM      3  C   UNL     1      -1.058  12.602  19.266  0.00  0.00    +0.000 A 
ATOM      4  C   UNL     1      -0.327  11.518  18.780  0.00  0.00    +0.000 A 
ATOM      5  C   UNL     1      -0.917  10.425  18.176  0.00  0.00    +0.000 A 
ATOM      6  C   UNL     1      -2.299  10.421  17.927  0.00  0.00    +0.000 A 
ATOM      7  N   UNL     1       0.022   9.477  17.878  0.00  0.00    +0.000 NA
ATOM      8  C   UNL     1       1.190   9.982  18.221  0.00  0.00    +0.000 A 
ATOM      9  N   UNL     1       2.402   9.389  18.101  0.00  0.00    +0.000 N 
ATOM     10  N   UNL     1       1.022  11.259  18.723  0.00  0.00    +0.000 N 
ATOM     11  C   UNL     1       2.006  12.225  19.143  0.00  0.00    +0.000 C 
ATOM     12  H   UNL     1       3.232   9.953  17.969  0.00  0.00    +0.000 HD
ENDROOT
BRANCH   9  13
ATOM     13  C   UNL     1       2.664   7.997  18.118  0.00  0.00    +0.000 A 
ATOM     14  C   UNL     1       3.680   7.482  17.295  0.00  0.00    +0.000 A 
ATOM     15  C   UNL     1       4.077   6.142  17.382  0.00  0.00    +0.000 A 
ATOM     16  C   UNL     1       3.472   5.292  18.305  0.00  0.00    +0.000 A 
ATOM     17  C   UNL     1       2.433   5.763  19.115  0.00  0.00    +0.000 A 
ATOM     18  C   UNL     1       2.017   7.101  18.982  0.00  0.00    +0.000 A 
BRANCH  17  19
ATOM     19  C   UNL     1       1.810   4.890  20.175  0.00  0.00    +0.000 C 
ATOM     20  F   UNL     1       2.711   4.426  21.090  0.00  0.00    +0.000 F 
ATOM     21  F   UNL     1       0.866   5.554  20.902  0.00  0.00    +0.000 F 
ATOM     22  F   UNL     1       1.192   3.788  19.673  0.00  0.00    +0.000 F 
ENDBRANCH  17  19
ENDBRANCH   9  13
BRANCH   1  23
ATOM     23  O   UNL     1      -4.349  11.577  17.912  0.00  0.00    +0.000 OA
BRANCH  23  29
ATOM     24  C   UNL     1      -7.915  12.268  22.807  0.00  0.00    +0.000 C 
ATOM     25  N   UNL     1      -6.994  12.418  21.708  0.00  0.00    +0.000 N 
ATOM     26  N   UNL     1      -6.261  13.545  21.590  0.00  0.00    +0.000 NA
ATOM     27  C   UNL     1      -5.568  13.339  20.465  0.00  0.00    +0.000 A 
ATOM     28  C   UNL     1      -5.803  12.066  19.890  0.00  0.00    +0.000 A 
ATOM     29  C   UNL     1      -5.349  11.267  18.831  0.00  0.00    +0.000 A 
ATOM     30  N   UNL     1      -5.932  10.061  18.625  0.00  0.00    +0.000 NA
ATOM     31  C   UNL     1      -6.888   9.660  19.483  0.00  0.00    +0.000 A 
ATOM     32  N   UNL     1      -7.350  10.304  20.567  0.00  0.00    +0.000 NA
ATOM     33  C   UNL     1      -6.765  11.505  20.713  0.00  0.00    +0.000 A 
ENDBRANCH  23  29
ENDBRANCH   1  23
TORSDOF 4
ENDMDL
MODEL 9
REMARK VINA RESULT:      -8.8      5.049      9.960
REMARK  Name = 
REMARK  6 active torsions:
REMARK  status: ('A' for Active; 'I' for Inactive)
REMARK    1  A    between atoms: C_1  and  N_2
REMARK    2  A    between atoms: C_6  and  O_7
REMARK    3  A    between atoms: O_7  and  C_8
REMARK    4  A    between atoms: N_16  and  C_17
REMARK    5  A    between atoms: C_21  and  C_22
REMARK    6  A    between atoms: N_27  and  C_28
REMARK                            x       y       z     vdW  Elec       q    Type
REMARK                         _______ _______ _______ _____ _____    ______ ____
ROOT
ATOM      1  C   UNL     1       2.407   7.792  18.438  0.00  0.00    +0.000 A 
ATOM      2  C   UNL     1       2.147   7.440  19.765  0.00  0.00    +0.000 A 
ATOM      3  C   UNL     1       1.418   8.281  20.606  0.00  0.00    +0.000 A 
ATOM      4  C   UNL     1       1.062   9.528  20.089  0.00  0.00    +0.000 A 
ATOM      5  C   UNL     1       1.448   9.959  18.835  0.00  0.00    +0.000 A 
ATOM      6  C   UNL     1       2.136   9.088  17.975  0.00  0.00    +0.000 A 
ATOM      7  N   UNL     1       1.037  11.245  18.622  0.00  0.00    +0.000 NA
ATOM      8  C   UNL     1       0.347  11.602  19.688  0.00  0.00    +0.000 A 
ATOM      9  N   UNL     1      -0.252  12.797  19.909  0.00  0.00    +0.000 N 
ATOM     10  N   UNL     1       0.289  10.551  20.585  0.00  0.00    +0.000 N 
ATOM     11  C   UNL     1      -0.416  10.442  21.838  0.00  0.00    +0.000 C 
ATOM     12  H   UNL     1      -1.078  12.850  20.491  0.00  0.00    +0.000 HD
ENDROOT
BRANCH   9  13
ATOM     13  C   UNL     1       0.146  14.049  19.380  0.00  0.00    +0.000 A 
ATOM     14  C   UNL     1      -0.731  15.142  19.477  0.00  0.00    +0.000 A 
ATOM     15  C   UNL     1      -0.330  16.431  19.105  0.00  0.00    +0.000 A 
ATOM     16  C   UNL     1       0.963  16.653  18.638  0.00  0.00    +0.000 A 
ATOM     17  C   UNL     1       1.850  15.581  18.494  0.00  0.00    +0.000 A 
ATOM     18  C   UNL     1       1.415  14.286  18.831  0.00  0.00    +0.000 A 
BRANCH  17  19
ATOM     19  C   UNL     1       3.279  15.800  18.063  0.00  0.00    +0.000 C 
ATOM     20  F   UNL     1       3.418  15.950  16.714  0.00  0.00    +0.000 F 
ATOM     21  F   UNL     1       3.817  16.926  18.610  0.00  0.00    +0.000 F 
ATOM     22  F   UNL     1       4.109  14.779  18.409  0.00  0.00    +0.000 F 
ENDBRANCH  17  19
ENDBRANCH   9  13
BRANCH   1  23
ATOM     23  O   UNL     1       2.941   6.925  17.515  0.00  0.00    +0.000 OA
BRANCH  23  29
ATOM     24  C   UNL     1       3.834   1.031  18.791  0.00  0.00    +0.000 C 
ATOM     25  N   UNL     1       3.360   2.312  18.329  0.00  0.00    +0.000 N 
ATOM     26  N   UNL     1       2.168   2.405  17.703  0.00  0.00    +0.000 NA
ATOM     27  C   UNL     1       2.086   3.705  17.400  0.00  0.00    +0.000 A 
ATOM     28  C   UNL     1       3.185   4.460  17.877  0.00  0.00    +0.000 A 
ATOM     29  C   UNL     1       3.620   5.790  17.955  0.00  0.00    +0.000 A 
ATOM     30  N   UNL     1       4.838   6.051  18.490  0.00  0.00    +0.000 NA
ATOM     31  C   UNL     1       5.555   5.020  18.974  0.00  0.00    +0.000 A 
ATOM     32  N   UNL     1       5.213   3.722  19.017  0.00  0.00    +0.000 NA
ATOM     33  C   UNL     1       4.014   3.509  18.450  0.00  0.00    +0.000 A 
ENDBRANCH  23  29
ENDBRANCH   1  23
TORSDOF 4
ENDMDL
