MODEL 1
REMARK VINA RESULT:      -7.0      0.000      0.000
REMARK  Name = 
REMARK  12 active torsions:
REMARK  status: ('A' for Active; 'I' for Inactive)
REMARK    1  A    between atoms: C_1  and  C_2
REMARK    2  A    between atoms: C_2  and  O_3
REMARK    3  A    between atoms: O_3  and  C_4
REMARK    4  A    between atoms: C_4  and  C_6
REMARK    5  A    between atoms: N_10  and  C_11
REMARK    6  A    between atoms: C_11  and  C_12
REMARK    7  A    between atoms: C_17  and  N_18
REMARK    8  A    between atoms: N_25  and  C_26
REMARK    9  A    between atoms: C_29  and  O_30
REMARK   10  A    between atoms: O_30  and  C_31
REMARK   11  A    between atoms: C_33  and  O_34
REMARK   12  A    between atoms: O_34  and  C_35
REMARK                            x       y       z     vdW  Elec       q    Type
REMARK                         _______ _______ _______ _____ _____    ______ ____
ROOT
ATOM      1  C   UNL     1       3.686   6.145  19.274  0.00  0.00    +0.000 A 
ATOM      2  N   UNL     1       2.749   6.453  20.128  0.00  0.00    +0.000 NA
ATOM      3  C   UNL     1       1.988   7.609  19.927  0.00  0.00    +0.000 A 
ATOM      4  C   UNL     1       1.119   8.052  20.926  0.00  0.00    +0.000 A 
ATOM      5  C   UNL     1       0.432   9.267  20.794  0.00  0.00    +0.000 A 
ATOM      6  C   UNL     1       0.608  10.047  19.641  0.00  0.00    +0.000 A 
ATOM      7  C   UNL     1       1.436   9.602  18.615  0.00  0.00    +0.000 A 
ATOM      8  C   UNL     1       2.113   8.386  18.780  0.00  0.00    +0.000 A 
ATOM      9  C   UNL     1       3.028   7.915  17.749  0.00  0.00    +0.000 A 
ATOM     10  O   UNL     1       2.981   8.469  16.652  0.00  0.00    +0.000 OA
ATOM     11  N   UNL     1       3.873   6.855  18.091  0.00  0.00    +0.000 N 
ENDROOT
BRANCH  11  12
ATOM     12  C   UNL     1       4.898   6.602  17.136  0.00  0.00    +0.000 A 
ATOM     13  C   UNL     1       4.593   5.642  16.150  0.00  0.00    +0.000 A 
ATOM     14  C   UNL     1       5.572   5.146  15.298  0.00  0.00    +0.000 A 
ATOM     15  C   UNL     1       6.882   5.600  15.401  0.00  0.00    +0.000 A 
ATOM     16  C   UNL     1       7.188   6.599  16.331  0.00  0.00    +0.000 A 
ATOM     17  C   UNL     1       6.210   7.095  17.215  0.00  0.00    +0.000 A 
BRANCH  15  18
ATOM     18  O   UNL     1       7.751   4.982  14.548  0.00  0.00    +0.000 OA
ATOM     19  C   UNL     1       7.377   4.910  13.181  0.00  0.00    +0.000 C 
ENDBRANCH  15  18
BRANCH  17  20
ATOM     20  O   UNL     1       6.660   8.079  18.054  0.00  0.00    +0.000 OA
ATOM     21  C   UNL     1       7.933   8.641  17.752  0.00  0.00    +0.000 C 
ENDBRANCH  17  20
ENDBRANCH  11  12
BRANCH   6  22
ATOM     22  N   UNL     1      -0.047  11.356  19.522  0.00  0.00    +0.000 N 
ATOM     23  O   UNL     1       0.487  12.198  18.788  0.00  0.00    +0.000 OA
ATOM     24  O   UNL     1      -1.094  11.537  20.158  0.00  0.00    +0.000 OA
ENDBRANCH   6  22
BRANCH   1  25
ATOM     25  C   UNL     1       4.641   4.987  19.643  0.00  0.00    +0.000 C 
BRANCH  25  30
ATOM     26  C   UNL     1       2.617   2.218  17.964  0.00  0.00    +0.000 C 
ATOM     27  C   UNL     1       3.586   1.058  18.201  0.00  0.00    +0.000 C 
ATOM     28  C   UNL     1       4.272   1.187  19.555  0.00  0.00    +0.000 C 
ATOM     29  C   UNL     1       4.919   2.560  19.729  0.00  0.00    +0.000 C 
ATOM     30  N   UNL     1       3.969   3.662  19.521  0.00  0.00    +0.000 NA
ATOM     31  C   UNL     1       3.310   3.563  18.203  0.00  0.00    +0.000 C 
BRANCH  26  32
ATOM     32  C   UNL     1       1.340   2.052  18.774  0.00  0.00    +0.000 C 
ATOM     33  O   UNL     1       0.208   2.209  18.336  0.00  0.00    +0.000 OA
BRANCH  32  34
ATOM     34  O   UNL     1       1.642   1.896  20.095  0.00  0.00    +0.000 OA
BRANCH  34  36
ATOM     35  C   UNL     1       2.053   3.201  22.058  0.00  0.00    +0.000 C 
ATOM     36  C   UNL     1       1.049   2.868  20.968  0.00  0.00    +0.000 C 
ENDBRANCH  34  36
ENDBRANCH  32  34
ENDBRANCH  26  32
ENDBRANCH  25  30
ENDBRANCH   1  25
TORSDOF 9
ENDMDL
MODEL 2
REMARK VINA RESULT:      -6.9      4.187     10.620
REMARK  Name = 
REMARK  12 active torsions:
REMARK  status: ('A' for Active; 'I' for Inactive)
REMARK    1  A    between atoms: C_1  and  C_2
REMARK    2  A    between atoms: C_2  and  O_3
REMARK    3  A    between atoms: O_3  and  C_4
REMARK    4  A    between atoms: C_4  and  C_6
REMARK    5  A    between atoms: N_10  and  C_11
REMARK    6  A    between atoms: C_11  and  C_12
REMARK    7  A    between atoms: C_17  and  N_18
REMARK    8  A    between atoms: N_25  and  C_26
REMARK    9  A    between atoms: C_29  and  O_30
REMARK   10  A    between atoms: O_30  and  C_31
REMARK   11  A    between atoms: C_33  and  O_34
REMARK   12  A    between atoms: O_34  and  C_35
REMARK                            x       y       z     vdW  Elec       q    Type
REMARK                         _______ _______ _______ _____ _____    ______ ____
ROOT
ATOM      1  C   UNL     1       0.348  11.566  18.807  0.00  0.00    +0.000 A 
ATOM      2  N   UNL     1       1.106  10.812  18.060  0.00  0.00    +0.000 NA
ATOM      3  C   UNL     1       1.469   9.540  18.511  0.00  0.00    +0.000 A 
ATOM      4  C   UNL     1       2.430   8.804  17.816  0.00  0.00    +0.000 A 
ATOM      5  C   UNL     1       2.892   7.575  18.311  0.00  0.00    +0.000 A 
ATOM      6  C   UNL     1       2.379   7.071  19.516  0.00  0.00    +0.000 A 
ATOM      7  C   UNL     1       1.389   7.769  20.201  0.00  0.00    +0.000 A 
ATOM      8  C   UNL     1       0.953   8.996  19.682  0.00  0.00    +0.000 A 
ATOM      9  C   UNL     1      -0.044   9.778  20.401  0.00  0.00    +0.000 A 
ATOM     10  O   UNL     1      -0.662   9.218  21.305  0.00  0.00    +0.000 OA
ATOM     11  N   UNL     1      -0.228  11.101  19.986  0.00  0.00    +0.000 N 
ENDROOT
BRANCH  11  12
ATOM     12  C   UNL     1      -1.030  11.877  20.870  0.00  0.00    +0.000 A 
ATOM     13  C   UNL     1      -0.454  12.165  22.124  0.00  0.00    +0.000 A 
ATOM     14  C   UNL     1      -1.206  12.721  23.153  0.00  0.00    +0.000 A 
ATOM     15  C   UNL     1      -2.551  13.010  22.956  0.00  0.00    +0.000 A 
ATOM     16  C   UNL     1      -3.121  12.789  21.699  0.00  0.00    +0.000 A 
ATOM     17  C   UNL     1      -2.376  12.207  20.654  0.00  0.00    +0.000 A 
BRANCH  15  18
ATOM     18  O   UNL     1      -3.183  13.490  24.068  0.00  0.00    +0.000 OA
ATOM     19  C   UNL     1      -4.196  12.677  24.640  0.00  0.00    +0.000 C 
ENDBRANCH  15  18
BRANCH  17  20
ATOM     20  O   UNL     1      -3.070  12.069  19.480  0.00  0.00    +0.000 OA
ATOM     21  C   UNL     1      -4.473  12.305  19.538  0.00  0.00    +0.000 C 
ENDBRANCH  17  20
ENDBRANCH  11  12
BRANCH   6  22
ATOM     22  N   UNL     1       2.906   5.824  20.084  0.00  0.00    +0.000 N 
ATOM     23  O   UNL     1       2.180   5.202  20.870  0.00  0.00    +0.000 OA
ATOM     24  O   UNL     1       4.042   5.468  19.741  0.00  0.00    +0.000 OA
ENDBRANCH   6  22
BRANCH   1  25
ATOM     25  C   UNL     1       0.148  13.037  18.374  0.00  0.00    +0.000 C 
BRANCH  25  30
ATOM     26  C   UNL     1       3.403  14.735  19.426  0.00  0.00    +0.000 C 
ATOM     27  C   UNL     1       2.940  16.189  19.321  0.00  0.00    +0.000 C 
ATOM     28  C   UNL     1       1.489  16.333  19.761  0.00  0.00    +0.000 C 
ATOM     29  C   UNL     1       0.578  15.355  19.021  0.00  0.00    +0.000 C 
ATOM     30  N   UNL     1       1.024  13.960  19.150  0.00  0.00    +0.000 NA
ATOM     31  C   UNL     1       2.424  13.800  18.709  0.00  0.00    +0.000 C 
BRANCH  26  32
ATOM     32  C   UNL     1       3.663  14.334  20.870  0.00  0.00    +0.000 C 
ATOM     33  O   UNL     1       3.117  13.403  21.447  0.00  0.00    +0.000 OA
BRANCH  32  34
ATOM     34  O   UNL     1       4.441  15.274  21.482  0.00  0.00    +0.000 OA
BRANCH  34  36
ATOM     35  C   UNL     1       3.283  16.599  23.103  0.00  0.00    +0.000 C 
ATOM     36  C   UNL     1       4.214  15.418  22.892  0.00  0.00    +0.000 C 
ENDBRANCH  34  36
ENDBRANCH  32  34
ENDBRANCH  26  32
ENDBRANCH  25  30
ENDBRANCH   1  25
TORSDOF 9
ENDMDL
MODEL 3
REMARK VINA RESULT:      -6.8      8.616     11.217
REMARK  Name = 
REMARK  12 active torsions:
REMARK  status: ('A' for Active; 'I' for Inactive)
REMARK    1  A    between atoms: C_1  and  C_2
REMARK    2  A    between atoms: C_2  and  O_3
REMARK    3  A    between atoms: O_3  and  C_4
REMARK    4  A    between atoms: C_4  and  C_6
REMARK    5  A    between atoms: N_10  and  C_11
REMARK    6  A    between atoms: C_11  and  C_12
REMARK    7  A    between atoms: C_17  and  N_18
REMARK    8  A    between atoms: N_25  and  C_26
REMARK    9  A    between atoms: C_29  and  O_30
REMARK   10  A    between atoms: O_30  and  C_31
REMARK   11  A    between atoms: C_33  and  O_34
REMARK   12  A    between atoms: O_34  and  C_35
REMARK                            x       y       z     vdW  Elec       q    Type
REMARK                         _______ _______ _______ _____ _____    ______ ____
ROOT
ATOM      1  C   UNL     1       7.585  14.029  21.661  0.00  0.00    +0.000 A 
ATOM      2  N   UNL     1       7.315  14.624  20.532  0.00  0.00    +0.000 NA
ATOM      3  C   UNL     1       5.993  14.971  20.237  0.00  0.00    +0.000 A 
ATOM      4  C   UNL     1       5.663  15.429  18.960  0.00  0.00    +0.000 A 
ATOM      5  C   UNL     1       4.328  15.675  18.608  0.00  0.00    +0.000 A 
ATOM      6  C   UNL     1       3.308  15.468  19.548  0.00  0.00    +0.000 A 
ATOM      7  C   UNL     1       3.620  15.053  20.840  0.00  0.00    +0.000 A 
ATOM      8  C   UNL     1       4.963  14.811  21.158  0.00  0.00    +0.000 A 
ATOM      9  C   UNL     1       5.321  14.326  22.485  0.00  0.00    +0.000 A 
ATOM     10  O   UNL     1       4.463  14.391  23.364  0.00  0.00    +0.000 OA
ATOM     11  N   UNL     1       6.623  13.843  22.650  0.00  0.00    +0.000 N 
ENDROOT
BRANCH  11  12
ATOM     12  C   UNL     1       6.835  13.167  23.885  0.00  0.00    +0.000 A 
ATOM     13  C   UNL     1       6.333  11.853  23.958  0.00  0.00    +0.000 A 
ATOM     14  C   UNL     1       6.279  11.166  25.165  0.00  0.00    +0.000 A 
ATOM     15  C   UNL     1       6.731  11.771  26.332  0.00  0.00    +0.000 A 
ATOM     16  C   UNL     1       7.291  13.050  26.267  0.00  0.00    +0.000 A 
ATOM     17  C   UNL     1       7.333  13.765  25.053  0.00  0.00    +0.000 A 
BRANCH  15  18
ATOM     18  O   UNL     1       6.558  11.010  27.453  0.00  0.00    +0.000 OA
ATOM     19  C   UNL     1       5.313  10.345  27.601  0.00  0.00    +0.000 C 
ENDBRANCH  15  18
BRANCH  17  20
ATOM     20  O   UNL     1       7.924  14.997  25.148  0.00  0.00    +0.000 OA
ATOM     21  C   UNL     1       7.566  15.791  26.275  0.00  0.00    +0.000 C 
ENDBRANCH  17  20
ENDBRANCH  11  12
BRANCH   6  22
ATOM     22  N   UNL     1       1.900  15.649  19.170  0.00  0.00    +0.000 N 
ATOM     23  O   UNL     1       1.385  16.751  19.399  0.00  0.00    +0.000 OA
ATOM     24  O   UNL     1       1.316  14.692  18.644  0.00  0.00    +0.000 OA
ENDBRANCH   6  22
BRANCH   1  25
ATOM     25  C   UNL     1       9.014  13.472  21.855  0.00  0.00    +0.000 C 
BRANCH  25  30
ATOM     26  C   UNL     1      11.621  13.151  19.081  0.00  0.00    +0.000 C 
ATOM     27  C   UNL     1      11.687  11.624  19.013  0.00  0.00    +0.000 C 
ATOM     28  C   UNL     1      10.312  11.008  19.242  0.00  0.00    +0.000 C 
ATOM     29  C   UNL     1       9.670  11.527  20.527  0.00  0.00    +0.000 C 
ATOM     30  N   UNL     1       9.594  12.994  20.567  0.00  0.00    +0.000 NA
ATOM     31  C   UNL     1      10.923  13.607  20.366  0.00  0.00    +0.000 C 
BRANCH  26  32
ATOM     32  C   UNL     1      11.002  13.740  17.824  0.00  0.00    +0.000 C 
ATOM     33  O   UNL     1      10.928  13.166  16.745  0.00  0.00    +0.000 OA
BRANCH  32  34
ATOM     34  O   UNL     1      10.719  15.061  18.017  0.00  0.00    +0.000 OA
BRANCH  34  36
ATOM     35  C   UNL     1      10.996  17.338  17.339  0.00  0.00    +0.000 C 
ATOM     36  C   UNL     1      11.653  15.971  17.419  0.00  0.00    +0.000 C 
ENDBRANCH  34  36
ENDBRANCH  32  34
ENDBRANCH  26  32
ENDBRANCH  25  30
ENDBRANCH   1  25
TORSDOF 9
ENDMDL
MODEL 4
REMARK VINA RESULT:      -6.7      4.484     11.123
REMARK  Name = 
REMARK  12 active torsions:
REMARK  status: ('A' for Active; 'I' for Inactive)
REMARK    1  A    between atoms: C_1  and  C_2
REMARK    2  A    between atoms: C_2  and  O_3
REMARK    3  A    between atoms: O_3  and  C_4
REMARK    4  A    between atoms: C_4  and  C_6
REMARK    5  A    between atoms: N_10  and  C_11
REMARK    6  A    between atoms: C_11  and  C_12
REMARK    7  A    between atoms: C_17  and  N_18
REMARK    8  A    between atoms: N_25  and  C_26
REMARK    9  A    between atoms: C_29  and  O_30
REMARK   10  A    between atoms: O_30  and  C_31
REMARK   11  A    between atoms: C_33  and  O_34
REMARK   12  A    between atoms: O_34  and  C_35
REMARK                            x       y       z     vdW  Elec       q    Type
REMARK                         _______ _______ _______ _____ _____    ______ ____
ROOT
ATOM      1  C   UNL     1       0.069  11.787  18.788  0.00  0.00    +0.000 A 
ATOM      2  N   UNL     1       0.782  11.019  18.012  0.00  0.00    +0.000 NA
ATOM      3  C   UNL     1       1.193   9.765  18.476  0.00  0.00    +0.000 A 
ATOM      4  C   UNL     1       2.112   9.018  17.736  0.00  0.00    +0.000 A 
ATOM      5  C   UNL     1       2.625   7.812  18.235  0.00  0.00    +0.000 A 
ATOM      6  C   UNL     1       2.207   7.341  19.489  0.00  0.00    +0.000 A 
ATOM      7  C   UNL     1       1.259   8.050  20.222  0.00  0.00    +0.000 A 
ATOM      8  C   UNL     1       0.771   9.254  19.698  0.00  0.00    +0.000 A 
ATOM      9  C   UNL     1      -0.183  10.048  20.462  0.00  0.00    +0.000 A 
ATOM     10  O   UNL     1      -0.725   9.510  21.426  0.00  0.00    +0.000 OA
ATOM     11  N   UNL     1      -0.413  11.354  20.020  0.00  0.00    +0.000 N 
ENDROOT
BRANCH  11  12
ATOM     12  C   UNL     1      -1.160  12.149  20.935  0.00  0.00    +0.000 A 
ATOM     13  C   UNL     1      -0.489  12.510  22.121  0.00  0.00    +0.000 A 
ATOM     14  C   UNL     1      -1.167  13.093  23.185  0.00  0.00    +0.000 A 
ATOM     15  C   UNL     1      -2.531  13.338  23.093  0.00  0.00    +0.000 A 
ATOM     16  C   UNL     1      -3.200  13.045  21.900  0.00  0.00    +0.000 A 
ATOM     17  C   UNL     1      -2.529  12.435  20.821  0.00  0.00    +0.000 A 
BRANCH  15  18
ATOM     18  O   UNL     1      -3.081  13.853  24.233  0.00  0.00    +0.000 OA
ATOM     19  C   UNL     1      -2.532  15.065  24.726  0.00  0.00    +0.000 C 
ENDBRANCH  15  18
BRANCH  17  20
ATOM     20  O   UNL     1      -3.315  12.225  19.719  0.00  0.00    +0.000 OA
ATOM     21  C   UNL     1      -4.676  12.632  19.820  0.00  0.00    +0.000 C 
ENDBRANCH  17  20
ENDBRANCH  11  12
BRANCH   6  22
ATOM     22  N   UNL     1       2.791   6.119  20.057  0.00  0.00    +0.000 N 
ATOM     23  O   UNL     1       3.907   5.776  19.647  0.00  0.00    +0.000 OA
ATOM     24  O   UNL     1       2.135   5.510  20.913  0.00  0.00    +0.000 OA
ENDBRANCH   6  22
BRANCH   1  25
ATOM     25  C   UNL     1      -0.182  13.241  18.325  0.00  0.00    +0.000 C 
BRANCH  25  30
ATOM     26  C   UNL     1       1.692  16.141  19.958  0.00  0.00    +0.000 C 
ATOM     27  C   UNL     1       2.877  15.353  20.520  0.00  0.00    +0.000 C 
ATOM     28  C   UNL     1       3.289  14.236  19.569  0.00  0.00    +0.000 C 
ATOM     29  C   UNL     1       2.102  13.352  19.191  0.00  0.00    +0.000 C 
ATOM     30  N   UNL     1       0.980  14.122  18.633  0.00  0.00    +0.000 NA
ATOM     31  C   UNL     1       0.555  15.197  19.551  0.00  0.00    +0.000 C 
BRANCH  26  32
ATOM     32  C   UNL     1       2.122  17.075  18.838  0.00  0.00    +0.000 C 
ATOM     33  O   UNL     1       3.250  17.126  18.365  0.00  0.00    +0.000 OA
BRANCH  32  34
ATOM     34  O   UNL     1       1.131  17.974  18.572  0.00  0.00    +0.000 OA
BRANCH  34  36
ATOM     35  C   UNL     1      -0.334  18.261  16.703  0.00  0.00    +0.000 C 
ATOM     36  C   UNL     1       1.085  18.436  17.214  0.00  0.00    +0.000 C 
ENDBRANCH  34  36
ENDBRANCH  32  34
ENDBRANCH  26  32
ENDBRANCH  25  30
ENDBRANCH   1  25
TORSDOF 9
ENDMDL
MODEL 5
REMARK VINA RESULT:      -6.7      7.371     10.344
REMARK  Name = 
REMARK  12 active torsions:
REMARK  status: ('A' for Active; 'I' for Inactive)
REMARK    1  A    between atoms: C_1  and  C_2
REMARK    2  A    between atoms: C_2  and  O_3
REMARK    3  A    between atoms: O_3  and  C_4
REMARK    4  A    between atoms: C_4  and  C_6
REMARK    5  A    between atoms: N_10  and  C_11
REMARK    6  A    between atoms: C_11  and  C_12
REMARK    7  A    between atoms: C_17  and  N_18
REMARK    8  A    between atoms: N_25  and  C_26
REMARK    9  A    between atoms: C_29  and  O_30
REMARK   10  A    between atoms: O_30  and  C_31
REMARK   11  A    between atoms: C_33  and  O_34
REMARK   12  A    between atoms: O_34  and  C_35
REMARK                            x       y       z     vdW  Elec       q    Type
REMARK                         _______ _______ _______ _____ _____    ______ ____
ROOT
ATOM      1  C   UNL     1       0.111  11.482  19.744  0.00  0.00    +0.000 A 
ATOM      2  N   UNL     1       1.116  11.738  18.954  0.00  0.00    +0.000 NA
ATOM      3  C   UNL     1       1.671  13.022  18.940  0.00  0.00    +0.000 A 
ATOM      4  C   UNL     1       2.614  13.361  17.968  0.00  0.00    +0.000 A 
ATOM      5  C   UNL     1       3.099  14.673  17.864  0.00  0.00    +0.000 A 
ATOM      6  C   UNL     1       2.641  15.659  18.752  0.00  0.00    +0.000 A 
ATOM      7  C   UNL     1       1.735  15.330  19.755  0.00  0.00    +0.000 A 
ATOM      8  C   UNL     1       1.265  14.012  19.828  0.00  0.00    +0.000 A 
ATOM      9  C   UNL     1       0.276  13.645  20.833  0.00  0.00    +0.000 A 
ATOM     10  O   UNL     1       0.077  14.440  21.751  0.00  0.00    +0.000 OA
ATOM     11  N   UNL     1      -0.352  12.405  20.677  0.00  0.00    +0.000 N 
ENDROOT
BRANCH  11  12
ATOM     12  C   UNL     1      -1.467  12.211  21.541  0.00  0.00    +0.000 A 
ATOM     13  C   UNL     1      -2.668  12.829  21.138  0.00  0.00    +0.000 A 
ATOM     14  C   UNL     1      -3.764  12.902  21.990  0.00  0.00    +0.000 A 
ATOM     15  C   UNL     1      -3.693  12.354  23.265  0.00  0.00    +0.000 A 
ATOM     16  C   UNL     1      -2.532  11.682  23.657  0.00  0.00    +0.000 A 
ATOM     17  C   UNL     1      -1.407  11.619  22.811  0.00  0.00    +0.000 A 
BRANCH  15  18
ATOM     18  O   UNL     1      -4.816  12.555  24.017  0.00  0.00    +0.000 OA
ATOM     19  C   UNL     1      -5.869  13.300  23.425  0.00  0.00    +0.000 C 
ENDBRANCH  15  18
BRANCH  17  20
ATOM     20  O   UNL     1      -0.353  10.913  23.331  0.00  0.00    +0.000 OA
ATOM     21  C   UNL     1      -0.390   9.499  23.166  0.00  0.00    +0.000 C 
ENDBRANCH  17  20
ENDBRANCH  11  12
BRANCH   6  22
ATOM     22  N   UNL     1       3.084  17.052  18.608  0.00  0.00    +0.000 N 
ATOM     23  O   UNL     1       2.209  17.920  18.493  0.00  0.00    +0.000 OA
ATOM     24  O   UNL     1       4.302  17.274  18.615  0.00  0.00    +0.000 OA
ENDBRANCH   6  22
BRANCH   1  25
ATOM     25  C   UNL     1      -0.608  10.124  19.574  0.00  0.00    +0.000 C 
BRANCH  25  30
ATOM     26  C   UNL     1      -3.188  11.832  17.335  0.00  0.00    +0.000 C 
ATOM     27  C   UNL     1      -2.855  11.117  16.024  0.00  0.00    +0.000 C 
ATOM     28  C   UNL     1      -2.478   9.663  16.276  0.00  0.00    +0.000 C 
ATOM     29  C   UNL     1      -1.376   9.541  17.328  0.00  0.00    +0.000 C 
ATOM     30  N   UNL     1      -1.722  10.214  18.588  0.00  0.00    +0.000 NA
ATOM     31  C   UNL     1      -2.071  11.631  18.364  0.00  0.00    +0.000 C 
BRANCH  26  32
ATOM     32  C   UNL     1      -4.559  11.430  17.856  0.00  0.00    +0.000 C 
ATOM     33  O   UNL     1      -4.940  10.277  18.008  0.00  0.00    +0.000 OA
BRANCH  32  34
ATOM     34  O   UNL     1      -5.365  12.528  17.946  0.00  0.00    +0.000 OA
BRANCH  34  36
ATOM     35  C   UNL     1      -7.329  13.686  17.221  0.00  0.00    +0.000 C 
ATOM     36  C   UNL     1      -6.712  12.325  17.493  0.00  0.00    +0.000 C 
ENDBRANCH  34  36
ENDBRANCH  32  34
ENDBRANCH  26  32
ENDBRANCH  25  30
ENDBRANCH   1  25
TORSDOF 9
ENDMDL
MODEL 6
REMARK VINA RESULT:      -6.7      5.570     10.805
REMARK  Name = 
REMARK  12 active torsions:
REMARK  status: ('A' for Active; 'I' for Inactive)
REMARK    1  A    between atoms: C_1  and  C_2
REMARK    2  A    between atoms: C_2  and  O_3
REMARK    3  A    between atoms: O_3  and  C_4
REMARK    4  A    between atoms: C_4  and  C_6
REMARK    5  A    between atoms: N_10  and  C_11
REMARK    6  A    between atoms: C_11  and  C_12
REMARK    7  A    between atoms: C_17  and  N_18
REMARK    8  A    between atoms: N_25  and  C_26
REMARK    9  A    between atoms: C_29  and  O_30
REMARK   10  A    between atoms: O_30  and  C_31
REMARK   11  A    between atoms: C_33  and  O_34
REMARK   12  A    between atoms: O_34  and  C_35
REMARK                            x       y       z     vdW  Elec       q    Type
REMARK                         _______ _______ _______ _____ _____    ______ ____
ROOT
ATOM      1  C   UNL     1      -0.971  12.795  22.547  0.00  0.00    +0.000 A 
ATOM      2  N   UNL     1      -1.013  11.562  22.971  0.00  0.00    +0.000 NA
ATOM      3  C   UNL     1      -0.255  10.585  22.319  0.00  0.00    +0.000 A 
ATOM      4  C   UNL     1      -0.436   9.237  22.636  0.00  0.00    +0.000 A 
ATOM      5  C   UNL     1       0.230   8.234  21.918  0.00  0.00    +0.000 A 
ATOM      6  C   UNL     1       1.096   8.582  20.871  0.00  0.00    +0.000 A 
ATOM      7  C   UNL     1       1.324   9.921  20.568  0.00  0.00    +0.000 A 
ATOM      8  C   UNL     1       0.639  10.900  21.301  0.00  0.00    +0.000 A 
ATOM      9  C   UNL     1       0.814  12.309  20.976  0.00  0.00    +0.000 A 
ATOM     10  O   UNL     1       1.752  12.611  20.240  0.00  0.00    +0.000 OA
ATOM     11  N   UNL     1      -0.096  13.205  21.547  0.00  0.00    +0.000 N 
ENDROOT
BRANCH  11  12
ATOM     12  C   UNL     1      -0.025  14.521  21.007  0.00  0.00    +0.000 A 
ATOM     13  C   UNL     1      -0.662  14.707  19.764  0.00  0.00    +0.000 A 
ATOM     14  C   UNL     1      -0.484  15.873  19.029  0.00  0.00    +0.000 A 
ATOM     15  C   UNL     1       0.331  16.888  19.517  0.00  0.00    +0.000 A 
ATOM     16  C   UNL     1       0.919  16.746  20.777  0.00  0.00    +0.000 A 
ATOM     17  C   UNL     1       0.764  15.561  21.524  0.00  0.00    +0.000 A 
BRANCH  15  18
ATOM     18  O   UNL     1       0.469  17.947  18.665  0.00  0.00    +0.000 OA
ATOM     19  C   UNL     1      -0.322  17.937  17.486  0.00  0.00    +0.000 C 
ENDBRANCH  15  18
BRANCH  17  20
ATOM     20  O   UNL     1       1.388  15.580  22.743  0.00  0.00    +0.000 OA
ATOM     21  C   UNL     1       1.838  16.849  23.208  0.00  0.00    +0.000 C 
ENDBRANCH  17  20
ENDBRANCH  11  12
BRANCH   6  22
ATOM     22  N   UNL     1       1.742   7.540  20.062  0.00  0.00    +0.000 N 
ATOM     23  O   UNL     1       2.180   7.868  18.952  0.00  0.00    +0.000 OA
ATOM     24  O   UNL     1       1.812   6.399  20.539  0.00  0.00    +0.000 OA
ENDBRANCH   6  22
BRANCH   1  25
ATOM     25  C   UNL     1      -1.981  13.796  23.153  0.00  0.00    +0.000 C 
BRANCH  25  30
ATOM     26  C   UNL     1      -5.654  13.297  22.230  0.00  0.00    +0.000 C 
ATOM     27  C   UNL     1      -6.003  14.751  21.908  0.00  0.00    +0.000 C 
ATOM     28  C   UNL     1      -4.834  15.456  21.231  0.00  0.00    +0.000 C 
ATOM     29  C   UNL     1      -3.545  15.309  22.038  0.00  0.00    +0.000 C 
ATOM     30  N   UNL     1      -3.212  13.905  22.320  0.00  0.00    +0.000 NA
ATOM     31  C   UNL     1      -4.329  13.212  22.994  0.00  0.00    +0.000 C 
BRANCH  26  32
ATOM     32  C   UNL     1      -5.681  12.427  20.983  0.00  0.00    +0.000 C 
ATOM     33  O   UNL     1      -5.226  12.751  19.894  0.00  0.00    +0.000 OA
BRANCH  32  34
ATOM     34  O   UNL     1      -6.451  11.322  21.201  0.00  0.00    +0.000 OA
BRANCH  34  36
ATOM     35  C   UNL     1      -7.078   9.588  19.676  0.00  0.00    +0.000 C 
ATOM     36  C   UNL     1      -7.365  11.005  20.140  0.00  0.00    +0.000 C 
ENDBRANCH  34  36
ENDBRANCH  32  34
ENDBRANCH  26  32
ENDBRANCH  25  30
ENDBRANCH   1  25
TORSDOF 9
ENDMDL
MODEL 7
REMARK VINA RESULT:      -6.7      4.410     10.930
REMARK  Name = 
REMARK  12 active torsions:
REMARK  status: ('A' for Active; 'I' for Inactive)
REMARK    1  A    between atoms: C_1  and  C_2
REMARK    2  A    between atoms: C_2  and  O_3
REMARK    3  A    between atoms: O_3  and  C_4
REMARK    4  A    between atoms: C_4  and  C_6
REMARK    5  A    between atoms: N_10  and  C_11
REMARK    6  A    between atoms: C_11  and  C_12
REMARK    7  A    between atoms: C_17  and  N_18
REMARK    8  A    between atoms: N_25  and  C_26
REMARK    9  A    between atoms: C_29  and  O_30
REMARK   10  A    between atoms: O_30  and  C_31
REMARK   11  A    between atoms: C_33  and  O_34
REMARK   12  A    between atoms: O_34  and  C_35
REMARK                            x       y       z     vdW  Elec       q    Type
REMARK                         _______ _______ _______ _____ _____    ______ ____
ROOT
ATOM      1  C   UNL     1       0.045  12.080  18.964  0.00  0.00    +0.000 A 
ATOM      2  N   UNL     1       0.734  11.313  18.164  0.00  0.00    +0.000 NA
ATOM      3  C   UNL     1       1.107  10.035  18.590  0.00  0.00    +0.000 A 
ATOM      4  C   UNL     1       2.002   9.282  17.827  0.00  0.00    +0.000 A 
ATOM      5  C   UNL     1       2.478   8.046  18.289  0.00  0.00    +0.000 A 
ATOM      6  C   UNL     1       2.047   7.552  19.529  0.00  0.00    +0.000 A 
ATOM      7  C   UNL     1       1.122   8.267  20.284  0.00  0.00    +0.000 A 
ATOM      8  C   UNL     1       0.670   9.500  19.797  0.00  0.00    +0.000 A 
ATOM      9  C   UNL     1      -0.259  10.300  20.585  0.00  0.00    +0.000 A 
ATOM     10  O   UNL     1      -0.817   9.750  21.534  0.00  0.00    +0.000 OA
ATOM     11  N   UNL     1      -0.450  11.625  20.182  0.00  0.00    +0.000 N 
ENDROOT
BRANCH  11  12
ATOM     12  C   UNL     1      -1.171  12.415  21.122  0.00  0.00    +0.000 A 
ATOM     13  C   UNL     1      -0.436  12.863  22.237  0.00  0.00    +0.000 A 
ATOM     14  C   UNL     1      -1.065  13.451  23.328  0.00  0.00    +0.000 A 
ATOM     15  C   UNL     1      -2.445  13.615  23.332  0.00  0.00    +0.000 A 
ATOM     16  C   UNL     1      -3.182  13.234  22.207  0.00  0.00    +0.000 A 
ATOM     17  C   UNL     1      -2.560  12.617  21.104  0.00  0.00    +0.000 A 
BRANCH  15  18
ATOM     18  O   UNL     1      -2.936  14.146  24.491  0.00  0.00    +0.000 OA
ATOM     19  C   UNL     1      -3.669  15.357  24.390  0.00  0.00    +0.000 C 
ENDBRANCH  15  18
BRANCH  17  20
ATOM     20  O   UNL     1      -3.413  12.317  20.075  0.00  0.00    +0.000 OA
ATOM     21  C   UNL     1      -4.798  12.555  20.305  0.00  0.00    +0.000 C 
ENDBRANCH  17  20
ENDBRANCH  11  12
BRANCH   6  22
ATOM     22  N   UNL     1       2.594   6.296  20.060  0.00  0.00    +0.000 N 
ATOM     23  O   UNL     1       3.700   5.932  19.640  0.00  0.00    +0.000 OA
ATOM     24  O   UNL     1       1.919   5.680  20.896  0.00  0.00    +0.000 OA
ENDBRANCH   6  22
BRANCH   1  25
ATOM     25  C   UNL     1      -0.162  13.553  18.544  0.00  0.00    +0.000 C 
BRANCH  25  30
ATOM     26  C   UNL     1       3.261  15.233  18.317  0.00  0.00    +0.000 C 
ATOM     27  C   UNL     1       2.822  16.673  18.591  0.00  0.00    +0.000 C 
ATOM     28  C   UNL     1       1.695  16.714  19.616  0.00  0.00    +0.000 C 
ATOM     29  C   UNL     1       0.540  15.796  19.219  0.00  0.00    +0.000 C 
ATOM     30  N   UNL     1       0.976  14.412  18.981  0.00  0.00    +0.000 NA
ATOM     31  C   UNL     1       2.055  14.353  17.975  0.00  0.00    +0.000 C 
BRANCH  26  32
ATOM     32  C   UNL     1       4.101  14.679  19.457  0.00  0.00    +0.000 C 
ATOM     33  O   UNL     1       3.650  14.188  20.484  0.00  0.00    +0.000 OA
BRANCH  32  34
ATOM     34  O   UNL     1       5.416  14.984  19.259  0.00  0.00    +0.000 OA
BRANCH  34  36
ATOM     35  C   UNL     1       7.360  15.134  17.873  0.00  0.00    +0.000 C 
ATOM     36  C   UNL     1       5.917  14.670  17.951  0.00  0.00    +0.000 C 
ENDBRANCH  34  36
ENDBRANCH  32  34
ENDBRANCH  26  32
ENDBRANCH  25  30
ENDBRANCH   1  25
TORSDOF 9
ENDMDL
MODEL 8
REMARK VINA RESULT:      -6.6      6.009      9.899
REMARK  Name = 
REMARK  12 active torsions:
REMARK  status: ('A' for Active; 'I' for Inactive)
REMARK    1  A    between atoms: C_1  and  C_2
REMARK    2  A    between atoms: C_2  and  O_3
REMARK    3  A    between atoms: O_3  and  C_4
REMARK    4  A    between atoms: C_4  and  C_6
REMARK    5  A    between atoms: N_10  and  C_11
REMARK    6  A    between atoms: C_11  and  C_12
REMARK    7  A    between atoms: C_17  and  N_18
REMARK    8  A    between atoms: N_25  and  C_26
REMARK    9  A    between atoms: C_29  and  O_30
REMARK   10  A    between atoms: O_30  and  C_31
REMARK   11  A    between atoms: C_33  and  O_34
REMARK   12  A    between atoms: O_34  and  C_35
REMARK                            x       y       z     vdW  Elec       q    Type
REMARK                         _______ _______ _______ _____ _____    ______ ____
ROOT
ATOM      1  C   UNL     1       1.112  12.735  20.923  0.00  0.00    +0.000 A 
ATOM      2  N   UNL     1       2.031  13.434  21.530  0.00  0.00    +0.000 NA
ATOM      3  C   UNL     1       3.048  14.032  20.779  0.00  0.00    +0.000 A 
ATOM      4  C   UNL     1       4.138  14.617  21.427  0.00  0.00    +0.000 A 
ATOM      5  C   UNL     1       5.223  15.121  20.696  0.00  0.00    +0.000 A 
ATOM      6  C   UNL     1       5.216  15.046  19.295  0.00  0.00    +0.000 A 
ATOM      7  C   UNL     1       4.119  14.507  18.629  0.00  0.00    +0.000 A 
ATOM      8  C   UNL     1       3.054  14.007  19.389  0.00  0.00    +0.000 A 
ATOM      9  C   UNL     1       1.913  13.387  18.726  0.00  0.00    +0.000 A 
ATOM     10  O   UNL     1       1.802  13.554  17.513  0.00  0.00    +0.000 OA
ATOM     11  N   UNL     1       1.029  12.667  19.535  0.00  0.00    +0.000 N 
ENDROOT
BRANCH  11  12
ATOM     12  C   UNL     1       0.082  11.892  18.806  0.00  0.00    +0.000 A 
ATOM     13  C   UNL     1      -1.130  12.542  18.495  0.00  0.00    +0.000 A 
ATOM     14  C   UNL     1      -2.215  11.839  17.985  0.00  0.00    +0.000 A 
ATOM     15  C   UNL     1      -2.119  10.470  17.765  0.00  0.00    +0.000 A 
ATOM     16  C   UNL     1      -0.904   9.822  18.009  0.00  0.00    +0.000 A 
ATOM     17  C   UNL     1       0.197  10.518  18.546  0.00  0.00    +0.000 A 
BRANCH  15  18
ATOM     18  O   UNL     1      -3.278   9.897  17.325  0.00  0.00    +0.000 OA
ATOM     19  C   UNL     1      -4.483  10.610  17.556  0.00  0.00    +0.000 C 
ENDBRANCH  15  18
BRANCH  17  20
ATOM     20  O   UNL     1       1.319   9.750  18.713  0.00  0.00    +0.000 OA
ATOM     21  C   UNL     1       1.342   8.896  19.852  0.00  0.00    +0.000 C 
ENDBRANCH  17  20
ENDBRANCH  11  12
BRANCH   6  22
ATOM     22  N   UNL     1       6.377  15.502  18.520  0.00  0.00    +0.000 N 
ATOM     23  O   UNL     1       6.735  14.804  17.563  0.00  0.00    +0.000 OA
ATOM     24  O   UNL     1       6.925  16.557  18.868  0.00  0.00    +0.000 OA
ENDBRANCH   6  22
BRANCH   1  25
ATOM     25  C   UNL     1       0.136  11.917  21.799  0.00  0.00    +0.000 C 
BRANCH  25  30
ATOM     26  C   UNL     1      -3.356  12.538  23.217  0.00  0.00    +0.000 C 
ATOM     27  C   UNL     1      -3.055  13.817  24.001  0.00  0.00    +0.000 C 
ATOM     28  C   UNL     1      -2.050  14.688  23.257  0.00  0.00    +0.000 C 
ATOM     29  C   UNL     1      -0.796  13.903  22.879  0.00  0.00    +0.000 C 
ATOM     30  N   UNL     1      -1.101  12.690  22.107  0.00  0.00    +0.000 NA
ATOM     31  C   UNL     1      -2.059  11.824  22.823  0.00  0.00    +0.000 C 
BRANCH  26  32
ATOM     32  C   UNL     1      -4.271  12.811  22.034  0.00  0.00    +0.000 C 
ATOM     33  O   UNL     1      -3.992  12.575  20.865  0.00  0.00    +0.000 OA
BRANCH  32  34
ATOM     34  O   UNL     1      -5.357  13.529  22.439  0.00  0.00    +0.000 OA
BRANCH  34  36
ATOM     35  C   UNL     1      -7.355  12.271  22.053  0.00  0.00    +0.000 C 
ATOM     36  C   UNL     1      -6.500  13.432  21.576  0.00  0.00    +0.000 C 
ENDBRANCH  34  36
ENDBRANCH  32  34
ENDBRANCH  26  32
ENDBRANCH  25  30
ENDBRANCH   1  25
TORSDOF 9
ENDMDL
MODEL 9
REMARK VINA RESULT:      -6.6      4.338     10.929
REMARK  Name = 
REMARK  12 active torsions:
REMARK  status: ('A' for Active; 'I' for Inactive)
REMARK    1  A    between atoms: C_1  and  C_2
REMARK    2  A    between atoms: C_2  and  O_3
REMARK    3  A    between atoms: O_3  and  C_4
REMARK    4  A    between atoms: C_4  and  C_6
REMARK    5  A    between atoms: N_10  and  C_11
REMARK    6  A    between atoms: C_11  and  C_12
REMARK    7  A    between atoms: C_17  and  N_18
REMARK    8  A    between atoms: N_25  and  C_26
REMARK    9  A    between atoms: C_29  and  O_30
REMARK   10  A    between atoms: O_30  and  C_31
REMARK   11  A    between atoms: C_33  and  O_34
REMARK   12  A    between atoms: O_34  and  C_35
REMARK                            x       y       z     vdW  Elec       q    Type
REMARK                         _______ _______ _______ _____ _____    ______ ____
ROOT
ATOM      1  C   UNL     1       0.260  11.513  18.874  0.00  0.00    +0.000 A 
ATOM      2  N   UNL     1       1.019  10.771  18.115  0.00  0.00    +0.000 NA
ATOM      3  C   UNL     1       1.405   9.503  18.560  0.00  0.00    +0.000 A 
ATOM      4  C   UNL     1       2.367   8.780  17.850  0.00  0.00    +0.000 A 
ATOM      5  C   UNL     1       2.852   7.558  18.338  0.00  0.00    +0.000 A 
ATOM      6  C   UNL     1       2.363   7.046  19.549  0.00  0.00    +0.000 A 
ATOM      7  C   UNL     1       1.373   7.729  20.248  0.00  0.00    +0.000 A 
ATOM      8  C   UNL     1       0.913   8.950  19.737  0.00  0.00    +0.000 A 
ATOM      9  C   UNL     1      -0.085   9.718  20.471  0.00  0.00    +0.000 A 
ATOM     10  O   UNL     1      -0.682   9.149  21.383  0.00  0.00    +0.000 OA
ATOM     11  N   UNL     1      -0.292  11.039  20.060  0.00  0.00    +0.000 N 
ENDROOT
BRANCH  11  12
ATOM     12  C   UNL     1      -1.092  11.803  20.957  0.00  0.00    +0.000 A 
ATOM     13  C   UNL     1      -0.644  11.844  22.292  0.00  0.00    +0.000 A 
ATOM     14  C   UNL     1      -1.441  12.366  23.305  0.00  0.00    +0.000 A 
ATOM     15  C   UNL     1      -2.703  12.867  23.010  0.00  0.00    +0.000 A 
ATOM     16  C   UNL     1      -3.137  12.892  21.681  0.00  0.00    +0.000 A 
ATOM     17  C   UNL     1      -2.348  12.347  20.649  0.00  0.00    +0.000 A 
BRANCH  15  18
ATOM     18  O   UNL     1      -3.402  13.288  24.107  0.00  0.00    +0.000 OA
ATOM     19  C   UNL     1      -4.357  12.390  24.650  0.00  0.00    +0.000 C 
ENDBRANCH  15  18
BRANCH  17  20
ATOM     20  O   UNL     1      -2.903  12.460  19.401  0.00  0.00    +0.000 OA
ATOM     21  C   UNL     1      -3.904  11.507  19.060  0.00  0.00    +0.000 C 
ENDBRANCH  17  20
ENDBRANCH  11  12
BRANCH   6  22
ATOM     22  N   UNL     1       2.915   5.805  20.108  0.00  0.00    +0.000 N 
ATOM     23  O   UNL     1       2.219   5.187  20.923  0.00  0.00    +0.000 OA
ATOM     24  O   UNL     1       4.040   5.451  19.729  0.00  0.00    +0.000 OA
ENDBRANCH   6  22
BRANCH   1  25
ATOM     25  C   UNL     1       0.034  12.981  18.446  0.00  0.00    +0.000 C 
BRANCH  25  30
ATOM     26  C   UNL     1       2.119  16.146  18.921  0.00  0.00    +0.000 C 
ATOM     27  C   UNL     1       2.957  15.685  20.114  0.00  0.00    +0.000 C 
ATOM     28  C   UNL     1       3.301  14.205  19.999  0.00  0.00    +0.000 C 
ATOM     29  C   UNL     1       2.054  13.353  19.773  0.00  0.00    +0.000 C 
ATOM     30  N   UNL     1       1.272  13.796  18.609  0.00  0.00    +0.000 NA
ATOM     31  C   UNL     1       0.913  15.224  18.714  0.00  0.00    +0.000 C 
BRANCH  26  32
ATOM     32  C   UNL     1       2.969  16.306  17.670  0.00  0.00    +0.000 C 
ATOM     33  O   UNL     1       3.861  15.541  17.327  0.00  0.00    +0.000 OA
BRANCH  32  34
ATOM     34  O   UNL     1       2.728  17.519  17.094  0.00  0.00    +0.000 OA
BRANCH  34  36
ATOM     35  C   UNL     1       0.701  18.476  16.256  0.00  0.00    +0.000 C 
ATOM     36  C   UNL     1       1.504  18.148  17.502  0.00  0.00    +0.000 C 
ENDBRANCH  34  36
ENDBRANCH  32  34
ENDBRANCH  26  32
ENDBRANCH  25  30
ENDBRANCH   1  25
TORSDOF 9
ENDMDL
