MODEL 1
REMARK VINA RESULT:      -7.2      0.000      0.000
REMARK  Name = 
REMARK  6 active torsions:
REMARK  status: ('A' for Active; 'I' for Inactive)
REMARK    1  A    between atoms: C_2  and  C_4
REMARK    2  A    between atoms: N_6  and  C1*_7
REMARK    3  A    between atoms: C4*_9  and  C5*_10
REMARK    4  A    between atoms: C5*_10  and  O5*_11
REMARK    5  A    between atoms: C3*_12  and  O3*_13
REMARK    6  A    between atoms: C2*_14  and  O2*_15
REMARK                            x       y       z     vdW  Elec       q    Type
REMARK                         _______ _______ _______ _____ _____    ______ ____
ROOT
ATOM      1  C1* UNL     1       2.639   3.897  18.074  0.00  0.00    +0.000 C 
ATOM      2  O4* UNL     1       2.002   4.842  18.971  0.00  0.00    +0.000 OA
ATOM      3  C4* UNL     1       1.385   4.103  20.052  0.00  0.00    +0.000 C 
ATOM      4  C3* UNL     1       1.376   2.642  19.618  0.00  0.00    +0.000 C 
ATOM      5  C2* UNL     1       2.619   2.528  18.746  0.00  0.00    +0.000 C 
ENDROOT
BRANCH   1   8
ATOM      6  C   UNL     1       5.756   4.691  16.590  0.00  0.00    +0.000 A 
ATOM      7  N   UNL     1       4.491   4.210  16.493  0.00  0.00    +0.000 NA
ATOM      8  N   UNL     1       3.973   4.380  17.736  0.00  0.00    +0.000 N 
ATOM      9  C   UNL     1       4.842   4.979  18.603  0.00  0.00    +0.000 A 
ATOM     10  C   UNL     1       5.997   5.174  17.899  0.00  0.00    +0.000 A 
ATOM     11 BR   UNL     1       7.572   5.930  18.569  0.00  0.00    +0.000 Br
BRANCH   6  13
ATOM     12  N   UNL     1       6.416   3.668  14.541  0.00  0.00    +0.000 N 
ATOM     13  C   UNL     1       6.670   4.669  15.437  0.00  0.00    +0.000 C 
ATOM     14  O   UNL     1       7.592   5.455  15.251  0.00  0.00    +0.000 OA
ATOM     15  H   UNL     1       7.004   3.568  13.730  0.00  0.00    +0.000 HD
ATOM     16  H   UNL     1       5.657   3.024  14.728  0.00  0.00    +0.000 HD
ENDBRANCH   6  13
ENDBRANCH   1   8
BRANCH   4  17
ATOM     17  O3* UNL     1       0.235   2.336  18.791  0.00  0.00    +0.000 OA
ATOM     18  H3* UNL     1       0.407   1.508  18.303  0.00  0.00    +0.000 HD
ENDBRANCH   4  17
BRANCH   5  19
ATOM     19  O2* UNL     1       2.494   1.451  17.816  0.00  0.00    +0.000 OA
ATOM     20  H2* UNL     1       3.011   0.704  18.188  0.00  0.00    +0.000 HD
ENDBRANCH   5  19
BRANCH   3  21
ATOM     21  C5* UNL     1       2.174   4.336  21.342  0.00  0.00    +0.000 C 
BRANCH  21  22
ATOM     22  O5* UNL     1       2.113   3.174  22.164  0.00  0.00    +0.000 OA
ATOM     23  H5* UNL     1       1.512   2.551  21.712  0.00  0.00    +0.000 HD
ENDBRANCH  21  22
ENDBRANCH   3  21
TORSDOF 6
ENDMDL
MODEL 2
REMARK VINA RESULT:      -7.1      2.879      5.932
REMARK  Name = 
REMARK  6 active torsions:
REMARK  status: ('A' for Active; 'I' for Inactive)
REMARK    1  A    between atoms: C_2  and  C_4
REMARK    2  A    between atoms: N_6  and  C1*_7
REMARK    3  A    between atoms: C4*_9  and  C5*_10
REMARK    4  A    between atoms: C5*_10  and  O5*_11
REMARK    5  A    between atoms: C3*_12  and  O3*_13
REMARK    6  A    between atoms: C2*_14  and  O2*_15
REMARK                            x       y       z     vdW  Elec       q    Type
REMARK                         _______ _______ _______ _____ _____    ______ ____
ROOT
ATOM      1  C1* UNL     1       5.365   4.572  17.935  0.00  0.00    +0.000 C 
ATOM      2  O4* UNL     1       6.557   4.200  18.672  0.00  0.00    +0.000 OA
ATOM      3  C4* UNL     1       7.670   4.971  18.163  0.00  0.00    +0.000 C 
ATOM      4  C3* UNL     1       7.193   5.596  16.857  0.00  0.00    +0.000 C 
ATOM      5  C2* UNL     1       5.702   5.795  17.088  0.00  0.00    +0.000 C 
ENDROOT
BRANCH   1   8
ATOM      6  C   UNL     1       2.672   4.292  20.219  0.00  0.00    +0.000 A 
ATOM      7  N   UNL     1       3.701   3.733  19.533  0.00  0.00    +0.000 NA
ATOM      8  N   UNL     1       4.264   4.775  18.870  0.00  0.00    +0.000 N 
ATOM      9  C   UNL     1       3.660   5.971  19.135  0.00  0.00    +0.000 A 
ATOM     10  C   UNL     1       2.627   5.687  19.983  0.00  0.00    +0.000 A 
ATOM     11 BR   UNL     1       1.407   6.927  20.673  0.00  0.00    +0.000 Br
BRANCH   6  13
ATOM     12  N   UNL     1       0.588   3.167  20.483  0.00  0.00    +0.000 N 
ATOM     13  C   UNL     1       1.786   3.474  21.063  0.00  0.00    +0.000 C 
ATOM     14  O   UNL     1       2.055   3.079  22.192  0.00  0.00    +0.000 OA
ATOM     15  H   UNL     1      -0.087   2.624  20.997  0.00  0.00    +0.000 HD
ATOM     16  H   UNL     1       0.387   3.520  19.555  0.00  0.00    +0.000 HD
ENDBRANCH   6  13
ENDBRANCH   1   8
BRANCH   4  17
ATOM     17  O3* UNL     1       7.345   4.690  15.745  0.00  0.00    +0.000 OA
ATOM     18  H3* UNL     1       7.452   5.208  14.924  0.00  0.00    +0.000 HD
ENDBRANCH   4  17
BRANCH   5  19
ATOM     19  O2* UNL     1       4.993   5.828  15.848  0.00  0.00    +0.000 OA
ATOM     20  H2* UNL     1       5.649   6.081  15.163  0.00  0.00    +0.000 HD
ENDBRANCH   5  19
BRANCH   3  21
ATOM     21  C5* UNL     1       8.085   6.013  19.204  0.00  0.00    +0.000 C 
BRANCH  21  22
ATOM     22  O5* UNL     1       8.031   5.443  20.509  0.00  0.00    +0.000 OA
ATOM     23  H5* UNL     1       8.955   5.391  20.822  0.00  0.00    +0.000 HD
ENDBRANCH  21  22
ENDBRANCH   3  21
TORSDOF 6
ENDMDL
MODEL 3
REMARK VINA RESULT:      -7.1      2.763      5.958
REMARK  Name = 
REMARK  6 active torsions:
REMARK  status: ('A' for Active; 'I' for Inactive)
REMARK    1  A    between atoms: C_2  and  C_4
REMARK    2  A    between atoms: N_6  and  C1*_7
REMARK    3  A    between atoms: C4*_9  and  C5*_10
REMARK    4  A    between atoms: C5*_10  and  O5*_11
REMARK    5  A    between atoms: C3*_12  and  O3*_13
REMARK    6  A    between atoms: C2*_14  and  O2*_15
REMARK                            x       y       z     vdW  Elec       q    Type
REMARK                         _______ _______ _______ _____ _____    ______ ____
ROOT
ATOM      1  C1* UNL     1       5.477   4.713  17.078  0.00  0.00    +0.000 C 
ATOM      2  O4* UNL     1       6.644   4.239  17.798  0.00  0.00    +0.000 OA
ATOM      3  C4* UNL     1       7.655   5.274  17.764  0.00  0.00    +0.000 C 
ATOM      4  C3* UNL     1       7.200   6.279  16.712  0.00  0.00    +0.000 C 
ATOM      5  C2* UNL     1       5.682   6.195  16.781  0.00  0.00    +0.000 C 
ENDROOT
BRANCH   1   8
ATOM      6  C   UNL     1       2.919   4.418  19.511  0.00  0.00    +0.000 A 
ATOM      7  N   UNL     1       4.059   5.002  19.060  0.00  0.00    +0.000 NA
ATOM      8  N   UNL     1       4.279   4.417  17.855  0.00  0.00    +0.000 N 
ATOM      9  C   UNL     1       3.313   3.516  17.509  0.00  0.00    +0.000 A 
ATOM     10  C   UNL     1       2.439   3.485  18.560  0.00  0.00    +0.000 A 
ATOM     11 BR   UNL     1       0.916   2.405  18.683  0.00  0.00    +0.000 Br
BRANCH   6  13
ATOM     12  N   UNL     1       1.956   6.079  20.921  0.00  0.00    +0.000 N 
ATOM     13  C   UNL     1       2.347   4.774  20.818  0.00  0.00    +0.000 C 
ATOM     14  O   UNL     1       2.213   4.004  21.763  0.00  0.00    +0.000 OA
ATOM     15  H   UNL     1       1.568   6.413  21.789  0.00  0.00    +0.000 HD
ATOM     16  H   UNL     1       2.093   6.696  20.129  0.00  0.00    +0.000 HD
ENDBRANCH   6  13
ENDBRANCH   1   8
BRANCH   4  17
ATOM     17  O3* UNL     1       7.599   5.881  15.385  0.00  0.00    +0.000 OA
ATOM     18  H3* UNL     1       7.118   5.068  15.137  0.00  0.00    +0.000 HD
ENDBRANCH   4  17
BRANCH   5  19
ATOM     19  O2* UNL     1       5.091   6.603  15.545  0.00  0.00    +0.000 OA
ATOM     20  H2* UNL     1       5.835   6.813  14.941  0.00  0.00    +0.000 HD
ENDBRANCH   5  19
BRANCH   3  21
ATOM     21  C5* UNL     1       7.796   5.893  19.156  0.00  0.00    +0.000 C 
BRANCH  21  22
ATOM     22  O5* UNL     1       6.997   5.173  20.091  0.00  0.00    +0.000 OA
ATOM     23  H5* UNL     1       7.041   4.235  19.822  0.00  0.00    +0.000 HD
ENDBRANCH  21  22
ENDBRANCH   3  21
TORSDOF 6
ENDMDL
MODEL 4
REMARK VINA RESULT:      -7.1      2.082      3.071
REMARK  Name = 
REMARK  6 active torsions:
REMARK  status: ('A' for Active; 'I' for Inactive)
REMARK    1  A    between atoms: C_2  and  C_4
REMARK    2  A    between atoms: N_6  and  C1*_7
REMARK    3  A    between atoms: C4*_9  and  C5*_10
REMARK    4  A    between atoms: C5*_10  and  O5*_11
REMARK    5  A    between atoms: C3*_12  and  O3*_13
REMARK    6  A    between atoms: C2*_14  and  O2*_15
REMARK                            x       y       z     vdW  Elec       q    Type
REMARK                         _______ _______ _______ _____ _____    ______ ____
ROOT
ATOM      1  C1* UNL     1       3.414   3.494  20.173  0.00  0.00    +0.000 C 
ATOM      2  O4* UNL     1       2.964   2.194  19.715  0.00  0.00    +0.000 OA
ATOM      3  C4* UNL     1       1.539   2.094  19.948  0.00  0.00    +0.000 C 
ATOM      4  C3* UNL     1       1.177   3.250  20.873  0.00  0.00    +0.000 C 
ATOM      5  C2* UNL     1       2.179   4.331  20.492  0.00  0.00    +0.000 C 
ENDROOT
BRANCH   1   8
ATOM      6  C   UNL     1       6.112   4.647  18.187  0.00  0.00    +0.000 A 
ATOM      7  N   UNL     1       5.635   3.884  19.204  0.00  0.00    +0.000 NA
ATOM      8  N   UNL     1       4.293   4.081  19.167  0.00  0.00    +0.000 N 
ATOM      9  C   UNL     1       3.897   4.905  18.153  0.00  0.00    +0.000 A 
ATOM     10  C   UNL     1       5.044   5.295  17.520  0.00  0.00    +0.000 A 
ATOM     11 BR   UNL     1       5.144   6.464  16.062  0.00  0.00    +0.000 Br
BRANCH   6  13
ATOM     12  N   UNL     1       8.312   5.135  18.961  0.00  0.00    +0.000 N 
ATOM     13  C   UNL     1       7.553   4.722  17.902  0.00  0.00    +0.000 C 
ATOM     14  O   UNL     1       8.075   4.450  16.826  0.00  0.00    +0.000 OA
ATOM     15  H   UNL     1       9.308   5.231  18.848  0.00  0.00    +0.000 HD
ATOM     16  H   UNL     1       7.852   5.368  19.833  0.00  0.00    +0.000 HD
ENDBRANCH   6  13
ENDBRANCH   1   8
BRANCH   4  17
ATOM     17  O3* UNL     1       1.401   2.918  22.258  0.00  0.00    +0.000 OA
ATOM     18  H3* UNL     1       0.565   2.602  22.650  0.00  0.00    +0.000 HD
ENDBRANCH   4  17
BRANCH   5  19
ATOM     19  O2* UNL     1       2.385   5.241  21.574  0.00  0.00    +0.000 OA
ATOM     20  H2* UNL     1       1.752   5.978  21.438  0.00  0.00    +0.000 HD
ENDBRANCH   5  19
BRANCH   3  21
ATOM     21  C5* UNL     1       0.800   2.149  18.609  0.00  0.00    +0.000 C 
BRANCH  21  22
ATOM     22  O5* UNL     1       1.721   1.961  17.539  0.00  0.00    +0.000 OA
ATOM     23  H5* UNL     1       1.837   2.836  17.122  0.00  0.00    +0.000 HD
ENDBRANCH  21  22
ENDBRANCH   3  21
TORSDOF 6
ENDMDL
MODEL 5
REMARK VINA RESULT:      -7.0      1.054      1.054
REMARK  Name = 
REMARK  6 active torsions:
REMARK  status: ('A' for Active; 'I' for Inactive)
REMARK    1  A    between atoms: C_2  and  C_4
REMARK    2  A    between atoms: N_6  and  C1*_7
REMARK    3  A    between atoms: C4*_9  and  C5*_10
REMARK    4  A    between atoms: C5*_10  and  O5*_11
REMARK    5  A    between atoms: C3*_12  and  O3*_13
REMARK    6  A    between atoms: C2*_14  and  O2*_15
REMARK                            x       y       z     vdW  Elec       q    Type
REMARK                         _______ _______ _______ _____ _____    ______ ____
ROOT
ATOM      1  C1* UNL     1       2.984   3.538  17.761  0.00  0.00    +0.000 C 
ATOM      2  O4* UNL     1       2.087   4.498  18.374  0.00  0.00    +0.000 OA
ATOM      3  C4* UNL     1       1.604   3.943  19.620  0.00  0.00    +0.000 C 
ATOM      4  C3* UNL     1       1.972   2.464  19.598  0.00  0.00    +0.000 C 
ATOM      5  C2* UNL     1       3.254   2.434  18.779  0.00  0.00    +0.000 C 
ENDROOT
BRANCH   1   8
ATOM      6  C   UNL     1       5.859   4.699  16.047  0.00  0.00    +0.000 A 
ATOM      7  N   UNL     1       4.733   3.943  16.086  0.00  0.00    +0.000 NA
ATOM      8  N   UNL     1       4.181   4.228  17.293  0.00  0.00    +0.000 N 
ATOM      9  C   UNL     1       4.889   5.156  18.002  0.00  0.00    +0.000 A 
ATOM     10  C   UNL     1       5.977   5.462  17.234  0.00  0.00    +0.000 A 
ATOM     11 BR   UNL     1       7.340   6.658  17.697  0.00  0.00    +0.000 Br
BRANCH   6  13
ATOM     12  N   UNL     1       6.466   3.682  13.980  0.00  0.00    +0.000 N 
ATOM     13  C   UNL     1       6.764   4.659  14.888  0.00  0.00    +0.000 C 
ATOM     14  O   UNL     1       7.715   5.412  14.708  0.00  0.00    +0.000 OA
ATOM     15  H   UNL     1       7.046   3.571  13.163  0.00  0.00    +0.000 HD
ATOM     16  H   UNL     1       5.685   3.064  14.163  0.00  0.00    +0.000 HD
ENDBRANCH   6  13
ENDBRANCH   1   8
BRANCH   4  17
ATOM     17  O3* UNL     1       0.988   1.678  18.896  0.00  0.00    +0.000 OA
ATOM     18  H3* UNL     1       0.231   2.248  18.663  0.00  0.00    +0.000 HD
ENDBRANCH   4  17
BRANCH   5  19
ATOM     19  O2* UNL     1       3.446   1.153  18.176  0.00  0.00    +0.000 OA
ATOM     20  H2* UNL     1       4.413   1.054  18.043  0.00  0.00    +0.000 HD
ENDBRANCH   5  19
BRANCH   3  21
ATOM     21  C5* UNL     1       2.237   4.697  20.792  0.00  0.00    +0.000 C 
BRANCH  21  22
ATOM     22  O5* UNL     1       2.512   6.042  20.411  0.00  0.00    +0.000 OA
ATOM     23  H5* UNL     1       1.743   6.341  19.889  0.00  0.00    +0.000 HD
ENDBRANCH  21  22
ENDBRANCH   3  21
TORSDOF 6
ENDMDL
MODEL 6
REMARK VINA RESULT:      -7.0      1.366      2.563
REMARK  Name = 
REMARK  6 active torsions:
REMARK  status: ('A' for Active; 'I' for Inactive)
REMARK    1  A    between atoms: C_2  and  C_4
REMARK    2  A    between atoms: N_6  and  C1*_7
REMARK    3  A    between atoms: C4*_9  and  C5*_10
REMARK    4  A    between atoms: C5*_10  and  O5*_11
REMARK    5  A    between atoms: C3*_12  and  O3*_13
REMARK    6  A    between atoms: C2*_14  and  O2*_15
REMARK                            x       y       z     vdW  Elec       q    Type
REMARK                         _______ _______ _______ _____ _____    ______ ____
ROOT
ATOM      1  C1* UNL     1       3.623   3.715  20.043  0.00  0.00    +0.000 C 
ATOM      2  O4* UNL     1       3.272   2.372  19.621  0.00  0.00    +0.000 OA
ATOM      3  C4* UNL     1       1.858   2.171  19.860  0.00  0.00    +0.000 C 
ATOM      4  C3* UNL     1       1.410   3.322  20.754  0.00  0.00    +0.000 C 
ATOM      5  C2* UNL     1       2.328   4.464  20.341  0.00  0.00    +0.000 C 
ENDROOT
BRANCH   1   8
ATOM      6  C   UNL     1       5.376   4.653  17.111  0.00  0.00    +0.000 A 
ATOM      7  N   UNL     1       4.417   3.917  17.729  0.00  0.00    +0.000 NA
ATOM      8  N   UNL     1       4.454   4.338  19.019  0.00  0.00    +0.000 N 
ATOM      9  C   UNL     1       5.368   5.330  19.236  0.00  0.00    +0.000 A 
ATOM     10  C   UNL     1       5.983   5.539  18.033  0.00  0.00    +0.000 A 
ATOM     11 BR   UNL     1       7.361   6.763  17.709  0.00  0.00    +0.000 Br
BRANCH   6  13
ATOM     12  N   UNL     1       6.229   3.273  15.365  0.00  0.00    +0.000 N 
ATOM     13  C   UNL     1       5.665   4.478  15.679  0.00  0.00    +0.000 C 
ATOM     14  O   UNL     1       5.440   5.310  14.806  0.00  0.00    +0.000 OA
ATOM     15  H   UNL     1       6.475   3.076  14.409  0.00  0.00    +0.000 HD
ATOM     16  H   UNL     1       6.418   2.612  16.109  0.00  0.00    +0.000 HD
ENDBRANCH   6  13
ENDBRANCH   1   8
BRANCH   4  17
ATOM     17  O3* UNL     1       1.659   3.046  22.147  0.00  0.00    +0.000 OA
ATOM     18  H3* UNL     1       2.272   3.718  22.501  0.00  0.00    +0.000 HD
ENDBRANCH   4  17
BRANCH   5  19
ATOM     19  O2* UNL     1       2.465   5.417  21.397  0.00  0.00    +0.000 OA
ATOM     20  H2* UNL     1       1.791   5.180  22.070  0.00  0.00    +0.000 HD
ENDBRANCH   5  19
BRANCH   3  21
ATOM     21  C5* UNL     1       1.117   2.134  18.522  0.00  0.00    +0.000 C 
BRANCH  21  22
ATOM     22  O5* UNL     1       2.043   1.917  17.460  0.00  0.00    +0.000 OA
ATOM     23  H5* UNL     1       2.069   0.951  17.315  0.00  0.00    +0.000 HD
ENDBRANCH  21  22
ENDBRANCH   3  21
TORSDOF 6
ENDMDL
MODEL 7
REMARK VINA RESULT:      -6.9      1.839      2.217
REMARK  Name = 
REMARK  6 active torsions:
REMARK  status: ('A' for Active; 'I' for Inactive)
REMARK    1  A    between atoms: C_2  and  C_4
REMARK    2  A    between atoms: N_6  and  C1*_7
REMARK    3  A    between atoms: C4*_9  and  C5*_10
REMARK    4  A    between atoms: C5*_10  and  O5*_11
REMARK    5  A    between atoms: C3*_12  and  O3*_13
REMARK    6  A    between atoms: C2*_14  and  O2*_15
REMARK                            x       y       z     vdW  Elec       q    Type
REMARK                         _______ _______ _______ _____ _____    ______ ____
ROOT
ATOM      1  C1* UNL     1       2.694   3.847  18.237  0.00  0.00    +0.000 C 
ATOM      2  O4* UNL     1       2.126   4.765  19.206  0.00  0.00    +0.000 OA
ATOM      3  C4* UNL     1       1.418   3.996  20.207  0.00  0.00    +0.000 C 
ATOM      4  C3* UNL     1       1.284   2.586  19.643  0.00  0.00    +0.000 C 
ATOM      5  C2* UNL     1       2.531   2.432  18.784  0.00  0.00    +0.000 C 
ENDROOT
BRANCH   1   8
ATOM      6  C   UNL     1       6.017   5.073  18.289  0.00  0.00    +0.000 A 
ATOM      7  N   UNL     1       4.862   4.765  18.931  0.00  0.00    +0.000 NA
ATOM      8  N   UNL     1       4.074   4.229  17.964  0.00  0.00    +0.000 N 
ATOM      9  C   UNL     1       4.692   4.153  16.748  0.00  0.00    +0.000 A 
ATOM     10  C   UNL     1       5.932   4.702  16.925  0.00  0.00    +0.000 A 
ATOM     11 BR   UNL     1       7.234   4.911  15.597  0.00  0.00    +0.000 Br
BRANCH   6  13
ATOM     12  N   UNL     1       7.705   6.754  18.337  0.00  0.00    +0.000 N 
ATOM     13  C   UNL     1       7.140   5.702  19.001  0.00  0.00    +0.000 C 
ATOM     14  O   UNL     1       7.568   5.349  20.095  0.00  0.00    +0.000 OA
ATOM     15  H   UNL     1       8.491   7.233  18.745  0.00  0.00    +0.000 HD
ATOM     16  H   UNL     1       7.340   7.013  17.428  0.00  0.00    +0.000 HD
ENDBRANCH   6  13
ENDBRANCH   1   8
BRANCH   4  17
ATOM     17  O3* UNL     1       0.139   2.463  18.775  0.00  0.00    +0.000 OA
ATOM     18  H3* UNL     1      -0.558   3.075  19.078  0.00  0.00    +0.000 HD
ENDBRANCH   4  17
BRANCH   5  19
ATOM     19  O2* UNL     1       2.327   1.457  17.758  0.00  0.00    +0.000 OA
ATOM     20  H2* UNL     1       2.193   1.959  16.926  0.00  0.00    +0.000 HD
ENDBRANCH   5  19
BRANCH   3  21
ATOM     21  C5* UNL     1       2.195   4.039  21.524  0.00  0.00    +0.000 C 
BRANCH  21  22
ATOM     22  O5* UNL     1       1.983   2.832  22.252  0.00  0.00    +0.000 OA
ATOM     23  H5* UNL     1       2.250   2.105  21.658  0.00  0.00    +0.000 HD
ENDBRANCH  21  22
ENDBRANCH   3  21
TORSDOF 6
ENDMDL
MODEL 8
REMARK VINA RESULT:      -6.8      2.713      5.799
REMARK  Name = 
REMARK  6 active torsions:
REMARK  status: ('A' for Active; 'I' for Inactive)
REMARK    1  A    between atoms: C_2  and  C_4
REMARK    2  A    between atoms: N_6  and  C1*_7
REMARK    3  A    between atoms: C4*_9  and  C5*_10
REMARK    4  A    between atoms: C5*_10  and  O5*_11
REMARK    5  A    between atoms: C3*_12  and  O3*_13
REMARK    6  A    between atoms: C2*_14  and  O2*_15
REMARK                            x       y       z     vdW  Elec       q    Type
REMARK                         _______ _______ _______ _____ _____    ______ ____
ROOT
ATOM      1  C1* UNL     1       5.480   4.358  17.622  0.00  0.00    +0.000 C 
ATOM      2  O4* UNL     1       6.591   4.100  18.518  0.00  0.00    +0.000 OA
ATOM      3  C4* UNL     1       7.681   4.983  18.162  0.00  0.00    +0.000 C 
ATOM      4  C3* UNL     1       7.327   5.568  16.800  0.00  0.00    +0.000 C 
ATOM      5  C2* UNL     1       5.806   5.616  16.823  0.00  0.00    +0.000 C 
ENDROOT
BRANCH   1   8
ATOM      6  C   UNL     1       2.319   3.894  19.154  0.00  0.00    +0.000 A 
ATOM      7  N   UNL     1       3.359   3.416  18.424  0.00  0.00    +0.000 NA
ATOM      8  N   UNL     1       4.247   4.443  18.397  0.00  0.00    +0.000 N 
ATOM      9  C   UNL     1       3.830   5.533  19.106  0.00  0.00    +0.000 A 
ATOM     10  C   UNL     1       2.591   5.214  19.587  0.00  0.00    +0.000 A 
ATOM     11 BR   UNL     1       1.495   6.332  20.612  0.00  0.00    +0.000 Br
BRANCH   6  13
ATOM     12  N   UNL     1       0.795   2.947  20.722  0.00  0.00    +0.000 N 
ATOM     13  C   UNL     1       1.124   3.074  19.402  0.00  0.00    +0.000 C 
ATOM     14  O   UNL     1       0.448   2.530  18.534  0.00  0.00    +0.000 OA
ATOM     15  H   UNL     1      -0.000   2.388  20.984  0.00  0.00    +0.000 HD
ATOM     16  H   UNL     1       1.380   3.394  21.418  0.00  0.00    +0.000 HD
ENDBRANCH   6  13
ENDBRANCH   1   8
BRANCH   4  17
ATOM     17  O3* UNL     1       7.719   4.692  15.724  0.00  0.00    +0.000 OA
ATOM     18  H3* UNL     1       7.444   5.086  14.874  0.00  0.00    +0.000 HD
ENDBRANCH   4  17
BRANCH   5  19
ATOM     19  O2* UNL     1       5.274   5.588  15.497  0.00  0.00    +0.000 OA
ATOM     20  H2* UNL     1       5.776   4.898  15.014  0.00  0.00    +0.000 HD
ENDBRANCH   5  19
BRANCH   3  21
ATOM     21  C5* UNL     1       7.843   6.052  19.245  0.00  0.00    +0.000 C 
BRANCH  21  22
ATOM     22  O5* UNL     1       8.030   5.433  20.514  0.00  0.00    +0.000 OA
ATOM     23  H5* UNL     1       7.149   5.122  20.799  0.00  0.00    +0.000 HD
ENDBRANCH  21  22
ENDBRANCH   3  21
TORSDOF 6
ENDMDL
MODEL 9
REMARK VINA RESULT:      -6.8      2.123      3.211
REMARK  Name = 
REMARK  6 active torsions:
REMARK  status: ('A' for Active; 'I' for Inactive)
REMARK    1  A    between atoms: C_2  and  C_4
REMARK    2  A    between atoms: N_6  and  C1*_7
REMARK    3  A    between atoms: C4*_9  and  C5*_10
REMARK    4  A    between atoms: C5*_10  and  O5*_11
REMARK    5  A    between atoms: C3*_12  and  O3*_13
REMARK    6  A    between atoms: C2*_14  and  O2*_15
REMARK                            x       y       z     vdW  Elec       q    Type
REMARK                         _______ _______ _______ _____ _____    ______ ____
ROOT
ATOM      1  C1* UNL     1       3.687   3.729  19.972  0.00  0.00    +0.000 C 
ATOM      2  O4* UNL     1       3.307   2.384  19.587  0.00  0.00    +0.000 OA
ATOM      3  C4* UNL     1       1.884   2.230  19.803  0.00  0.00    +0.000 C 
ATOM      4  C3* UNL     1       1.451   3.421  20.649  0.00  0.00    +0.000 C 
ATOM      5  C2* UNL     1       2.408   4.523  20.219  0.00  0.00    +0.000 C 
ENDROOT
BRANCH   1   8
ATOM      6  C   UNL     1       6.047   5.554  18.061  0.00  0.00    +0.000 A 
ATOM      7  N   UNL     1       5.526   5.192  19.261  0.00  0.00    +0.000 NA
ATOM      8  N   UNL     1       4.556   4.295  18.947  0.00  0.00    +0.000 N 
ATOM      9  C   UNL     1       4.465   4.049  17.606  0.00  0.00    +0.000 A 
ATOM     10  C   UNL     1       5.397   4.855  17.015  0.00  0.00    +0.000 A 
ATOM     11 BR   UNL     1       5.720   4.986  15.176  0.00  0.00    +0.000 Br
BRANCH   6  13
ATOM     12  N   UNL     1       8.076   6.430  18.951  0.00  0.00    +0.000 N 
ATOM     13  C   UNL     1       7.132   6.543  17.970  0.00  0.00    +0.000 C 
ATOM     14  O   UNL     1       7.224   7.412  17.109  0.00  0.00    +0.000 OA
ATOM     15  H   UNL     1       8.846   7.079  18.974  0.00  0.00    +0.000 HD
ATOM     16  H   UNL     1       7.966   5.713  19.658  0.00  0.00    +0.000 HD
ENDBRANCH   6  13
ENDBRANCH   1   8
BRANCH   4  17
ATOM     17  O3* UNL     1       1.664   3.183  22.056  0.00  0.00    +0.000 OA
ATOM     18  H3* UNL     1       1.542   4.020  22.543  0.00  0.00    +0.000 HD
ENDBRANCH   4  17
BRANCH   5  19
ATOM     19  O2* UNL     1       2.551   5.506  21.247  0.00  0.00    +0.000 OA
ATOM     20  H2* UNL     1       3.320   6.060  20.992  0.00  0.00    +0.000 HD
ENDBRANCH   5  19
BRANCH   3  21
ATOM     21  C5* UNL     1       1.169   2.168  18.452  0.00  0.00    +0.000 C 
BRANCH  21  22
ATOM     22  O5* UNL     1       2.086   1.772  17.435  0.00  0.00    +0.000 OA
ATOM     23  H5* UNL     1       2.871   2.344  17.538  0.00  0.00    +0.000 HD
ENDBRANCH  21  22
ENDBRANCH   3  21
TORSDOF 6
ENDMDL
