MODEL 1
REMARK VINA RESULT:      -8.0      0.000      0.000
REMARK  Name = 
REMARK  7 active torsions:
REMARK  status: ('A' for Active; 'I' for Inactive)
REMARK    1  A    between atoms: C_1  and  O_2
REMARK    2  A    between atoms: O_2  and  C_3
REMARK    3  A    between atoms: C_3  and  C_4
REMARK    4  A    between atoms: C_6  and  C_7
REMARK    5  A    between atoms: C_11  and  C_12
REMARK    6  A    between atoms: N_17  and  C_18
REMARK    7  A    between atoms: C_26  and  N_27
REMARK                            x       y       z     vdW  Elec       q    Type
REMARK                         _______ _______ _______ _____ _____    ______ ____
ROOT
ATOM      1  C   UNL     1       0.446   9.902  20.923  0.00  0.00    +0.000 A 
ATOM      2  C   UNL     1       0.203  11.199  20.424  0.00  0.00    +0.000 A 
ATOM      3  C   UNL     1       0.691  11.580  19.179  0.00  0.00    +0.000 A 
ATOM      4  C   UNL     1       0.439  12.954  18.639  0.00  0.00    +0.000 C 
ATOM      5  N   UNL     1       1.378  10.760  18.368  0.00  0.00    +0.000 NA
ATOM      6  C   UNL     1       1.594   9.527  18.859  0.00  0.00    +0.000 A 
ATOM      7  S   UNL     1       2.279   8.340  17.864  0.00  0.00    +0.000 S 
ATOM      8  C   UNL     1       2.483   7.253  19.175  0.00  0.00    +0.000 A 
ATOM      9  C   UNL     1       1.749   7.698  20.266  0.00  0.00    +0.000 A 
ATOM     10  C   UNL     1       1.232   9.037  20.108  0.00  0.00    +0.000 A 
ENDROOT
BRANCH   8  11
ATOM     11  C   UNL     1       3.208   5.990  19.021  0.00  0.00    +0.000 C 
ATOM     12  O   UNL     1       3.290   5.195  19.962  0.00  0.00    +0.000 OA
ATOM     13  N   UNL     1       3.867   5.690  17.817  0.00  0.00    +0.000 N 
ATOM     14  C   UNL     1       4.080   6.615  16.692  0.00  0.00    +0.000 C 
ATOM     15  C   UNL     1       5.499   6.527  16.124  0.00  0.00    +0.000 C 
ATOM     16  N   UNL     1       5.804   5.133  15.788  0.00  0.00    +0.000 N 
ATOM     17  C   UNL     1       5.706   4.200  16.920  0.00  0.00    +0.000 C 
ATOM     18  C   UNL     1       4.299   4.303  17.558  0.00  0.00    +0.000 C 
BRANCH  16  19
ATOM     19  C   UNL     1       6.251   4.783  14.532  0.00  0.00    +0.000 A 
ATOM     20  C   UNL     1       5.609   3.807  13.760  0.00  0.00    +0.000 A 
ATOM     21  C   UNL     1       6.081   3.448  12.492  0.00  0.00    +0.000 A 
ATOM     22  C   UNL     1       7.210   4.067  11.962  0.00  0.00    +0.000 A 
ATOM     23  C   UNL     1       7.860   5.049  12.701  0.00  0.00    +0.000 A 
ATOM     24  C   UNL     1       7.380   5.396  13.965  0.00  0.00    +0.000 A 
ENDBRANCH  16  19
ENDBRANCH   8  11
BRANCH   9  25
ATOM     25  N   UNL     1       1.575   6.967  21.392  0.00  0.00    +0.000 N 
ATOM     26  H   UNL     1       1.753   5.962  21.400  0.00  0.00    +0.000 HD
ATOM     27  H   UNL     1       1.643   7.408  22.312  0.00  0.00    +0.000 HD
ENDBRANCH   9  25
BRANCH   1  28
ATOM     28  C   UNL     1      -0.212   9.483  22.215  0.00  0.00    +0.000 C 
BRANCH  28  30
ATOM     29  C   UNL     1      -1.510  11.115  23.298  0.00  0.00    +0.000 C 
ATOM     30  O   UNL     1      -0.208  10.556  23.155  0.00  0.00    +0.000 OA
ENDBRANCH  28  30
ENDBRANCH   1  28
TORSDOF 5
ENDMDL
MODEL 2
REMARK VINA RESULT:      -7.6      0.431      1.002
REMARK  Name = 
REMARK  7 active torsions:
REMARK  status: ('A' for Active; 'I' for Inactive)
REMARK    1  A    between atoms: C_1  and  O_2
REMARK    2  A    between atoms: O_2  and  C_3
REMARK    3  A    between atoms: C_3  and  C_4
REMARK    4  A    between atoms: C_6  and  C_7
REMARK    5  A    between atoms: C_11  and  C_12
REMARK    6  A    between atoms: N_17  and  C_18
REMARK    7  A    between atoms: C_26  and  N_27
REMARK                            x       y       z     vdW  Elec       q    Type
REMARK                         _______ _______ _______ _____ _____    ______ ____
ROOT
ATOM      1  C   UNL     1       0.850  10.272  20.945  0.00  0.00    +0.000 A 
ATOM      2  C   UNL     1       0.720  11.586  20.450  0.00  0.00    +0.000 A 
ATOM      3  C   UNL     1       1.116  11.896  19.154  0.00  0.00    +0.000 A 
ATOM      4  C   UNL     1       0.982  13.288  18.618  0.00  0.00    +0.000 C 
ATOM      5  N   UNL     1       1.603  10.991  18.291  0.00  0.00    +0.000 NA
ATOM      6  C   UNL     1       1.713   9.743  18.780  0.00  0.00    +0.000 A 
ATOM      7  S   UNL     1       2.133   8.474  17.740  0.00  0.00    +0.000 S 
ATOM      8  C   UNL     1       2.339   7.377  19.042  0.00  0.00    +0.000 A 
ATOM      9  C   UNL     1       1.787   7.916  20.196  0.00  0.00    +0.000 A 
ATOM     10  C   UNL     1       1.429   9.310  20.068  0.00  0.00    +0.000 A 
ENDROOT
BRANCH   8  11
ATOM     11  C   UNL     1       2.878   6.031  18.836  0.00  0.00    +0.000 C 
ATOM     12  O   UNL     1       2.733   5.158  19.697  0.00  0.00    +0.000 OA
ATOM     13  N   UNL     1       3.616   5.730  17.679  0.00  0.00    +0.000 N 
ATOM     14  C   UNL     1       4.091   6.698  16.677  0.00  0.00    +0.000 C 
ATOM     15  C   UNL     1       5.536   6.431  16.246  0.00  0.00    +0.000 C 
ATOM     16  N   UNL     1       5.663   5.039  15.805  0.00  0.00    +0.000 N 
ATOM     17  C   UNL     1       5.299   4.044  16.824  0.00  0.00    +0.000 C 
ATOM     18  C   UNL     1       3.861   4.318  17.328  0.00  0.00    +0.000 C 
BRANCH  16  19
ATOM     19  C   UNL     1       6.191   4.727  14.570  0.00  0.00    +0.000 A 
ATOM     20  C   UNL     1       7.360   5.327  14.089  0.00  0.00    +0.000 A 
ATOM     21  C   UNL     1       7.878   5.013  12.826  0.00  0.00    +0.000 A 
ATOM     22  C   UNL     1       7.236   4.081  12.016  0.00  0.00    +0.000 A 
ATOM     23  C   UNL     1       6.080   3.460  12.473  0.00  0.00    +0.000 A 
ATOM     24  C   UNL     1       5.573   3.783  13.733  0.00  0.00    +0.000 A 
ENDBRANCH  16  19
ENDBRANCH   8  11
BRANCH   9  25
ATOM     25  N   UNL     1       1.644   7.219  21.347  0.00  0.00    +0.000 N 
ATOM     26  H   UNL     1       2.020   6.275  21.441  0.00  0.00    +0.000 HD
ATOM     27  H   UNL     1       1.522   7.707  22.237  0.00  0.00    +0.000 HD
ENDBRANCH   9  25
BRANCH   1  28
ATOM     28  C   UNL     1       0.286   9.946  22.307  0.00  0.00    +0.000 C 
BRANCH  28  30
ATOM     29  C   UNL     1      -1.393  11.321  23.207  0.00  0.00    +0.000 C 
ATOM     30  O   UNL     1      -1.114  10.217  22.353  0.00  0.00    +0.000 OA
ENDBRANCH  28  30
ENDBRANCH   1  28
TORSDOF 5
ENDMDL
MODEL 3
REMARK VINA RESULT:      -7.5      4.697      8.131
REMARK  Name = 
REMARK  7 active torsions:
REMARK  status: ('A' for Active; 'I' for Inactive)
REMARK    1  A    between atoms: C_1  and  O_2
REMARK    2  A    between atoms: O_2  and  C_3
REMARK    3  A    between atoms: C_3  and  C_4
REMARK    4  A    between atoms: C_6  and  C_7
REMARK    5  A    between atoms: C_11  and  C_12
REMARK    6  A    between atoms: N_17  and  C_18
REMARK    7  A    between atoms: C_26  and  N_27
REMARK                            x       y       z     vdW  Elec       q    Type
REMARK                         _______ _______ _______ _____ _____    ______ ____
ROOT
ATOM      1  C   UNL     1      -6.230  12.507  20.670  0.00  0.00    +0.000 A 
ATOM      2  C   UNL     1      -7.089  12.582  21.785  0.00  0.00    +0.000 A 
ATOM      3  C   UNL     1      -6.610  13.007  23.019  0.00  0.00    +0.000 A 
ATOM      4  C   UNL     1      -7.514  13.091  24.211  0.00  0.00    +0.000 C 
ATOM      5  N   UNL     1      -5.344  13.399  23.229  0.00  0.00    +0.000 NA
ATOM      6  C   UNL     1      -4.542  13.326  22.152  0.00  0.00    +0.000 A 
ATOM      7  S   UNL     1      -2.977  13.968  22.232  0.00  0.00    +0.000 S 
ATOM      8  C   UNL     1      -2.540  13.285  20.720  0.00  0.00    +0.000 A 
ATOM      9  C   UNL     1      -3.682  12.853  20.058  0.00  0.00    +0.000 A 
ATOM     10  C   UNL     1      -4.865  12.853  20.886  0.00  0.00    +0.000 A 
ENDROOT
BRANCH   8  11
ATOM     11  C   UNL     1      -1.165  13.343  20.218  0.00  0.00    +0.000 C 
ATOM     12  O   UNL     1      -0.642  14.428  19.947  0.00  0.00    +0.000 OA
ATOM     13  N   UNL     1      -0.443  12.161  19.986  0.00  0.00    +0.000 N 
ATOM     14  C   UNL     1      -0.985  10.793  20.017  0.00  0.00    +0.000 C 
ATOM     15  C   UNL     1      -0.482   9.938  18.850  0.00  0.00    +0.000 C 
ATOM     16  N   UNL     1       0.983   9.975  18.815  0.00  0.00    +0.000 N 
ATOM     17  C   UNL     1       1.553  11.323  18.674  0.00  0.00    +0.000 C 
ATOM     18  C   UNL     1       1.020  12.235  19.806  0.00  0.00    +0.000 C 
BRANCH  16  19
ATOM     19  C   UNL     1       1.726   8.814  18.805  0.00  0.00    +0.000 A 
ATOM     20  C   UNL     1       1.680   7.894  19.859  0.00  0.00    +0.000 A 
ATOM     21  C   UNL     1       2.452   6.725  19.844  0.00  0.00    +0.000 A 
ATOM     22  C   UNL     1       3.287   6.448  18.765  0.00  0.00    +0.000 A 
ATOM     23  C   UNL     1       3.343   7.339  17.699  0.00  0.00    +0.000 A 
ATOM     24  C   UNL     1       2.570   8.501  17.726  0.00  0.00    +0.000 A 
ENDBRANCH  16  19
ENDBRANCH   8  11
BRANCH   9  25
ATOM     25  N   UNL     1      -3.678  12.424  18.774  0.00  0.00    +0.000 N 
ATOM     26  H   UNL     1      -3.361  13.031  18.018  0.00  0.00    +0.000 HD
ATOM     27  H   UNL     1      -3.613  11.427  18.561  0.00  0.00    +0.000 HD
ENDBRANCH   9  25
BRANCH   1  28
ATOM     28  C   UNL     1      -6.815  12.171  19.320  0.00  0.00    +0.000 C 
BRANCH  28  30
ATOM     29  C   UNL     1      -6.929  12.887  17.085  0.00  0.00    +0.000 C 
ATOM     30  O   UNL     1      -6.723  13.287  18.436  0.00  0.00    +0.000 OA
ENDBRANCH  28  30
ENDBRANCH   1  28
TORSDOF 5
ENDMDL
MODEL 4
REMARK VINA RESULT:      -7.3      4.216      6.969
REMARK  Name = 
REMARK  7 active torsions:
REMARK  status: ('A' for Active; 'I' for Inactive)
REMARK    1  A    between atoms: C_1  and  O_2
REMARK    2  A    between atoms: O_2  and  C_3
REMARK    3  A    between atoms: C_3  and  C_4
REMARK    4  A    between atoms: C_6  and  C_7
REMARK    5  A    between atoms: C_11  and  C_12
REMARK    6  A    between atoms: N_17  and  C_18
REMARK    7  A    between atoms: C_26  and  N_27
REMARK                            x       y       z     vdW  Elec       q    Type
REMARK                         _______ _______ _______ _____ _____    ______ ____
ROOT
ATOM      1  C   UNL     1      -3.041  13.758  23.234  0.00  0.00    +0.000 A 
ATOM      2  C   UNL     1      -2.907  14.396  24.485  0.00  0.00    +0.000 A 
ATOM      3  C   UNL     1      -1.706  14.997  24.846  0.00  0.00    +0.000 A 
ATOM      4  C   UNL     1      -1.551  15.677  26.171  0.00  0.00    +0.000 C 
ATOM      5  N   UNL     1      -0.630  15.045  24.046  0.00  0.00    +0.000 NA
ATOM      6  C   UNL     1      -0.780  14.437  22.856  0.00  0.00    +0.000 A 
ATOM      7  S   UNL     1       0.431  14.588  21.682  0.00  0.00    +0.000 S 
ATOM      8  C   UNL     1      -0.295  13.406  20.674  0.00  0.00    +0.000 A 
ATOM      9  C   UNL     1      -1.590  13.156  21.109  0.00  0.00    +0.000 A 
ATOM     10  C   UNL     1      -1.889  13.738  22.396  0.00  0.00    +0.000 A 
ENDROOT
BRANCH   8  11
ATOM     11  C   UNL     1       0.368  12.915  19.464  0.00  0.00    +0.000 C 
ATOM     12  O   UNL     1       0.397  13.604  18.440  0.00  0.00    +0.000 OA
ATOM     13  N   UNL     1       0.933  11.629  19.435  0.00  0.00    +0.000 N 
ATOM     14  C   UNL     1       0.777  10.590  20.467  0.00  0.00    +0.000 C 
ATOM     15  C   UNL     1       0.509   9.207  19.867  0.00  0.00    +0.000 C 
ATOM     16  N   UNL     1       1.552   8.891  18.886  0.00  0.00    +0.000 N 
ATOM     17  C   UNL     1       1.657   9.855  17.781  0.00  0.00    +0.000 C 
ATOM     18  C   UNL     1       1.872  11.278  18.352  0.00  0.00    +0.000 C 
BRANCH  16  19
ATOM     19  C   UNL     1       2.275   7.720  18.965  0.00  0.00    +0.000 A 
ATOM     20  C   UNL     1       3.256   7.388  18.023  0.00  0.00    +0.000 A 
ATOM     21  C   UNL     1       3.973   6.188  18.105  0.00  0.00    +0.000 A 
ATOM     22  C   UNL     1       3.728   5.293  19.142  0.00  0.00    +0.000 A 
ATOM     23  C   UNL     1       2.769   5.602  20.099  0.00  0.00    +0.000 A 
ATOM     24  C   UNL     1       2.059   6.801  20.005  0.00  0.00    +0.000 A 
ENDBRANCH  16  19
ENDBRANCH   8  11
BRANCH   9  25
ATOM     25  N   UNL     1      -2.472  12.397  20.417  0.00  0.00    +0.000 N 
ATOM     26  H   UNL     1      -2.613  11.413  20.647  0.00  0.00    +0.000 HD
ATOM     27  H   UNL     1      -3.266  12.830  19.942  0.00  0.00    +0.000 HD
ENDBRANCH   9  25
BRANCH   1  28
ATOM     28  C   UNL     1      -4.397  13.237  22.824  0.00  0.00    +0.000 C 
BRANCH  28  30
ATOM     29  C   UNL     1      -6.474  12.817  23.840  0.00  0.00    +0.000 C 
ATOM     30  O   UNL     1      -5.064  12.637  23.933  0.00  0.00    +0.000 OA
ENDBRANCH  28  30
ENDBRANCH   1  28
TORSDOF 5
ENDMDL
MODEL 5
REMARK VINA RESULT:      -7.3      4.687      8.040
REMARK  Name = 
REMARK  7 active torsions:
REMARK  status: ('A' for Active; 'I' for Inactive)
REMARK    1  A    between atoms: C_1  and  O_2
REMARK    2  A    between atoms: O_2  and  C_3
REMARK    3  A    between atoms: C_3  and  C_4
REMARK    4  A    between atoms: C_6  and  C_7
REMARK    5  A    between atoms: C_11  and  C_12
REMARK    6  A    between atoms: N_17  and  C_18
REMARK    7  A    between atoms: C_26  and  N_27
REMARK                            x       y       z     vdW  Elec       q    Type
REMARK                         _______ _______ _______ _____ _____    ______ ____
ROOT
ATOM      1  C   UNL     1      -6.046  12.770  20.816  0.00  0.00    +0.000 A 
ATOM      2  C   UNL     1      -6.932  12.823  21.913  0.00  0.00    +0.000 A 
ATOM      3  C   UNL     1      -6.467  13.151  23.181  0.00  0.00    +0.000 A 
ATOM      4  C   UNL     1      -7.398  13.210  24.353  0.00  0.00    +0.000 C 
ATOM      5  N   UNL     1      -5.190  13.467  23.445  0.00  0.00    +0.000 NA
ATOM      6  C   UNL     1      -4.363  13.417  22.385  0.00  0.00    +0.000 A 
ATOM      7  S   UNL     1      -2.772  13.974  22.542  0.00  0.00    +0.000 S 
ATOM      8  C   UNL     1      -2.327  13.360  21.003  0.00  0.00    +0.000 A 
ATOM      9  C   UNL     1      -3.469  13.024  20.289  0.00  0.00    +0.000 A 
ATOM     10  C   UNL     1      -4.673  13.035  21.086  0.00  0.00    +0.000 A 
ENDROOT
BRANCH   8  11
ATOM     11  C   UNL     1      -0.937  13.379  20.539  0.00  0.00    +0.000 C 
ATOM     12  O   UNL     1      -0.349  14.450  20.363  0.00  0.00    +0.000 OA
ATOM     13  N   UNL     1      -0.273  12.179  20.235  0.00  0.00    +0.000 N 
ATOM     14  C   UNL     1      -0.888  10.845  20.151  0.00  0.00    +0.000 C 
ATOM     15  C   UNL     1      -0.400  10.052  18.935  0.00  0.00    +0.000 C 
ATOM     16  N   UNL     1       1.066  10.010  18.937  0.00  0.00    +0.000 N 
ATOM     17  C   UNL     1       1.710  11.332  18.911  0.00  0.00    +0.000 C 
ATOM     18  C   UNL     1       1.196  12.185  20.096  0.00  0.00    +0.000 C 
BRANCH  16  19
ATOM     19  C   UNL     1       1.746   8.814  18.856  0.00  0.00    +0.000 A 
ATOM     20  C   UNL     1       2.506   8.466  17.734  0.00  0.00    +0.000 A 
ATOM     21  C   UNL     1       3.180   7.241  17.657  0.00  0.00    +0.000 A 
ATOM     22  C   UNL     1       3.112   6.335  18.711  0.00  0.00    +0.000 A 
ATOM     23  C   UNL     1       2.375   6.659  19.844  0.00  0.00    +0.000 A 
ATOM     24  C   UNL     1       1.706   7.883  19.908  0.00  0.00    +0.000 A 
ENDBRANCH  16  19
ENDBRANCH   8  11
BRANCH   9  25
ATOM     25  N   UNL     1      -3.451  12.671  18.982  0.00  0.00    +0.000 N 
ATOM     26  H   UNL     1      -4.048  13.142  18.302  0.00  0.00    +0.000 HD
ATOM     27  H   UNL     1      -2.621  12.234  18.575  0.00  0.00    +0.000 HD
ENDBRANCH   9  25
BRANCH   1  28
ATOM     28  C   UNL     1      -6.610  12.542  19.435  0.00  0.00    +0.000 C 
BRANCH  28  30
ATOM     29  C   UNL     1      -6.906  10.212  19.391  0.00  0.00    +0.000 C 
ATOM     30  O   UNL     1      -6.143  11.306  18.896  0.00  0.00    +0.000 OA
ENDBRANCH  28  30
ENDBRANCH   1  28
TORSDOF 5
ENDMDL
MODEL 6
REMARK VINA RESULT:      -7.3      4.208      7.233
REMARK  Name = 
REMARK  7 active torsions:
REMARK  status: ('A' for Active; 'I' for Inactive)
REMARK    1  A    between atoms: C_1  and  O_2
REMARK    2  A    between atoms: O_2  and  C_3
REMARK    3  A    between atoms: C_3  and  C_4
REMARK    4  A    between atoms: C_6  and  C_7
REMARK    5  A    between atoms: C_11  and  C_12
REMARK    6  A    between atoms: N_17  and  C_18
REMARK    7  A    between atoms: C_26  and  N_27
REMARK                            x       y       z     vdW  Elec       q    Type
REMARK                         _______ _______ _______ _____ _____    ______ ____
ROOT
ATOM      1  C   UNL     1      -5.333  12.515  20.339  0.00  0.00    +0.000 A 
ATOM      2  C   UNL     1      -6.071  12.654  21.533  0.00  0.00    +0.000 A 
ATOM      3  C   UNL     1      -5.440  13.031  22.713  0.00  0.00    +0.000 A 
ATOM      4  C   UNL     1      -6.213  13.182  23.987  0.00  0.00    +0.000 C 
ATOM      5  N   UNL     1      -4.132  13.317  22.797  0.00  0.00    +0.000 NA
ATOM      6  C   UNL     1      -3.448  13.185  21.647  0.00  0.00    +0.000 A 
ATOM      7  S   UNL     1      -1.835  13.696  21.571  0.00  0.00    +0.000 S 
ATOM      8  C   UNL     1      -1.606  12.989  20.026  0.00  0.00    +0.000 A 
ATOM      9  C   UNL     1      -2.838  12.655  19.479  0.00  0.00    +0.000 A 
ATOM     10  C   UNL     1      -3.930  12.747  20.420  0.00  0.00    +0.000 A 
ENDROOT
BRANCH   8  11
ATOM     11  C   UNL     1      -0.286  12.937  19.391  0.00  0.00    +0.000 C 
ATOM     12  O   UNL     1       0.220  13.956  18.912  0.00  0.00    +0.000 OA
ATOM     13  N   UNL     1       0.397  11.716  19.270  0.00  0.00    +0.000 N 
ATOM     14  C   UNL     1      -0.154  10.382  19.558  0.00  0.00    +0.000 C 
ATOM     15  C   UNL     1       0.222   9.351  18.489  0.00  0.00    +0.000 C 
ATOM     16  N   UNL     1       1.677   9.345  18.308  0.00  0.00    +0.000 N 
ATOM     17  C   UNL     1       2.244  10.643  17.913  0.00  0.00    +0.000 C 
ATOM     18  C   UNL     1       1.836  11.725  18.942  0.00  0.00    +0.000 C 
BRANCH  16  19
ATOM     19  C   UNL     1       2.403   8.177  18.401  0.00  0.00    +0.000 A 
ATOM     20  C   UNL     1       3.321   7.794  17.416  0.00  0.00    +0.000 A 
ATOM     21  C   UNL     1       4.041   6.597  17.513  0.00  0.00    +0.000 A 
ATOM     22  C   UNL     1       3.862   5.756  18.607  0.00  0.00    +0.000 A 
ATOM     23  C   UNL     1       2.966   6.117  19.606  0.00  0.00    +0.000 A 
ATOM     24  C   UNL     1       2.252   7.312  19.497  0.00  0.00    +0.000 A 
ENDBRANCH  16  19
ENDBRANCH   8  11
BRANCH   9  25
ATOM     25  N   UNL     1      -2.995  12.235  18.202  0.00  0.00    +0.000 N 
ATOM     26  H   UNL     1      -3.452  12.825  17.507  0.00  0.00    +0.000 HD
ATOM     27  H   UNL     1      -2.362  11.539  17.804  0.00  0.00    +0.000 HD
ENDBRANCH   9  25
BRANCH   1  28
ATOM     28  C   UNL     1      -6.074  12.235  19.053  0.00  0.00    +0.000 C 
BRANCH  28  30
ATOM     29  C   UNL     1      -6.881  10.030  18.994  0.00  0.00    +0.000 C 
ATOM     30  O   UNL     1      -5.826  10.904  18.607  0.00  0.00    +0.000 OA
ENDBRANCH  28  30
ENDBRANCH   1  28
TORSDOF 5
ENDMDL
MODEL 7
REMARK VINA RESULT:      -7.2      2.964      9.619
REMARK  Name = 
REMARK  7 active torsions:
REMARK  status: ('A' for Active; 'I' for Inactive)
REMARK    1  A    between atoms: C_1  and  O_2
REMARK    2  A    between atoms: O_2  and  C_3
REMARK    3  A    between atoms: C_3  and  C_4
REMARK    4  A    between atoms: C_6  and  C_7
REMARK    5  A    between atoms: C_11  and  C_12
REMARK    6  A    between atoms: N_17  and  C_18
REMARK    7  A    between atoms: C_26  and  N_27
REMARK                            x       y       z     vdW  Elec       q    Type
REMARK                         _______ _______ _______ _____ _____    ______ ____
ROOT
ATOM      1  C   UNL     1       4.981   4.383  18.551  0.00  0.00    +0.000 A 
ATOM      2  C   UNL     1       4.858   3.260  19.395  0.00  0.00    +0.000 A 
ATOM      3  C   UNL     1       3.776   3.141  20.260  0.00  0.00    +0.000 A 
ATOM      4  C   UNL     1       3.635   1.952  21.160  0.00  0.00    +0.000 C 
ATOM      5  N   UNL     1       2.781   4.038  20.331  0.00  0.00    +0.000 NA
ATOM      6  C   UNL     1       2.913   5.098  19.515  0.00  0.00    +0.000 A 
ATOM      7  S   UNL     1       1.639   6.204  19.369  0.00  0.00    +0.000 S 
ATOM      8  C   UNL     1       2.599   7.306  18.472  0.00  0.00    +0.000 A 
ATOM      9  C   UNL     1       3.759   6.672  18.046  0.00  0.00    +0.000 A 
ATOM     10  C   UNL     1       3.970   5.382  18.660  0.00  0.00    +0.000 A 
ENDROOT
BRANCH   8  11
ATOM     11  C   UNL     1       2.112   8.642  18.120  0.00  0.00    +0.000 C 
ATOM     12  O   UNL     1       2.532   9.217  17.112  0.00  0.00    +0.000 OA
ATOM     13  N   UNL     1       1.201   9.309  18.956  0.00  0.00    +0.000 N 
ATOM     14  C   UNL     1       0.789   8.884  20.303  0.00  0.00    +0.000 C 
ATOM     15  C   UNL     1       0.748  10.049  21.296  0.00  0.00    +0.000 C 
ATOM     16  N   UNL     1      -0.088  11.124  20.752  0.00  0.00    +0.000 N 
ATOM     17  C   UNL     1       0.364  11.645  19.453  0.00  0.00    +0.000 C 
ATOM     18  C   UNL     1       0.474  10.483  18.436  0.00  0.00    +0.000 C 
BRANCH  16  19
ATOM     19  C   UNL     1      -1.135  11.651  21.477  0.00  0.00    +0.000 A 
ATOM     20  C   UNL     1      -1.312  11.371  22.837  0.00  0.00    +0.000 A 
ATOM     21  C   UNL     1      -2.388  11.900  23.560  0.00  0.00    +0.000 A 
ATOM     22  C   UNL     1      -3.313  12.732  22.935  0.00  0.00    +0.000 A 
ATOM     23  C   UNL     1      -3.155  13.037  21.588  0.00  0.00    +0.000 A 
ATOM     24  C   UNL     1      -2.078  12.502  20.878  0.00  0.00    +0.000 A 
ENDBRANCH  16  19
ENDBRANCH   8  11
BRANCH   9  25
ATOM     25  N   UNL     1       4.635   7.230  17.177  0.00  0.00    +0.000 N 
ATOM     26  H   UNL     1       4.311   7.673  16.317  0.00  0.00    +0.000 HD
ATOM     27  H   UNL     1       5.543   7.567  17.502  0.00  0.00    +0.000 HD
ENDBRANCH   9  25
BRANCH   1  28
ATOM     28  C   UNL     1       6.095   4.412  17.533  0.00  0.00    +0.000 C 
BRANCH  28  30
ATOM     29  C   UNL     1       7.663   5.749  18.660  0.00  0.00    +0.000 C 
ATOM     30  O   UNL     1       7.367   4.443  18.177  0.00  0.00    +0.000 OA
ENDBRANCH  28  30
ENDBRANCH   1  28
TORSDOF 5
ENDMDL
MODEL 8
REMARK VINA RESULT:      -7.2      1.891      8.770
REMARK  Name = 
REMARK  7 active torsions:
REMARK  status: ('A' for Active; 'I' for Inactive)
REMARK    1  A    between atoms: C_1  and  O_2
REMARK    2  A    between atoms: O_2  and  C_3
REMARK    3  A    between atoms: C_3  and  C_4
REMARK    4  A    between atoms: C_6  and  C_7
REMARK    5  A    between atoms: C_11  and  C_12
REMARK    6  A    between atoms: N_17  and  C_18
REMARK    7  A    between atoms: C_26  and  N_27
REMARK                            x       y       z     vdW  Elec       q    Type
REMARK                         _______ _______ _______ _____ _____    ______ ____
ROOT
ATOM      1  C   UNL     1       3.482   3.366  17.362  0.00  0.00    +0.000 A 
ATOM      2  C   UNL     1       4.398   3.348  16.290  0.00  0.00    +0.000 A 
ATOM      3  C   UNL     1       5.045   4.513  15.893  0.00  0.00    +0.000 A 
ATOM      4  C   UNL     1       6.019   4.507  14.756  0.00  0.00    +0.000 C 
ATOM      5  N   UNL     1       4.879   5.698  16.502  0.00  0.00    +0.000 NA
ATOM      6  C   UNL     1       4.007   5.692  17.526  0.00  0.00    +0.000 A 
ATOM      7  S   UNL     1       3.851   7.072  18.496  0.00  0.00    +0.000 S 
ATOM      8  C   UNL     1       2.476   6.439  19.302  0.00  0.00    +0.000 A 
ATOM      9  C   UNL     1       2.361   5.082  19.031  0.00  0.00    +0.000 A 
ATOM     10  C   UNL     1       3.240   4.627  17.979  0.00  0.00    +0.000 A 
ENDROOT
BRANCH   8  11
ATOM     11  C   UNL     1       1.696   7.246  20.244  0.00  0.00    +0.000 C 
ATOM     12  O   UNL     1       1.184   6.728  21.241  0.00  0.00    +0.000 OA
ATOM     13  N   UNL     1       1.476   8.611  19.997  0.00  0.00    +0.000 N 
ATOM     14  C   UNL     1       1.798   9.330  18.753  0.00  0.00    +0.000 C 
ATOM     15  C   UNL     1       0.674  10.274  18.317  0.00  0.00    +0.000 C 
ATOM     16  N   UNL     1       0.331  11.169  19.426  0.00  0.00    +0.000 N 
ATOM     17  C   UNL     1      -0.100  10.480  20.651  0.00  0.00    +0.000 C 
ATOM     18  C   UNL     1       0.989   9.472  21.092  0.00  0.00    +0.000 C 
BRANCH  16  19
ATOM     19  C   UNL     1       0.319  12.538  19.261  0.00  0.00    +0.000 A 
ATOM     20  C   UNL     1       1.422  13.235  18.754  0.00  0.00    +0.000 A 
ATOM     21  C   UNL     1       1.403  14.627  18.606  0.00  0.00    +0.000 A 
ATOM     22  C   UNL     1       0.271  15.356  18.959  0.00  0.00    +0.000 A 
ATOM     23  C   UNL     1      -0.844  14.689  19.454  0.00  0.00    +0.000 A 
ATOM     24  C   UNL     1      -0.812  13.301  19.598  0.00  0.00    +0.000 A 
ENDBRANCH  16  19
ENDBRANCH   8  11
BRANCH   9  25
ATOM     25  N   UNL     1       1.476   4.271  19.657  0.00  0.00    +0.000 N 
ATOM     26  H   UNL     1       0.519   4.575  19.835  0.00  0.00    +0.000 HD
ATOM     27  H   UNL     1       1.590   3.256  19.623  0.00  0.00    +0.000 HD
ENDBRANCH   9  25
BRANCH   1  28
ATOM     28  C   UNL     1       2.904   2.059  17.848  0.00  0.00    +0.000 C 
BRANCH  28  30
ATOM     29  C   UNL     1       4.296   1.968  19.738  0.00  0.00    +0.000 C 
ATOM     30  O   UNL     1       3.888   1.300  18.549  0.00  0.00    +0.000 OA
ENDBRANCH  28  30
ENDBRANCH   1  28
TORSDOF 5
ENDMDL
MODEL 9
REMARK VINA RESULT:      -7.1      1.653      2.703
REMARK  Name = 
REMARK  7 active torsions:
REMARK  status: ('A' for Active; 'I' for Inactive)
REMARK    1  A    between atoms: C_1  and  O_2
REMARK    2  A    between atoms: O_2  and  C_3
REMARK    3  A    between atoms: C_3  and  C_4
REMARK    4  A    between atoms: C_6  and  C_7
REMARK    5  A    between atoms: C_11  and  C_12
REMARK    6  A    between atoms: N_17  and  C_18
REMARK    7  A    between atoms: C_26  and  N_27
REMARK                            x       y       z     vdW  Elec       q    Type
REMARK                         _______ _______ _______ _____ _____    ______ ____
ROOT
ATOM      1  C   UNL     1      -0.313  12.540  21.426  0.00  0.00    +0.000 A 
ATOM      2  C   UNL     1      -0.382  13.689  20.611  0.00  0.00    +0.000 A 
ATOM      3  C   UNL     1       0.015  13.636  19.280  0.00  0.00    +0.000 A 
ATOM      4  C   UNL     1      -0.054  14.850  18.405  0.00  0.00    +0.000 C 
ATOM      5  N   UNL     1       0.446  12.517  18.678  0.00  0.00    +0.000 NA
ATOM      6  C   UNL     1       0.499  11.432  19.470  0.00  0.00    +0.000 A 
ATOM      7  S   UNL     1       0.843   9.919  18.790  0.00  0.00    +0.000 S 
ATOM      8  C   UNL     1       1.007   9.182  20.330  0.00  0.00    +0.000 A 
ATOM      9  C   UNL     1       0.496  10.026  21.307  0.00  0.00    +0.000 A 
ATOM     10  C   UNL     1       0.207  11.357  20.825  0.00  0.00    +0.000 A 
ENDROOT
BRANCH   8  11
ATOM     11  C   UNL     1       1.475   7.802  20.477  0.00  0.00    +0.000 C 
ATOM     12  O   UNL     1       1.254   7.171  21.515  0.00  0.00    +0.000 OA
ATOM     13  N   UNL     1       2.230   7.195  19.459  0.00  0.00    +0.000 N 
ATOM     14  C   UNL     1       2.791   7.870  18.277  0.00  0.00    +0.000 C 
ATOM     15  C   UNL     1       4.231   7.438  17.986  0.00  0.00    +0.000 C 
ATOM     16  N   UNL     1       4.294   5.976  17.898  0.00  0.00    +0.000 N 
ATOM     17  C   UNL     1       3.842   5.276  19.109  0.00  0.00    +0.000 C 
ATOM     18  C   UNL     1       2.406   5.731  19.468  0.00  0.00    +0.000 C 
BRANCH  16  19
ATOM     19  C   UNL     1       4.841   5.350  16.798  0.00  0.00    +0.000 A 
ATOM     20  C   UNL     1       5.018   3.963  16.746  0.00  0.00    +0.000 A 
ATOM     21  C   UNL     1       5.590   3.340  15.630  0.00  0.00    +0.000 A 
ATOM     22  C   UNL     1       5.994   4.096  14.533  0.00  0.00    +0.000 A 
ATOM     23  C   UNL     1       5.819   5.475  14.553  0.00  0.00    +0.000 A 
ATOM     24  C   UNL     1       5.249   6.084  15.672  0.00  0.00    +0.000 A 
ENDBRANCH  16  19
ENDBRANCH   8  11
BRANCH   9  25
ATOM     25  N   UNL     1       0.330   9.655  22.598  0.00  0.00    +0.000 N 
ATOM     26  H   UNL     1       1.063   9.151  23.098  0.00  0.00    +0.000 HD
ATOM     27  H   UNL     1      -0.311  10.168  23.206  0.00  0.00    +0.000 HD
ENDBRANCH   9  25
BRANCH   1  28
ATOM     28  C   UNL     1      -0.877  12.603  22.825  0.00  0.00    +0.000 C 
BRANCH  28  30
ATOM     29  C   UNL     1      -3.205  12.403  23.068  0.00  0.00    +0.000 C 
ATOM     30  O   UNL     1      -1.971  11.699  22.970  0.00  0.00    +0.000 OA
ENDBRANCH  28  30
ENDBRANCH   1  28
TORSDOF 5
ENDMDL
