MODEL 1
REMARK VINA RESULT:      -7.9      0.000      0.000
REMARK  Name = 
REMARK  7 active torsions:
REMARK  status: ('A' for Active; 'I' for Inactive)
REMARK    1  A    between atoms: C_1  and  C_2
REMARK    2  A    between atoms: C_2  and  C_3
REMARK    3  A    between atoms: C_6  and  N_7
REMARK    4  A    between atoms: C_9  and  C_10
REMARK    5  A    between atoms: C_13  and  C_14
REMARK    6  A    between atoms: C_27  and  C_28
REMARK    7  A    between atoms: C_28  and  O_30
REMARK                            x       y       z     vdW  Elec       q    Type
REMARK                         _______ _______ _______ _____ _____    ______ ____
ROOT
ATOM      1  N   UNL     1      -0.291  12.469  20.995  0.00  0.00    +0.000 N 
ATOM      2  C   UNL     1      -0.044  11.619  19.953  0.00  0.00    +0.000 A 
ATOM      3  C   UNL     1       0.540  10.521  20.548  0.00  0.00    +0.000 A 
ATOM      4  N   UNL     1       0.512  10.689  21.908  0.00  0.00    +0.000 NA
ATOM      5  N   UNL     1      -0.019  11.875  22.172  0.00  0.00    +0.000 NA
ENDROOT
BRANCH   1  11
ATOM      6  C   UNL     1      -4.496  12.764  24.223  0.00  0.00    +0.000 C 
ATOM      7  C   UNL     1      -4.105  13.677  23.056  0.00  0.00    +0.000 C 
ATOM      8  C   UNL     1      -5.335  14.399  22.498  0.00  0.00    +0.000 C 
ATOM      9  S   UNL     1      -3.423  12.617  21.687  0.00  0.00    +0.000 S 
ATOM     10  C   UNL     1      -2.341  13.946  21.061  0.00  0.00    +0.000 C 
ATOM     11  C   UNL     1      -0.804  13.800  20.947  0.00  0.00    +0.000 C 
ATOM     12  C   UNL     1      -0.784  14.595  22.258  0.00  0.00    +0.000 C 
ATOM     13  O   UNL     1      -0.009  14.903  23.131  0.00  0.00    +0.000 OA
ATOM     14  N   UNL     1      -2.129  14.829  22.223  0.00  0.00    +0.000 N 
ATOM     15  C   UNL     1      -2.917  14.579  23.433  0.00  0.00    +0.000 C 
BRANCH  15  16
ATOM     16  C   UNL     1      -3.255  15.877  24.172  0.00  0.00    +0.000 C 
ATOM     17  O   UNL     1      -3.234  16.988  23.662  0.00  0.00    +0.000 OA
BRANCH  16  18
ATOM     18  O   UNL     1      -3.733  15.683  25.426  0.00  0.00    +0.000 OA
ATOM     19  H   UNL     1      -3.797  16.512  25.948  0.00  0.00    +0.000 HD
ENDBRANCH  16  18
ENDBRANCH  15  16
ENDBRANCH   1  11
BRANCH   3  20
ATOM     20  C   UNL     1       1.141   9.390  19.870  0.00  0.00    +0.000 A 
ATOM     21  C   UNL     1       1.447   9.429  18.508  0.00  0.00    +0.000 A 
ATOM     22  C   UNL     1       2.078   8.346  17.880  0.00  0.00    +0.000 A 
ATOM     23  C   UNL     1       2.439   7.193  18.594  0.00  0.00    +0.000 A 
ATOM     24  C   UNL     1       2.120   7.161  19.962  0.00  0.00    +0.000 A 
ATOM     25  C   UNL     1       1.476   8.239  20.592  0.00  0.00    +0.000 A 
BRANCH  23  26
ATOM     26  C   UNL     1       3.134   6.066  17.930  0.00  0.00    +0.000 A 
ATOM     27  C   UNL     1       2.583   4.775  17.909  0.00  0.00    +0.000 A 
ATOM     28  C   UNL     1       3.274   3.746  17.284  0.00  0.00    +0.000 A 
ATOM     29  N   UNL     1       4.461   3.908  16.664  0.00  0.00    +0.000 NA
ATOM     30  C   UNL     1       4.980   5.151  16.681  0.00  0.00    +0.000 A 
ATOM     31  C   UNL     1       4.369   6.237  17.291  0.00  0.00    +0.000 A 
ENDBRANCH  23  26
ENDBRANCH   3  20
TORSDOF 5
ENDMDL
MODEL 2
REMARK VINA RESULT:      -7.9      2.453      3.422
REMARK  Name = 
REMARK  7 active torsions:
REMARK  status: ('A' for Active; 'I' for Inactive)
REMARK    1  A    between atoms: C_1  and  C_2
REMARK    2  A    between atoms: C_2  and  C_3
REMARK    3  A    between atoms: C_6  and  N_7
REMARK    4  A    between atoms: C_9  and  C_10
REMARK    5  A    between atoms: C_13  and  C_14
REMARK    6  A    between atoms: C_27  and  C_28
REMARK    7  A    between atoms: C_28  and  O_30
REMARK                            x       y       z     vdW  Elec       q    Type
REMARK                         _______ _______ _______ _____ _____    ______ ____
ROOT
ATOM      1  N   UNL     1      -2.357  13.267  21.553  0.00  0.00    +0.000 N 
ATOM      2  C   UNL     1      -1.586  12.153  21.730  0.00  0.00    +0.000 A 
ATOM      3  C   UNL     1      -0.975  11.971  20.508  0.00  0.00    +0.000 A 
ATOM      4  N   UNL     1      -1.293  13.027  19.694  0.00  0.00    +0.000 NA
ATOM      5  N   UNL     1      -2.122  13.826  20.351  0.00  0.00    +0.000 NA
ENDROOT
BRANCH   1  11
ATOM      6  C   UNL     1      -7.238  11.561  20.347  0.00  0.00    +0.000 C 
ATOM      7  C   UNL     1      -6.814  12.797  21.148  0.00  0.00    +0.000 C 
ATOM      8  C   UNL     1      -7.914  13.863  21.121  0.00  0.00    +0.000 C 
ATOM      9  S   UNL     1      -5.314  13.537  20.332  0.00  0.00    +0.000 S 
ATOM     10  C   UNL     1      -4.673  14.217  21.899  0.00  0.00    +0.000 C 
ATOM     11  C   UNL     1      -3.280  13.857  22.469  0.00  0.00    +0.000 C 
ATOM     12  C   UNL     1      -4.065  12.898  23.371  0.00  0.00    +0.000 C 
ATOM     13  O   UNL     1      -3.862  11.983  24.132  0.00  0.00    +0.000 OA
ATOM     14  N   UNL     1      -5.274  13.369  22.945  0.00  0.00    +0.000 N 
ATOM     15  C   UNL     1      -6.302  12.403  22.544  0.00  0.00    +0.000 C 
BRANCH  15  16
ATOM     16  C   UNL     1      -7.363  12.217  23.631  0.00  0.00    +0.000 C 
ATOM     17  O   UNL     1      -7.791  13.115  24.342  0.00  0.00    +0.000 OA
BRANCH  16  18
ATOM     18  O   UNL     1      -7.916  10.978  23.648  0.00  0.00    +0.000 OA
ATOM     19  H   UNL     1      -8.232  10.684  22.766  0.00  0.00    +0.000 HD
ENDBRANCH  16  18
ENDBRANCH  15  16
ENDBRANCH   1  11
BRANCH   3  20
ATOM     20  C   UNL     1      -0.170  10.835  20.105  0.00  0.00    +0.000 A 
ATOM     21  C   UNL     1       0.168  10.613  18.768  0.00  0.00    +0.000 A 
ATOM     22  C   UNL     1       0.993   9.541  18.402  0.00  0.00    +0.000 A 
ATOM     23  C   UNL     1       1.521   8.661  19.360  0.00  0.00    +0.000 A 
ATOM     24  C   UNL     1       1.168   8.889  20.701  0.00  0.00    +0.000 A 
ATOM     25  C   UNL     1       0.332   9.955  21.070  0.00  0.00    +0.000 A 
BRANCH  23  26
ATOM     26  C   UNL     1       2.417   7.549  18.968  0.00  0.00    +0.000 A 
ATOM     27  C   UNL     1       3.190   7.607  17.798  0.00  0.00    +0.000 A 
ATOM     28  C   UNL     1       4.008   6.537  17.463  0.00  0.00    +0.000 A 
ATOM     29  N   UNL     1       4.129   5.422  18.213  0.00  0.00    +0.000 NA
ATOM     30  C   UNL     1       3.391   5.377  19.340  0.00  0.00    +0.000 A 
ATOM     31  C   UNL     1       2.536   6.391  19.748  0.00  0.00    +0.000 A 
ENDBRANCH  23  26
ENDBRANCH   3  20
TORSDOF 5
ENDMDL
MODEL 3
REMARK VINA RESULT:      -7.9      3.248      4.660
REMARK  Name = 
REMARK  7 active torsions:
REMARK  status: ('A' for Active; 'I' for Inactive)
REMARK    1  A    between atoms: C_1  and  C_2
REMARK    2  A    between atoms: C_2  and  C_3
REMARK    3  A    between atoms: C_6  and  N_7
REMARK    4  A    between atoms: C_9  and  C_10
REMARK    5  A    between atoms: C_13  and  C_14
REMARK    6  A    between atoms: C_27  and  C_28
REMARK    7  A    between atoms: C_28  and  O_30
REMARK                            x       y       z     vdW  Elec       q    Type
REMARK                         _______ _______ _______ _____ _____    ______ ____
ROOT
ATOM      1  N   UNL     1       0.240  12.649  20.945  0.00  0.00    +0.000 N 
ATOM      2  C   UNL     1       0.553  11.827  19.899  0.00  0.00    +0.000 A 
ATOM      3  C   UNL     1       0.756  10.598  20.489  0.00  0.00    +0.000 A 
ATOM      4  N   UNL     1       0.443  10.690  21.820  0.00  0.00    +0.000 NA
ATOM      5  N   UNL     1       0.107  11.945  22.085  0.00  0.00    +0.000 NA
ENDROOT
BRANCH   1  11
ATOM      6  C   UNL     1       4.652  14.998  19.158  0.00  0.00    +0.000 C 
ATOM      7  C   UNL     1       3.503  15.593  19.980  0.00  0.00    +0.000 C 
ATOM      8  C   UNL     1       3.975  16.824  20.759  0.00  0.00    +0.000 C 
ATOM      9  S   UNL     1       2.962  14.327  21.232  0.00  0.00    +0.000 S 
ATOM     10  C   UNL     1       1.246  14.945  21.265  0.00  0.00    +0.000 C 
ATOM     11  C   UNL     1       0.023  14.060  20.926  0.00  0.00    +0.000 C 
ATOM     12  C   UNL     1       0.095  14.750  19.558  0.00  0.00    +0.000 C 
ATOM     13  O   UNL     1      -0.375  14.640  18.451  0.00  0.00    +0.000 OA
ATOM     14  N   UNL     1       1.069  15.616  19.963  0.00  0.00    +0.000 N 
ATOM     15  C   UNL     1       2.249  15.795  19.112  0.00  0.00    +0.000 C 
BRANCH  15  16
ATOM     16  C   UNL     1       2.180  17.094  18.306  0.00  0.00    +0.000 C 
ATOM     17  O   UNL     1       2.821  17.312  17.289  0.00  0.00    +0.000 OA
BRANCH  16  18
ATOM     18  O   UNL     1       1.218  17.951  18.733  0.00  0.00    +0.000 OA
ATOM     19  H   UNL     1       0.768  17.649  19.552  0.00  0.00    +0.000 HD
ENDBRANCH  16  18
ENDBRANCH  15  16
ENDBRANCH   1  11
BRANCH   3  20
ATOM     20  C   UNL     1       1.267   9.404  19.845  0.00  0.00    +0.000 A 
ATOM     21  C   UNL     1       1.571   9.380  18.481  0.00  0.00    +0.000 A 
ATOM     22  C   UNL     1       2.115   8.234  17.885  0.00  0.00    +0.000 A 
ATOM     23  C   UNL     1       2.388   7.078  18.632  0.00  0.00    +0.000 A 
ATOM     24  C   UNL     1       2.071   7.110  20.001  0.00  0.00    +0.000 A 
ATOM     25  C   UNL     1       1.514   8.252  20.599  0.00  0.00    +0.000 A 
BRANCH  23  26
ATOM     26  C   UNL     1       2.992   5.882  18.001  0.00  0.00    +0.000 A 
ATOM     27  C   UNL     1       2.287   4.672  17.897  0.00  0.00    +0.000 A 
ATOM     28  C   UNL     1       2.896   3.573  17.307  0.00  0.00    +0.000 A 
ATOM     29  N   UNL     1       4.145   3.592  16.797  0.00  0.00    +0.000 NA
ATOM     30  C   UNL     1       4.813   4.758  16.892  0.00  0.00    +0.000 A 
ATOM     31  C   UNL     1       4.291   5.904  17.476  0.00  0.00    +0.000 A 
ENDBRANCH  23  26
ENDBRANCH   3  20
TORSDOF 5
ENDMDL
MODEL 4
REMARK VINA RESULT:      -7.9      0.142      1.040
REMARK  Name = 
REMARK  7 active torsions:
REMARK  status: ('A' for Active; 'I' for Inactive)
REMARK    1  A    between atoms: C_1  and  C_2
REMARK    2  A    between atoms: C_2  and  C_3
REMARK    3  A    between atoms: C_6  and  N_7
REMARK    4  A    between atoms: C_9  and  C_10
REMARK    5  A    between atoms: C_13  and  C_14
REMARK    6  A    between atoms: C_27  and  C_28
REMARK    7  A    between atoms: C_28  and  O_30
REMARK                            x       y       z     vdW  Elec       q    Type
REMARK                         _______ _______ _______ _____ _____    ______ ____
ROOT
ATOM      1  N   UNL     1      -0.274  12.450  20.976  0.00  0.00    +0.000 N 
ATOM      2  C   UNL     1      -0.028  11.597  19.936  0.00  0.00    +0.000 A 
ATOM      3  C   UNL     1       0.555  10.501  20.535  0.00  0.00    +0.000 A 
ATOM      4  N   UNL     1       0.527  10.673  21.894  0.00  0.00    +0.000 NA
ATOM      5  N   UNL     1      -0.003  11.860  22.154  0.00  0.00    +0.000 NA
ENDROOT
BRANCH   1  11
ATOM      6  C   UNL     1      -4.355  12.815  24.353  0.00  0.00    +0.000 C 
ATOM      7  C   UNL     1      -4.005  13.706  23.155  0.00  0.00    +0.000 C 
ATOM      8  C   UNL     1      -5.254  14.421  22.631  0.00  0.00    +0.000 C 
ATOM      9  S   UNL     1      -3.378  12.620  21.781  0.00  0.00    +0.000 S 
ATOM     10  C   UNL     1      -2.317  13.934  21.091  0.00  0.00    +0.000 C 
ATOM     11  C   UNL     1      -0.786  13.782  20.922  0.00  0.00    +0.000 C 
ATOM     12  C   UNL     1      -0.715  14.600  22.217  0.00  0.00    +0.000 C 
ATOM     13  O   UNL     1       0.093  14.921  23.055  0.00  0.00    +0.000 OA
ATOM     14  N   UNL     1      -2.060  14.837  22.228  0.00  0.00    +0.000 N 
ATOM     15  C   UNL     1      -2.803  14.611  23.472  0.00  0.00    +0.000 C 
BRANCH  15  16
ATOM     16  C   UNL     1      -3.109  15.922  24.199  0.00  0.00    +0.000 C 
ATOM     17  O   UNL     1      -3.325  16.013  25.399  0.00  0.00    +0.000 OA
BRANCH  16  18
ATOM     18  O   UNL     1      -2.974  17.024  23.420  0.00  0.00    +0.000 OA
ATOM     19  H   UNL     1      -2.037  17.271  23.259  0.00  0.00    +0.000 HD
ENDBRANCH  16  18
ENDBRANCH  15  16
ENDBRANCH   1  11
BRANCH   3  20
ATOM     20  C   UNL     1       1.155   9.366  19.861  0.00  0.00    +0.000 A 
ATOM     21  C   UNL     1       1.434   9.389  18.493  0.00  0.00    +0.000 A 
ATOM     22  C   UNL     1       2.065   8.305  17.868  0.00  0.00    +0.000 A 
ATOM     23  C   UNL     1       2.452   7.165  18.590  0.00  0.00    +0.000 A 
ATOM     24  C   UNL     1       2.160   7.149  19.965  0.00  0.00    +0.000 A 
ATOM     25  C   UNL     1       1.517   8.229  20.592  0.00  0.00    +0.000 A 
BRANCH  23  26
ATOM     26  C   UNL     1       3.146   6.037  17.928  0.00  0.00    +0.000 A 
ATOM     27  C   UNL     1       4.411   6.196  17.340  0.00  0.00    +0.000 A 
ATOM     28  C   UNL     1       5.019   5.114  16.721  0.00  0.00    +0.000 A 
ATOM     29  N   UNL     1       4.474   3.882  16.657  0.00  0.00    +0.000 NA
ATOM     30  C   UNL     1       3.263   3.733  17.231  0.00  0.00    +0.000 A 
ATOM     31  C   UNL     1       2.573   4.760  17.860  0.00  0.00    +0.000 A 
ENDBRANCH  23  26
ENDBRANCH   3  20
TORSDOF 5
ENDMDL
MODEL 5
REMARK VINA RESULT:      -7.9      1.679      2.459
REMARK  Name = 
REMARK  7 active torsions:
REMARK  status: ('A' for Active; 'I' for Inactive)
REMARK    1  A    between atoms: C_1  and  C_2
REMARK    2  A    between atoms: C_2  and  C_3
REMARK    3  A    between atoms: C_6  and  N_7
REMARK    4  A    between atoms: C_9  and  C_10
REMARK    5  A    between atoms: C_13  and  C_14
REMARK    6  A    between atoms: C_27  and  C_28
REMARK    7  A    between atoms: C_28  and  O_30
REMARK                            x       y       z     vdW  Elec       q    Type
REMARK                         _______ _______ _______ _____ _____    ______ ____
ROOT
ATOM      1  N   UNL     1      -1.123  11.495  21.883  0.00  0.00    +0.000 N 
ATOM      2  C   UNL     1      -0.045  10.660  21.777  0.00  0.00    +0.000 A 
ATOM      3  C   UNL     1       0.034  10.387  20.428  0.00  0.00    +0.000 A 
ATOM      4  N   UNL     1      -0.896  11.147  19.768  0.00  0.00    +0.000 NA
ATOM      5  N   UNL     1      -1.585  11.838  20.666  0.00  0.00    +0.000 NA
ENDROOT
BRANCH   1  11
ATOM      6  C   UNL     1      -2.040  16.674  21.156  0.00  0.00    +0.000 C 
ATOM      7  C   UNL     1      -1.926  15.884  22.464  0.00  0.00    +0.000 C 
ATOM      8  C   UNL     1      -1.533  16.808  23.621  0.00  0.00    +0.000 C 
ATOM      9  S   UNL     1      -0.563  14.632  22.276  0.00  0.00    +0.000 S 
ATOM     10  C   UNL     1      -1.334  13.467  23.449  0.00  0.00    +0.000 C 
ATOM     11  C   UNL     1      -1.722  12.018  23.068  0.00  0.00    +0.000 C 
ATOM     12  C   UNL     1      -3.136  12.594  22.930  0.00  0.00    +0.000 C 
ATOM     13  O   UNL     1      -4.218  12.275  22.499  0.00  0.00    +0.000 OA
ATOM     14  N   UNL     1      -2.768  13.812  23.426  0.00  0.00    +0.000 N 
ATOM     15  C   UNL     1      -3.175  15.019  22.699  0.00  0.00    +0.000 C 
BRANCH  15  16
ATOM     16  C   UNL     1      -4.368  15.709  23.364  0.00  0.00    +0.000 C 
ATOM     17  O   UNL     1      -5.162  16.433  22.780  0.00  0.00    +0.000 OA
BRANCH  16  18
ATOM     18  O   UNL     1      -4.571  15.330  24.651  0.00  0.00    +0.000 OA
ATOM     19  H   UNL     1      -4.240  15.985  25.303  0.00  0.00    +0.000 HD
ENDBRANCH  16  18
ENDBRANCH  15  16
ENDBRANCH   1  11
BRANCH   3  20
ATOM     20  C   UNL     1       0.910   9.422  19.792  0.00  0.00    +0.000 A 
ATOM     21  C   UNL     1       1.401   8.312  20.483  0.00  0.00    +0.000 A 
ATOM     22  C   UNL     1       2.202   7.360  19.838  0.00  0.00    +0.000 A 
ATOM     23  C   UNL     1       2.528   7.475  18.477  0.00  0.00    +0.000 A 
ATOM     24  C   UNL     1       2.035   8.600  17.795  0.00  0.00    +0.000 A 
ATOM     25  C   UNL     1       1.243   9.563  18.441  0.00  0.00    +0.000 A 
BRANCH  23  26
ATOM     26  C   UNL     1       3.349   6.448  17.796  0.00  0.00    +0.000 A 
ATOM     27  C   UNL     1       3.028   5.084  17.869  0.00  0.00    +0.000 A 
ATOM     28  C   UNL     1       3.831   4.155  17.224  0.00  0.00    +0.000 A 
ATOM     29  N   UNL     1       4.920   4.481  16.497  0.00  0.00    +0.000 NA
ATOM     30  C   UNL     1       5.219   5.793  16.424  0.00  0.00    +0.000 A 
ATOM     31  C   UNL     1       4.482   6.791  17.046  0.00  0.00    +0.000 A 
ENDBRANCH  23  26
ENDBRANCH   3  20
TORSDOF 5
ENDMDL
MODEL 6
REMARK VINA RESULT:      -7.8      3.386      5.066
REMARK  Name = 
REMARK  7 active torsions:
REMARK  status: ('A' for Active; 'I' for Inactive)
REMARK    1  A    between atoms: C_1  and  C_2
REMARK    2  A    between atoms: C_2  and  C_3
REMARK    3  A    between atoms: C_6  and  N_7
REMARK    4  A    between atoms: C_9  and  C_10
REMARK    5  A    between atoms: C_13  and  C_14
REMARK    6  A    between atoms: C_27  and  C_28
REMARK    7  A    between atoms: C_28  and  O_30
REMARK                            x       y       z     vdW  Elec       q    Type
REMARK                         _______ _______ _______ _____ _____    ______ ____
ROOT
ATOM      1  N   UNL     1       0.466  12.917  20.940  0.00  0.00    +0.000 N 
ATOM      2  C   UNL     1       0.902  12.092  19.941  0.00  0.00    +0.000 A 
ATOM      3  C   UNL     1       0.865  10.835  20.507  0.00  0.00    +0.000 A 
ATOM      4  N   UNL     1       0.303  10.928  21.754  0.00  0.00    +0.000 NA
ATOM      5  N   UNL     1       0.043  12.205  22.000  0.00  0.00    +0.000 NA
ENDROOT
BRANCH   1  11
ATOM      6  C   UNL     1       4.736  14.809  18.416  0.00  0.00    +0.000 C 
ATOM      7  C   UNL     1       3.807  15.515  19.409  0.00  0.00    +0.000 C 
ATOM      8  C   UNL     1       4.525  16.688  20.084  0.00  0.00    +0.000 C 
ATOM      9  S   UNL     1       3.355  14.305  20.749  0.00  0.00    +0.000 S 
ATOM     10  C   UNL     1       1.741  15.096  21.059  0.00  0.00    +0.000 C 
ATOM     11  C   UNL     1       0.394  14.343  20.939  0.00  0.00    +0.000 C 
ATOM     12  C   UNL     1       0.307  15.028  19.569  0.00  0.00    +0.000 C 
ATOM     13  O   UNL     1      -0.348  14.972  18.557  0.00  0.00    +0.000 OA
ATOM     14  N   UNL     1       1.419  15.788  19.796  0.00  0.00    +0.000 N 
ATOM     15  C   UNL     1       2.453  15.848  18.759  0.00  0.00    +0.000 C 
BRANCH  15  16
ATOM     16  C   UNL     1       2.383  17.151  17.959  0.00  0.00    +0.000 C 
ATOM     17  O   UNL     1       2.816  17.290  16.824  0.00  0.00    +0.000 OA
BRANCH  16  18
ATOM     18  O   UNL     1       1.655  18.124  18.562  0.00  0.00    +0.000 OA
ATOM     19  H   UNL     1       1.873  19.026  18.241  0.00  0.00    +0.000 HD
ENDBRANCH  16  18
ENDBRANCH  15  16
ENDBRANCH   1  11
BRANCH   3  20
ATOM     20  C   UNL     1       1.376   9.610  19.924  0.00  0.00    +0.000 A 
ATOM     21  C   UNL     1       1.565   8.457  20.690  0.00  0.00    +0.000 A 
ATOM     22  C   UNL     1       2.008   7.266  20.099  0.00  0.00    +0.000 A 
ATOM     23  C   UNL     1       2.264   7.180  18.722  0.00  0.00    +0.000 A 
ATOM     24  C   UNL     1       2.078   8.348  17.963  0.00  0.00    +0.000 A 
ATOM     25  C   UNL     1       1.647   9.547  18.553  0.00  0.00    +0.000 A 
BRANCH  23  26
ATOM     26  C   UNL     1       2.703   5.909  18.101  0.00  0.00    +0.000 A 
ATOM     27  C   UNL     1       3.983   5.769  17.542  0.00  0.00    +0.000 A 
ATOM     28  C   UNL     1       4.348   4.563  16.961  0.00  0.00    +0.000 A 
ATOM     29  N   UNL     1       3.544   3.481  16.910  0.00  0.00    +0.000 NA
ATOM     30  C   UNL     1       2.320   3.619  17.456  0.00  0.00    +0.000 A 
ATOM     31  C   UNL     1       1.863   4.789  18.047  0.00  0.00    +0.000 A 
ENDBRANCH  23  26
ENDBRANCH   3  20
TORSDOF 5
ENDMDL
MODEL 7
REMARK VINA RESULT:      -7.8      0.172      1.234
REMARK  Name = 
REMARK  7 active torsions:
REMARK  status: ('A' for Active; 'I' for Inactive)
REMARK    1  A    between atoms: C_1  and  C_2
REMARK    2  A    between atoms: C_2  and  C_3
REMARK    3  A    between atoms: C_6  and  N_7
REMARK    4  A    between atoms: C_9  and  C_10
REMARK    5  A    between atoms: C_13  and  C_14
REMARK    6  A    between atoms: C_27  and  C_28
REMARK    7  A    between atoms: C_28  and  O_30
REMARK                            x       y       z     vdW  Elec       q    Type
REMARK                         _______ _______ _______ _____ _____    ______ ____
ROOT
ATOM      1  N   UNL     1      -0.301  12.450  21.043  0.00  0.00    +0.000 N 
ATOM      2  C   UNL     1       0.029  11.614  20.012  0.00  0.00    +0.000 A 
ATOM      3  C   UNL     1       0.560  10.506  20.638  0.00  0.00    +0.000 A 
ATOM      4  N   UNL     1       0.419  10.654  21.994  0.00  0.00    +0.000 NA
ATOM      5  N   UNL     1      -0.130  11.839  22.229  0.00  0.00    +0.000 NA
ENDROOT
BRANCH   1  11
ATOM      6  C   UNL     1      -4.592  12.792  24.150  0.00  0.00    +0.000 C 
ATOM      7  C   UNL     1      -4.163  13.694  22.988  0.00  0.00    +0.000 C 
ATOM      8  C   UNL     1      -5.373  14.419  22.390  0.00  0.00    +0.000 C 
ATOM      9  S   UNL     1      -3.450  12.621  21.646  0.00  0.00    +0.000 S 
ATOM     10  C   UNL     1      -2.343  13.938  21.041  0.00  0.00    +0.000 C 
ATOM     11  C   UNL     1      -0.805  13.783  20.970  0.00  0.00    +0.000 C 
ATOM     12  C   UNL     1      -0.817  14.588  22.276  0.00  0.00    +0.000 C 
ATOM     13  O   UNL     1      -0.064  14.897  23.168  0.00  0.00    +0.000 OA
ATOM     14  N   UNL     1      -2.159  14.829  22.202  0.00  0.00    +0.000 N 
ATOM     15  C   UNL     1      -2.982  14.592  23.392  0.00  0.00    +0.000 C 
BRANCH  15  16
ATOM     16  C   UNL     1      -3.332  15.897  24.112  0.00  0.00    +0.000 C 
ATOM     17  O   UNL     1      -3.303  17.003  23.591  0.00  0.00    +0.000 OA
BRANCH  16  18
ATOM     18  O   UNL     1      -3.833  15.715  25.359  0.00  0.00    +0.000 OA
ATOM     19  H   UNL     1      -3.976  14.770  25.584  0.00  0.00    +0.000 HD
ENDBRANCH  16  18
ENDBRANCH  15  16
ENDBRANCH   1  11
BRANCH   3  20
ATOM     20  C   UNL     1       1.212   9.381  19.997  0.00  0.00    +0.000 A 
ATOM     21  C   UNL     1       1.519   8.214  20.700  0.00  0.00    +0.000 A 
ATOM     22  C   UNL     1       2.100   7.115  20.052  0.00  0.00    +0.000 A 
ATOM     23  C   UNL     1       2.382   7.139  18.677  0.00  0.00    +0.000 A 
ATOM     24  C   UNL     1       2.077   8.321  17.982  0.00  0.00    +0.000 A 
ATOM     25  C   UNL     1       1.506   9.428  18.630  0.00  0.00    +0.000 A 
BRANCH  23  26
ATOM     26  C   UNL     1       2.968   5.963  17.994  0.00  0.00    +0.000 A 
ATOM     27  C   UNL     1       4.223   6.027  17.369  0.00  0.00    +0.000 A 
ATOM     28  C   UNL     1       4.729   4.903  16.731  0.00  0.00    +0.000 A 
ATOM     29  N   UNL     1       4.090   3.716  16.684  0.00  0.00    +0.000 NA
ATOM     30  C   UNL     1       2.889   3.658  17.294  0.00  0.00    +0.000 A 
ATOM     31  C   UNL     1       2.299   4.733  17.944  0.00  0.00    +0.000 A 
ENDBRANCH  23  26
ENDBRANCH   3  20
TORSDOF 5
ENDMDL
MODEL 8
REMARK VINA RESULT:      -7.8      0.831      1.237
REMARK  Name = 
REMARK  7 active torsions:
REMARK  status: ('A' for Active; 'I' for Inactive)
REMARK    1  A    between atoms: C_1  and  C_2
REMARK    2  A    between atoms: C_2  and  C_3
REMARK    3  A    between atoms: C_6  and  N_7
REMARK    4  A    between atoms: C_9  and  C_10
REMARK    5  A    between atoms: C_13  and  C_14
REMARK    6  A    between atoms: C_27  and  C_28
REMARK    7  A    between atoms: C_28  and  O_30
REMARK                            x       y       z     vdW  Elec       q    Type
REMARK                         _______ _______ _______ _____ _____    ______ ____
ROOT
ATOM      1  N   UNL     1      -0.221  12.472  21.553  0.00  0.00    +0.000 N 
ATOM      2  C   UNL     1       0.214  11.750  20.476  0.00  0.00    +0.000 A 
ATOM      3  C   UNL     1       0.487  10.504  20.998  0.00  0.00    +0.000 A 
ATOM      4  N   UNL     1       0.098  10.480  22.312  0.00  0.00    +0.000 NA
ATOM      5  N   UNL     1      -0.355  11.684  22.636  0.00  0.00    +0.000 NA
ENDROOT
BRANCH   1  11
ATOM      6  C   UNL     1      -5.452  12.913  22.348  0.00  0.00    +0.000 C 
ATOM      7  C   UNL     1      -4.467  13.944  21.785  0.00  0.00    +0.000 C 
ATOM      8  C   UNL     1      -5.198  14.972  20.916  0.00  0.00    +0.000 C 
ATOM      9  S   UNL     1      -3.257  13.058  20.685  0.00  0.00    +0.000 S 
ATOM     10  C   UNL     1      -1.924  14.260  21.013  0.00  0.00    +0.000 C 
ATOM     11  C   UNL     1      -0.553  13.859  21.610  0.00  0.00    +0.000 C 
ATOM     12  C   UNL     1      -1.148  14.373  22.927  0.00  0.00    +0.000 C 
ATOM     13  O   UNL     1      -0.902  14.361  24.109  0.00  0.00    +0.000 OA
ATOM     14  N   UNL     1      -2.272  14.852  22.319  0.00  0.00    +0.000 N 
ATOM     15  C   UNL     1      -3.579  14.525  22.899  0.00  0.00    +0.000 C 
BRANCH  15  16
ATOM     16  C   UNL     1      -4.159  15.697  23.693  0.00  0.00    +0.000 C 
ATOM     17  O   UNL     1      -3.843  16.867  23.530  0.00  0.00    +0.000 OA
BRANCH  16  18
ATOM     18  O   UNL     1      -5.185  15.349  24.510  0.00  0.00    +0.000 OA
ATOM     19  H   UNL     1      -6.058  15.358  24.059  0.00  0.00    +0.000 HD
ENDBRANCH  16  18
ENDBRANCH  15  16
ENDBRANCH   1  11
BRANCH   3  20
ATOM     20  C   UNL     1       1.127   9.401  20.310  0.00  0.00    +0.000 A 
ATOM     21  C   UNL     1       1.417   8.199  20.961  0.00  0.00    +0.000 A 
ATOM     22  C   UNL     1       1.987   7.123  20.267  0.00  0.00    +0.000 A 
ATOM     23  C   UNL     1       2.273   7.204  18.895  0.00  0.00    +0.000 A 
ATOM     24  C   UNL     1       1.985   8.420  18.252  0.00  0.00    +0.000 A 
ATOM     25  C   UNL     1       1.426   9.504  18.947  0.00  0.00    +0.000 A 
BRANCH  23  26
ATOM     26  C   UNL     1       2.847   6.052  18.162  0.00  0.00    +0.000 A 
ATOM     27  C   UNL     1       2.154   4.836  18.049  0.00  0.00    +0.000 A 
ATOM     28  C   UNL     1       2.734   3.779  17.362  0.00  0.00    +0.000 A 
ATOM     29  N   UNL     1       3.942   3.845  16.765  0.00  0.00    +0.000 NA
ATOM     30  C   UNL     1       4.598   5.017  16.870  0.00  0.00    +0.000 A 
ATOM     31  C   UNL     1       4.103   6.123  17.547  0.00  0.00    +0.000 A 
ENDBRANCH  23  26
ENDBRANCH   3  20
TORSDOF 5
ENDMDL
MODEL 9
REMARK VINA RESULT:      -7.8      2.313      3.065
REMARK  Name = 
REMARK  7 active torsions:
REMARK  status: ('A' for Active; 'I' for Inactive)
REMARK    1  A    between atoms: C_1  and  C_2
REMARK    2  A    between atoms: C_2  and  C_3
REMARK    3  A    between atoms: C_6  and  N_7
REMARK    4  A    between atoms: C_9  and  C_10
REMARK    5  A    between atoms: C_13  and  C_14
REMARK    6  A    between atoms: C_27  and  C_28
REMARK    7  A    between atoms: C_28  and  O_30
REMARK                            x       y       z     vdW  Elec       q    Type
REMARK                         _______ _______ _______ _____ _____    ______ ____
ROOT
ATOM      1  N   UNL     1      -2.000  12.370  20.612  0.00  0.00    +0.000 N 
ATOM      2  C   UNL     1      -0.802  11.734  20.781  0.00  0.00    +0.000 A 
ATOM      3  C   UNL     1      -0.699  10.916  19.675  0.00  0.00    +0.000 A 
ATOM      4  N   UNL     1      -1.752  11.173  18.837  0.00  0.00    +0.000 NA
ATOM      5  N   UNL     1      -2.531  12.080  19.410  0.00  0.00    +0.000 NA
ENDROOT
BRANCH   1  11
ATOM      6  C   UNL     1      -7.206  11.336  20.490  0.00  0.00    +0.000 C 
ATOM      7  C   UNL     1      -6.481  12.605  20.950  0.00  0.00    +0.000 C 
ATOM      8  C   UNL     1      -7.409  13.821  20.862  0.00  0.00    +0.000 C 
ATOM      9  S   UNL     1      -5.057  12.918  19.795  0.00  0.00    +0.000 S 
ATOM     10  C   UNL     1      -4.065  13.749  21.081  0.00  0.00    +0.000 C 
ATOM     11  C   UNL     1      -2.659  13.265  21.509  0.00  0.00    +0.000 C 
ATOM     12  C   UNL     1      -3.403  12.633  22.691  0.00  0.00    +0.000 C 
ATOM     13  O   UNL     1      -3.201  11.849  23.587  0.00  0.00    +0.000 OA
ATOM     14  N   UNL     1      -4.589  13.219  22.354  0.00  0.00    +0.000 N 
ATOM     15  C   UNL     1      -5.796  12.388  22.310  0.00  0.00    +0.000 C 
BRANCH  15  16
ATOM     16  C   UNL     1      -6.669  12.586  23.553  0.00  0.00    +0.000 C 
ATOM     17  O   UNL     1      -7.466  11.761  23.975  0.00  0.00    +0.000 OA
BRANCH  16  18
ATOM     18  O   UNL     1      -6.377  13.711  24.252  0.00  0.00    +0.000 OA
ATOM     19  H   UNL     1      -6.570  14.536  23.755  0.00  0.00    +0.000 HD
ENDBRANCH  16  18
ENDBRANCH  15  16
ENDBRANCH   1  11
BRANCH   3  20
ATOM     20  C   UNL     1       0.314   9.907  19.439  0.00  0.00    +0.000 A 
ATOM     21  C   UNL     1       0.770   9.072  20.463  0.00  0.00    +0.000 A 
ATOM     22  C   UNL     1       1.709   8.065  20.205  0.00  0.00    +0.000 A 
ATOM     23  C   UNL     1       2.215   7.846  18.914  0.00  0.00    +0.000 A 
ATOM     24  C   UNL     1       1.756   8.696  17.894  0.00  0.00    +0.000 A 
ATOM     25  C   UNL     1       0.824   9.715  18.151  0.00  0.00    +0.000 A 
BRANCH  23  26
ATOM     26  C   UNL     1       3.185   6.759  18.645  0.00  0.00    +0.000 A 
ATOM     27  C   UNL     1       3.950   6.733  17.468  0.00  0.00    +0.000 A 
ATOM     28  C   UNL     1       4.838   5.689  17.252  0.00  0.00    +0.000 A 
ATOM     29  N   UNL     1       5.037   4.680  18.125  0.00  0.00    +0.000 NA
ATOM     30  C   UNL     1       4.306   4.716  19.257  0.00  0.00    +0.000 A 
ATOM     31  C   UNL     1       3.385   5.711  19.552  0.00  0.00    +0.000 A 
ENDBRANCH  23  26
ENDBRANCH   3  20
TORSDOF 5
ENDMDL
