MODEL 1
REMARK VINA RESULT:      -7.7      0.000      0.000
REMARK  Name = 
REMARK  4 active torsions:
REMARK  status: ('A' for Active; 'I' for Inactive)
REMARK    1  A    between atoms: C_1  and  O_2
REMARK    2  A    between atoms: O_2  and  C_3
REMARK    3  A    between atoms: N_9  and  C_10
REMARK    4  A    between atoms: C_10  and  C_11
REMARK                            x       y       z     vdW  Elec       q    Type
REMARK                         _______ _______ _______ _____ _____    ______ ____
ROOT
ATOM      1  C   UNL     1       6.320   4.211  16.685  0.00  0.00    +0.000 A 
ATOM      2  C   UNL     1       7.418   4.851  17.277  0.00  0.00    +0.000 A 
ATOM      3  C   UNL     1       7.270   5.496  18.498  0.00  0.00    +0.000 A 
ATOM      4  C   UNL     1       6.023   5.520  19.113  0.00  0.00    +0.000 A 
ATOM      5  C   UNL     1       4.904   4.885  18.521  0.00  0.00    +0.000 A 
ATOM      6  C   UNL     1       3.598   4.923  19.055  0.00  0.00    +0.000 A 
ATOM      7  N   UNL     1       3.358   5.668  20.221  0.00  0.00    +0.000 N 
ATOM      8  N   UNL     1       2.562   4.308  18.465  0.00  0.00    +0.000 NA
ATOM      9  C   UNL     1       2.826   3.660  17.329  0.00  0.00    +0.000 A 
ATOM     10  N   UNL     1       4.010   3.587  16.718  0.00  0.00    +0.000 NA
ATOM     11  C   UNL     1       5.051   4.212  17.298  0.00  0.00    +0.000 A 
ATOM     12  H   UNL     1       3.864   5.272  21.007  0.00  0.00    +0.000 HD
ENDROOT
BRANCH   1  14
ATOM     13  C   UNL     1       6.600   4.470  14.327  0.00  0.00    +0.000 C 
ATOM     14  O   UNL     1       6.387   3.616  15.441  0.00  0.00    +0.000 OA
ENDBRANCH   1  14
BRANCH   7  15
ATOM     15  C   UNL     1       1.963   5.948  20.533  0.00  0.00    +0.000 C 
BRANCH  15  16
ATOM     16  C   UNL     1       1.667   7.389  20.167  0.00  0.00    +0.000 A 
ATOM     17  C   UNL     1       1.966   7.894  18.882  0.00  0.00    +0.000 A 
ATOM     18  C   UNL     1       1.717   9.236  18.562  0.00  0.00    +0.000 A 
ATOM     19  C   UNL     1       1.176  10.042  19.541  0.00  0.00    +0.000 A 
ATOM     20  C   UNL     1       0.890   9.563  20.796  0.00  0.00    +0.000 A 
ATOM     21  C   UNL     1       1.128   8.252  21.141  0.00  0.00    +0.000 A 
ATOM     22  O   UNL     1       0.370  10.515  21.614  0.00  0.00    +0.000 OA
ATOM     23  C   UNL     1       0.376  11.657  20.736  0.00  0.00    +0.000 C 
ATOM     24  O   UNL     1       0.869  11.361  19.411  0.00  0.00    +0.000 OA
ENDBRANCH  15  16
ENDBRANCH   7  15
TORSDOF 3
ENDMDL
MODEL 2
REMARK VINA RESULT:      -7.6      0.657      1.430
REMARK  Name = 
REMARK  4 active torsions:
REMARK  status: ('A' for Active; 'I' for Inactive)
REMARK    1  A    between atoms: C_1  and  O_2
REMARK    2  A    between atoms: O_2  and  C_3
REMARK    3  A    between atoms: N_9  and  C_10
REMARK    4  A    between atoms: C_10  and  C_11
REMARK                            x       y       z     vdW  Elec       q    Type
REMARK                         _______ _______ _______ _____ _____    ______ ____
ROOT
ATOM      1  C   UNL     1       6.421   4.336  16.772  0.00  0.00    +0.000 A 
ATOM      2  C   UNL     1       7.479   4.964  17.443  0.00  0.00    +0.000 A 
ATOM      3  C   UNL     1       7.269   5.533  18.693  0.00  0.00    +0.000 A 
ATOM      4  C   UNL     1       5.999   5.492  19.259  0.00  0.00    +0.000 A 
ATOM      5  C   UNL     1       4.919   4.869  18.586  0.00  0.00    +0.000 A 
ATOM      6  C   UNL     1       3.593   4.845  19.070  0.00  0.00    +0.000 A 
ATOM      7  N   UNL     1       3.290   5.515  20.266  0.00  0.00    +0.000 N 
ATOM      8  N   UNL     1       2.596   4.243  18.404  0.00  0.00    +0.000 NA
ATOM      9  C   UNL     1       2.919   3.669  17.244  0.00  0.00    +0.000 A 
ATOM     10  N   UNL     1       4.128   3.659  16.677  0.00  0.00    +0.000 NA
ATOM     11  C   UNL     1       5.130   4.272  17.334  0.00  0.00    +0.000 A 
ATOM     12  H   UNL     1       3.775   5.085  21.048  0.00  0.00    +0.000 HD
ENDROOT
BRANCH   1  14
ATOM     13  C   UNL     1       6.819   4.736  14.451  0.00  0.00    +0.000 C 
ATOM     14  O   UNL     1       6.549   3.817  15.499  0.00  0.00    +0.000 OA
ENDBRANCH   1  14
BRANCH   7  15
ATOM     15  C   UNL     1       1.877   5.744  20.539  0.00  0.00    +0.000 C 
BRANCH  15  16
ATOM     16  C   UNL     1       1.597   7.228  20.412  0.00  0.00    +0.000 A 
ATOM     17  C   UNL     1       0.948   7.941  21.444  0.00  0.00    +0.000 A 
ATOM     18  C   UNL     1       0.665   9.307  21.307  0.00  0.00    +0.000 A 
ATOM     19  C   UNL     1       1.037   9.927  20.133  0.00  0.00    +0.000 A 
ATOM     20  C   UNL     1       1.660   9.241  19.119  0.00  0.00    +0.000 A 
ATOM     21  C   UNL     1       1.947   7.899  19.224  0.00  0.00    +0.000 A 
ATOM     22  O   UNL     1       1.938  10.028  18.047  0.00  0.00    +0.000 OA
ATOM     23  C   UNL     1       1.402  11.289  18.494  0.00  0.00    +0.000 C 
ATOM     24  O   UNL     1       0.845  11.238  19.825  0.00  0.00    +0.000 OA
ENDBRANCH  15  16
ENDBRANCH   7  15
TORSDOF 3
ENDMDL
MODEL 3
REMARK VINA RESULT:      -7.5      3.060      8.510
REMARK  Name = 
REMARK  4 active torsions:
REMARK  status: ('A' for Active; 'I' for Inactive)
REMARK    1  A    between atoms: C_1  and  O_2
REMARK    2  A    between atoms: O_2  and  C_3
REMARK    3  A    between atoms: N_9  and  C_10
REMARK    4  A    between atoms: C_10  and  C_11
REMARK                            x       y       z     vdW  Elec       q    Type
REMARK                         _______ _______ _______ _____ _____    ______ ____
ROOT
ATOM      1  C   UNL     1      -1.171  11.529  21.840  0.00  0.00    +0.000 A 
ATOM      2  C   UNL     1      -1.213  10.895  23.089  0.00  0.00    +0.000 A 
ATOM      3  C   UNL     1      -0.443   9.763  23.321  0.00  0.00    +0.000 A 
ATOM      4  C   UNL     1       0.350   9.254  22.298  0.00  0.00    +0.000 A 
ATOM      5  C   UNL     1       0.394   9.879  21.028  0.00  0.00    +0.000 A 
ATOM      6  C   UNL     1       1.124   9.383  19.926  0.00  0.00    +0.000 A 
ATOM      7  N   UNL     1       1.821   8.171  20.059  0.00  0.00    +0.000 N 
ATOM      8  N   UNL     1       1.143  10.004  18.737  0.00  0.00    +0.000 NA
ATOM      9  C   UNL     1       0.420  11.122  18.641  0.00  0.00    +0.000 A 
ATOM     10  N   UNL     1      -0.332  11.662  19.603  0.00  0.00    +0.000 NA
ATOM     11  C   UNL     1      -0.364  11.037  20.794  0.00  0.00    +0.000 A 
ATOM     12  H   UNL     1       2.566   8.261  20.744  0.00  0.00    +0.000 HD
ENDROOT
BRANCH   1  14
ATOM     13  C   UNL     1      -3.275  12.634  22.077  0.00  0.00    +0.000 C 
ATOM     14  O   UNL     1      -1.966  12.613  21.527  0.00  0.00    +0.000 OA
ENDBRANCH   1  14
BRANCH   7  15
ATOM     15  C   UNL     1       2.268   7.544  18.821  0.00  0.00    +0.000 C 
BRANCH  15  16
ATOM     16  C   UNL     1       2.380   6.051  19.051  0.00  0.00    +0.000 A 
ATOM     17  C   UNL     1       2.026   5.472  20.290  0.00  0.00    +0.000 A 
ATOM     18  C   UNL     1       2.162   4.093  20.505  0.00  0.00    +0.000 A 
ATOM     19  C   UNL     1       2.653   3.326  19.470  0.00  0.00    +0.000 A 
ATOM     20  C   UNL     1       3.009   3.880  18.265  0.00  0.00    +0.000 A 
ATOM     21  C   UNL     1       2.891   5.230  18.027  0.00  0.00    +0.000 A 
ATOM     22  O   UNL     1       3.476   2.958  17.382  0.00  0.00    +0.000 OA
ATOM     23  C   UNL     1       3.390   1.758  18.176  0.00  0.00    +0.000 C 
ATOM     24  O   UNL     1       2.851   1.981  19.497  0.00  0.00    +0.000 OA
ENDBRANCH  15  16
ENDBRANCH   7  15
TORSDOF 3
ENDMDL
MODEL 4
REMARK VINA RESULT:      -7.5      2.622      8.372
REMARK  Name = 
REMARK  4 active torsions:
REMARK  status: ('A' for Active; 'I' for Inactive)
REMARK    1  A    between atoms: C_1  and  O_2
REMARK    2  A    between atoms: O_2  and  C_3
REMARK    3  A    between atoms: N_9  and  C_10
REMARK    4  A    between atoms: C_10  and  C_11
REMARK                            x       y       z     vdW  Elec       q    Type
REMARK                         _______ _______ _______ _____ _____    ______ ____
ROOT
ATOM      1  C   UNL     1      -0.820  11.278  21.949  0.00  0.00    +0.000 A 
ATOM      2  C   UNL     1      -0.812  10.455  23.084  0.00  0.00    +0.000 A 
ATOM      3  C   UNL     1      -0.076   9.277  23.083  0.00  0.00    +0.000 A 
ATOM      4  C   UNL     1       0.634   8.915  21.943  0.00  0.00    +0.000 A 
ATOM      5  C   UNL     1       0.627   9.733  20.787  0.00  0.00    +0.000 A 
ATOM      6  C   UNL     1       1.270   9.397  19.576  0.00  0.00    +0.000 A 
ATOM      7  N   UNL     1       1.924   8.159  19.470  0.00  0.00    +0.000 N 
ATOM      8  N   UNL     1       1.241  10.199  18.501  0.00  0.00    +0.000 NA
ATOM      9  C   UNL     1       0.559  11.339  18.630  0.00  0.00    +0.000 A 
ATOM     10  N   UNL     1      -0.112  11.740  19.711  0.00  0.00    +0.000 NA
ATOM     11  C   UNL     1      -0.097  10.935  20.789  0.00  0.00    +0.000 A 
ATOM     12  H   UNL     1       2.711   8.117  20.111  0.00  0.00    +0.000 HD
ENDROOT
BRANCH   1  14
ATOM     13  C   UNL     1      -1.552  13.309  22.971  0.00  0.00    +0.000 C 
ATOM     14  O   UNL     1      -1.589  12.421  21.863  0.00  0.00    +0.000 OA
ENDBRANCH   1  14
BRANCH   7  15
ATOM     15  C   UNL     1       2.271   7.725  18.123  0.00  0.00    +0.000 C 
BRANCH  15  16
ATOM     16  C   UNL     1       3.419   6.740  18.215  0.00  0.00    +0.000 A 
ATOM     17  C   UNL     1       3.477   5.777  19.247  0.00  0.00    +0.000 A 
ATOM     18  C   UNL     1       4.558   4.890  19.343  0.00  0.00    +0.000 A 
ATOM     19  C   UNL     1       5.560   4.992  18.401  0.00  0.00    +0.000 A 
ATOM     20  C   UNL     1       5.518   5.931  17.399  0.00  0.00    +0.000 A 
ATOM     21  C   UNL     1       4.472   6.818  17.283  0.00  0.00    +0.000 A 
ATOM     22  O   UNL     1       6.601   5.872  16.580  0.00  0.00    +0.000 OA
ATOM     23  C   UNL     1       7.341   4.797  17.191  0.00  0.00    +0.000 C 
ATOM     24  O   UNL     1       6.678   4.220  18.337  0.00  0.00    +0.000 OA
ENDBRANCH  15  16
ENDBRANCH   7  15
TORSDOF 3
ENDMDL
MODEL 5
REMARK VINA RESULT:      -7.5      2.892      8.254
REMARK  Name = 
REMARK  4 active torsions:
REMARK  status: ('A' for Active; 'I' for Inactive)
REMARK    1  A    between atoms: C_1  and  O_2
REMARK    2  A    between atoms: O_2  and  C_3
REMARK    3  A    between atoms: N_9  and  C_10
REMARK    4  A    between atoms: C_10  and  C_11
REMARK                            x       y       z     vdW  Elec       q    Type
REMARK                         _______ _______ _______ _____ _____    ______ ____
ROOT
ATOM      1  C   UNL     1      -0.627  11.254  21.833  0.00  0.00    +0.000 A 
ATOM      2  C   UNL     1      -0.721  10.482  22.999  0.00  0.00    +0.000 A 
ATOM      3  C   UNL     1      -0.064   9.261  23.078  0.00  0.00    +0.000 A 
ATOM      4  C   UNL     1       0.667   8.805  21.986  0.00  0.00    +0.000 A 
ATOM      5  C   UNL     1       0.761   9.572  20.799  0.00  0.00    +0.000 A 
ATOM      6  C   UNL     1       1.430   9.144  19.632  0.00  0.00    +0.000 A 
ATOM      7  N   UNL     1       2.006   7.863  19.605  0.00  0.00    +0.000 N 
ATOM      8  N   UNL     1       1.499   9.899  18.525  0.00  0.00    +0.000 NA
ATOM      9  C   UNL     1       0.889  11.085  18.578  0.00  0.00    +0.000 A 
ATOM     10  N   UNL     1       0.202  11.574  19.612  0.00  0.00    +0.000 NA
ATOM     11  C   UNL     1       0.119  10.817  20.721  0.00  0.00    +0.000 A 
ATOM     12  H   UNL     1       2.761   7.798  20.280  0.00  0.00    +0.000 HD
ENDROOT
BRANCH   1  14
ATOM     13  C   UNL     1      -1.321  13.342  22.764  0.00  0.00    +0.000 C 
ATOM     14  O   UNL     1      -1.315  12.440  21.668  0.00  0.00    +0.000 OA
ENDBRANCH   1  14
BRANCH   7  15
ATOM     15  C   UNL     1       2.378   7.350  18.293  0.00  0.00    +0.000 C 
BRANCH  15  16
ATOM     16  C   UNL     1       2.577   5.852  18.400  0.00  0.00    +0.000 A 
ATOM     17  C   UNL     1       1.628   4.948  17.872  0.00  0.00    +0.000 A 
ATOM     18  C   UNL     1       1.804   3.563  18.003  0.00  0.00    +0.000 A 
ATOM     19  C   UNL     1       2.929   3.116  18.664  0.00  0.00    +0.000 A 
ATOM     20  C   UNL     1       3.852   3.987  19.189  0.00  0.00    +0.000 A 
ATOM     21  C   UNL     1       3.704   5.351  19.081  0.00  0.00    +0.000 A 
ATOM     22  O   UNL     1       4.882   3.349  19.806  0.00  0.00    +0.000 OA
ATOM     23  C   UNL     1       4.493   1.973  19.625  0.00  0.00    +0.000 C 
ATOM     24  O   UNL     1       3.263   1.817  18.884  0.00  0.00    +0.000 OA
ENDBRANCH  15  16
ENDBRANCH   7  15
TORSDOF 3
ENDMDL
MODEL 6
REMARK VINA RESULT:      -7.5      3.559      8.306
REMARK  Name = 
REMARK  4 active torsions:
REMARK  status: ('A' for Active; 'I' for Inactive)
REMARK    1  A    between atoms: C_1  and  O_2
REMARK    2  A    between atoms: O_2  and  C_3
REMARK    3  A    between atoms: N_9  and  C_10
REMARK    4  A    between atoms: C_10  and  C_11
REMARK                            x       y       z     vdW  Elec       q    Type
REMARK                         _______ _______ _______ _____ _____    ______ ____
ROOT
ATOM      1  C   UNL     1      -1.228  11.541  21.759  0.00  0.00    +0.000 A 
ATOM      2  C   UNL     1      -1.218  10.994  23.050  0.00  0.00    +0.000 A 
ATOM      3  C   UNL     1      -0.405   9.905  23.337  0.00  0.00    +0.000 A 
ATOM      4  C   UNL     1       0.379   9.352  22.329  0.00  0.00    +0.000 A 
ATOM      5  C   UNL     1       0.370   9.889  21.019  0.00  0.00    +0.000 A 
ATOM      6  C   UNL     1       1.088   9.342  19.934  0.00  0.00    +0.000 A 
ATOM      7  N   UNL     1       1.828   8.164  20.129  0.00  0.00    +0.000 N 
ATOM      8  N   UNL     1       1.055   9.880  18.705  0.00  0.00    +0.000 NA
ATOM      9  C   UNL     1       0.294  10.965  18.553  0.00  0.00    +0.000 A 
ATOM     10  N   UNL     1      -0.451  11.546  19.496  0.00  0.00    +0.000 NA
ATOM     11  C   UNL     1      -0.432  11.004  20.728  0.00  0.00    +0.000 A 
ATOM     12  H   UNL     1       2.586   8.324  20.785  0.00  0.00    +0.000 HD
ENDROOT
BRANCH   1  14
ATOM     13  C   UNL     1      -3.120  12.899  22.291  0.00  0.00    +0.000 C 
ATOM     14  O   UNL     1      -2.067  12.575  21.395  0.00  0.00    +0.000 OA
ENDBRANCH   1  14
BRANCH   7  15
ATOM     15  C   UNL     1       2.263   7.468  18.926  0.00  0.00    +0.000 C 
BRANCH  15  16
ATOM     16  C   UNL     1       2.191   5.976  19.179  0.00  0.00    +0.000 A 
ATOM     17  C   UNL     1       2.096   5.055  18.112  0.00  0.00    +0.000 A 
ATOM     18  C   UNL     1       1.998   3.678  18.356  0.00  0.00    +0.000 A 
ATOM     19  C   UNL     1       1.996   3.256  19.669  0.00  0.00    +0.000 A 
ATOM     20  C   UNL     1       2.078   4.143  20.714  0.00  0.00    +0.000 A 
ATOM     21  C   UNL     1       2.170   5.500  20.505  0.00  0.00    +0.000 A 
ATOM     22  O   UNL     1       2.053   3.528  21.926  0.00  0.00    +0.000 OA
ATOM     23  C   UNL     1       1.928   2.149  21.525  0.00  0.00    +0.000 C 
ATOM     24  O   UNL     1       1.909   1.967  20.093  0.00  0.00    +0.000 OA
ENDBRANCH  15  16
ENDBRANCH   7  15
TORSDOF 3
ENDMDL
MODEL 7
REMARK VINA RESULT:      -7.4      2.890      8.351
REMARK  Name = 
REMARK  4 active torsions:
REMARK  status: ('A' for Active; 'I' for Inactive)
REMARK    1  A    between atoms: C_1  and  O_2
REMARK    2  A    between atoms: O_2  and  C_3
REMARK    3  A    between atoms: N_9  and  C_10
REMARK    4  A    between atoms: C_10  and  C_11
REMARK                            x       y       z     vdW  Elec       q    Type
REMARK                         _______ _______ _______ _____ _____    ______ ____
ROOT
ATOM      1  C   UNL     1      -0.766  11.411  22.014  0.00  0.00    +0.000 A 
ATOM      2  C   UNL     1      -0.887  10.503  23.075  0.00  0.00    +0.000 A 
ATOM      3  C   UNL     1      -0.253   9.270  23.009  0.00  0.00    +0.000 A 
ATOM      4  C   UNL     1       0.483   8.937  21.876  0.00  0.00    +0.000 A 
ATOM      5  C   UNL     1       0.604   9.842  20.794  0.00  0.00    +0.000 A 
ATOM      6  C   UNL     1       1.279   9.548  19.589  0.00  0.00    +0.000 A 
ATOM      7  N   UNL     1       1.832   8.270  19.409  0.00  0.00    +0.000 N 
ATOM      8  N   UNL     1       1.374  10.432  18.584  0.00  0.00    +0.000 NA
ATOM      9  C   UNL     1       0.785  11.614  18.776  0.00  0.00    +0.000 A 
ATOM     10  N   UNL     1       0.095  11.986  19.856  0.00  0.00    +0.000 NA
ATOM     11  C   UNL     1      -0.015  11.099  20.863  0.00  0.00    +0.000 A 
ATOM     12  H   UNL     1       2.578   8.107  20.079  0.00  0.00    +0.000 HD
ENDROOT
BRANCH   1  14
ATOM     13  C   UNL     1      -2.848  12.578  21.912  0.00  0.00    +0.000 C 
ATOM     14  O   UNL     1      -1.430  12.621  21.989  0.00  0.00    +0.000 OA
ENDBRANCH   1  14
BRANCH   7  15
ATOM     15  C   UNL     1       2.210   7.914  18.048  0.00  0.00    +0.000 C 
BRANCH  15  16
ATOM     16  C   UNL     1       2.738   6.494  18.050  0.00  0.00    +0.000 A 
ATOM     17  C   UNL     1       4.124   6.228  18.110  0.00  0.00    +0.000 A 
ATOM     18  C   UNL     1       4.606   4.912  18.080  0.00  0.00    +0.000 A 
ATOM     19  C   UNL     1       3.684   3.891  17.987  0.00  0.00    +0.000 A 
ATOM     20  C   UNL     1       2.335   4.139  17.919  0.00  0.00    +0.000 A 
ATOM     21  C   UNL     1       1.833   5.420  17.941  0.00  0.00    +0.000 A 
ATOM     22  O   UNL     1       1.597   3.001  17.825  0.00  0.00    +0.000 OA
ATOM     23  C   UNL     1       2.638   2.005  17.825  0.00  0.00    +0.000 C 
ATOM     24  O   UNL     1       3.966   2.561  17.946  0.00  0.00    +0.000 OA
ENDBRANCH  15  16
ENDBRANCH   7  15
TORSDOF 3
ENDMDL
MODEL 8
REMARK VINA RESULT:      -7.4      3.056      8.380
REMARK  Name = 
REMARK  4 active torsions:
REMARK  status: ('A' for Active; 'I' for Inactive)
REMARK    1  A    between atoms: C_1  and  O_2
REMARK    2  A    between atoms: O_2  and  C_3
REMARK    3  A    between atoms: N_9  and  C_10
REMARK    4  A    between atoms: C_10  and  C_11
REMARK                            x       y       z     vdW  Elec       q    Type
REMARK                         _______ _______ _______ _____ _____    ______ ____
ROOT
ATOM      1  C   UNL     1      -1.188  11.428  21.976  0.00  0.00    +0.000 A 
ATOM      2  C   UNL     1      -1.111  10.696  23.169  0.00  0.00    +0.000 A 
ATOM      3  C   UNL     1      -0.284   9.583  23.250  0.00  0.00    +0.000 A 
ATOM      4  C   UNL     1       0.447   9.192  22.134  0.00  0.00    +0.000 A 
ATOM      5  C   UNL     1       0.371   9.918  20.920  0.00  0.00    +0.000 A 
ATOM      6  C   UNL     1       1.034   9.543  19.731  0.00  0.00    +0.000 A 
ATOM      7  N   UNL     1       1.783   8.355  19.712  0.00  0.00    +0.000 N 
ATOM      8  N   UNL     1       0.938  10.256  18.599  0.00  0.00    +0.000 NA
ATOM      9  C   UNL     1       0.170  11.346  18.648  0.00  0.00    +0.000 A 
ATOM     10  N   UNL     1      -0.527  11.774  19.703  0.00  0.00    +0.000 NA
ATOM     11  C   UNL     1      -0.445  11.056  20.838  0.00  0.00    +0.000 A 
ATOM     12  H   UNL     1       2.574   8.423  20.346  0.00  0.00    +0.000 HD
ENDROOT
BRANCH   1  14
ATOM     13  C   UNL     1      -2.689  12.994  22.977  0.00  0.00    +0.000 C 
ATOM     14  O   UNL     1      -2.044  12.498  21.812  0.00  0.00    +0.000 OA
ENDBRANCH   1  14
BRANCH   7  15
ATOM     15  C   UNL     1       2.158   7.848  18.398  0.00  0.00    +0.000 C 
BRANCH  15  16
ATOM     16  C   UNL     1       2.994   6.599  18.584  0.00  0.00    +0.000 A 
ATOM     17  C   UNL     1       4.183   6.397  17.847  0.00  0.00    +0.000 A 
ATOM     18  C   UNL     1       4.934   5.224  18.003  0.00  0.00    +0.000 A 
ATOM     19  C   UNL     1       4.474   4.277  18.893  0.00  0.00    +0.000 A 
ATOM     20  C   UNL     1       3.314   4.459  19.607  0.00  0.00    +0.000 A 
ATOM     21  C   UNL     1       2.554   5.598  19.472  0.00  0.00    +0.000 A 
ATOM     22  O   UNL     1       3.031   3.410  20.423  0.00  0.00    +0.000 OA
ATOM     23  C   UNL     1       4.138   2.535  20.129  0.00  0.00    +0.000 C 
ATOM     24  O   UNL     1       5.068   3.086  19.172  0.00  0.00    +0.000 OA
ENDBRANCH  15  16
ENDBRANCH   7  15
TORSDOF 3
ENDMDL
MODEL 9
REMARK VINA RESULT:      -7.4      2.180      3.607
REMARK  Name = 
REMARK  4 active torsions:
REMARK  status: ('A' for Active; 'I' for Inactive)
REMARK    1  A    between atoms: C_1  and  O_2
REMARK    2  A    between atoms: O_2  and  C_3
REMARK    3  A    between atoms: N_9  and  C_10
REMARK    4  A    between atoms: C_10  and  C_11
REMARK                            x       y       z     vdW  Elec       q    Type
REMARK                         _______ _______ _______ _____ _____    ______ ____
ROOT
ATOM      1  C   UNL     1       3.475   2.440  19.002  0.00  0.00    +0.000 A 
ATOM      2  C   UNL     1       2.155   1.970  18.961  0.00  0.00    +0.000 A 
ATOM      3  C   UNL     1       1.126   2.819  18.577  0.00  0.00    +0.000 A 
ATOM      4  C   UNL     1       1.414   4.142  18.257  0.00  0.00    +0.000 A 
ATOM      5  C   UNL     1       2.742   4.632  18.304  0.00  0.00    +0.000 A 
ATOM      6  C   UNL     1       3.099   5.975  18.055  0.00  0.00    +0.000 A 
ATOM      7  N   UNL     1       2.088   6.913  17.788  0.00  0.00    +0.000 N 
ATOM      8  N   UNL     1       4.370   6.403  18.109  0.00  0.00    +0.000 NA
ATOM      9  C   UNL     1       5.290   5.489  18.422  0.00  0.00    +0.000 A 
ATOM     10  N   UNL     1       5.063   4.206  18.709  0.00  0.00    +0.000 NA
ATOM     11  C   UNL     1       3.790   3.773  18.669  0.00  0.00    +0.000 A 
ATOM     12  H   UNL     1       1.614   6.687  16.919  0.00  0.00    +0.000 HD
ENDROOT
BRANCH   1  14
ATOM     13  C   UNL     1       4.735   1.595  20.847  0.00  0.00    +0.000 C 
ATOM     14  O   UNL     1       4.528   1.666  19.444  0.00  0.00    +0.000 OA
ENDBRANCH   1  14
BRANCH   7  15
ATOM     15  C   UNL     1       2.470   8.316  17.874  0.00  0.00    +0.000 C 
BRANCH  15  16
ATOM     16  C   UNL     1       1.548   9.007  18.858  0.00  0.00    +0.000 A 
ATOM     17  C   UNL     1       0.743  10.100  18.465  0.00  0.00    +0.000 A 
ATOM     18  C   UNL     1      -0.084  10.753  19.389  0.00  0.00    +0.000 A 
ATOM     19  C   UNL     1      -0.082  10.296  20.690  0.00  0.00    +0.000 A 
ATOM     20  C   UNL     1       0.704   9.241  21.085  0.00  0.00    +0.000 A 
ATOM     21  C   UNL     1       1.529   8.584  20.201  0.00  0.00    +0.000 A 
ATOM     22  O   UNL     1       0.566   8.951  22.405  0.00  0.00    +0.000 OA
ATOM     23  C   UNL     1      -0.386   9.957  22.804  0.00  0.00    +0.000 C 
ATOM     24  O   UNL     1      -0.816  10.804  21.716  0.00  0.00    +0.000 OA
ENDBRANCH  15  16
ENDBRANCH   7  15
TORSDOF 3
ENDMDL
