MODEL 1
REMARK VINA RESULT:      -8.7      0.000      0.000
REMARK  Name = 
REMARK  9 active torsions:
REMARK  status: ('A' for Active; 'I' for Inactive)
REMARK    1  A    between atoms: C_1  and  C_2
REMARK    2  A    between atoms: C_6  and  C_7
REMARK    3  A    between atoms: C_10  and  O_11
REMARK    4  A    between atoms: O_11  and  C_12
REMARK    5  A    between atoms: C_12  and  C_13
REMARK    6  A    between atoms: C_14  and  C_15
REMARK    7  A    between atoms: C_14  and  C_16
REMARK    8  A    between atoms: C_18  and  O_19
REMARK    9  A    between atoms: C_21  and  C_22
REMARK                            x       y       z     vdW  Elec       q    Type
REMARK                         _______ _______ _______ _____ _____    ______ ____
ROOT
ATOM      1  C   UNL     1       1.558   2.662  18.291  0.00  0.00    +0.000 C 
ATOM      2  C   UNL     1       3.026   2.995  18.219  0.00  0.00    +0.000 C 
ATOM      3  O   UNL     1       3.883   2.111  18.190  0.00  0.00    +0.000 OA
ATOM      4  N   UNL     1       3.317   4.346  18.189  0.00  0.00    +0.000 N 
ATOM      5  N   UNL     1       2.359   5.301  18.419  0.00  0.00    +0.000 NA
ATOM      6  C   UNL     1       2.980   6.433  18.557  0.00  0.00    +0.000 C 
ATOM      7  C   UNL     1       4.481   6.361  18.432  0.00  0.00    +0.000 C 
ATOM      8  C   UNL     1       4.674   4.878  18.156  0.00  0.00    +0.000 C 
ENDROOT
BRANCH   6   9
ATOM      9  C   UNL     1       2.271   7.703  18.855  0.00  0.00    +0.000 A 
ATOM     10  C   UNL     1       2.192   8.681  17.847  0.00  0.00    +0.000 A 
ATOM     11  C   UNL     1       1.457   9.854  18.045  0.00  0.00    +0.000 A 
ATOM     12  C   UNL     1       0.791  10.063  19.249  0.00  0.00    +0.000 A 
ATOM     13  C   UNL     1       0.936   9.133  20.283  0.00  0.00    +0.000 A 
ATOM     14  C   UNL     1       1.640   7.950  20.076  0.00  0.00    +0.000 A 
BRANCH  14  15
ATOM     15  O   UNL     1       1.663   7.037  21.094  0.00  0.00    +0.000 OA
ATOM     16  H   UNL     1       1.062   7.316  21.805  0.00  0.00    +0.000 HD
ENDBRANCH  14  15
BRANCH  12  17
ATOM     17  O   UNL     1      -0.002  11.181  19.328  0.00  0.00    +0.000 OA
BRANCH  17  18
ATOM     18  C   UNL     1      -1.382  10.907  19.069  0.00  0.00    +0.000 C 
BRANCH  18  19
ATOM     19  C   UNL     1      -1.587  10.440  17.665  0.00  0.00    +0.000 C 
ATOM     20  C   UNL     1      -2.804  10.295  17.103  0.00  0.00    +0.000 C 
ATOM     21  C   UNL     1      -4.101  10.618  17.799  0.00  0.00    +0.000 C 
ATOM     22  C   UNL     1      -2.959   9.784  15.698  0.00  0.00    +0.000 C 
ENDBRANCH  18  19
ENDBRANCH  17  18
ENDBRANCH  12  17
ENDBRANCH   6   9
BRANCH   8  23
ATOM     23  C   UNL     1       5.381   4.648  16.834  0.00  0.00    +0.000 A 
ATOM     24  C   UNL     1       6.782   4.697  16.773  0.00  0.00    +0.000 A 
ATOM     25  C   UNL     1       7.446   4.520  15.558  0.00  0.00    +0.000 A 
ATOM     26  C   UNL     1       6.719   4.294  14.392  0.00  0.00    +0.000 A 
ATOM     27  C   UNL     1       5.327   4.242  14.436  0.00  0.00    +0.000 A 
ATOM     28  C   UNL     1       4.661   4.414  15.650  0.00  0.00    +0.000 A 
ENDBRANCH   8  23
TORSDOF 6
ENDMDL
MODEL 2
REMARK VINA RESULT:      -8.4      1.453      2.395
REMARK  Name = 
REMARK  9 active torsions:
REMARK  status: ('A' for Active; 'I' for Inactive)
REMARK    1  A    between atoms: C_1  and  C_2
REMARK    2  A    between atoms: C_6  and  C_7
REMARK    3  A    between atoms: C_10  and  O_11
REMARK    4  A    between atoms: O_11  and  C_12
REMARK    5  A    between atoms: C_12  and  C_13
REMARK    6  A    between atoms: C_14  and  C_15
REMARK    7  A    between atoms: C_14  and  C_16
REMARK    8  A    between atoms: C_18  and  O_19
REMARK    9  A    between atoms: C_21  and  C_22
REMARK                            x       y       z     vdW  Elec       q    Type
REMARK                         _______ _______ _______ _____ _____    ______ ____
ROOT
ATOM      1  C   UNL     1       1.451   2.748  18.440  0.00  0.00    +0.000 C 
ATOM      2  C   UNL     1       2.926   3.050  18.359  0.00  0.00    +0.000 C 
ATOM      3  O   UNL     1       3.764   2.148  18.336  0.00  0.00    +0.000 OA
ATOM      4  N   UNL     1       3.244   4.394  18.314  0.00  0.00    +0.000 N 
ATOM      5  N   UNL     1       2.306   5.371  18.537  0.00  0.00    +0.000 NA
ATOM      6  C   UNL     1       2.951   6.492  18.661  0.00  0.00    +0.000 C 
ATOM      7  C   UNL     1       4.449   6.387  18.530  0.00  0.00    +0.000 C 
ATOM      8  C   UNL     1       4.611   4.898  18.269  0.00  0.00    +0.000 C 
ENDROOT
BRANCH   6   9
ATOM      9  C   UNL     1       2.269   7.778  18.948  0.00  0.00    +0.000 A 
ATOM     10  C   UNL     1       2.149   8.721  17.911  0.00  0.00    +0.000 A 
ATOM     11  C   UNL     1       1.435   9.908  18.103  0.00  0.00    +0.000 A 
ATOM     12  C   UNL     1       0.832  10.167  19.331  0.00  0.00    +0.000 A 
ATOM     13  C   UNL     1       1.020   9.272  20.389  0.00  0.00    +0.000 A 
ATOM     14  C   UNL     1       1.703   8.075  20.190  0.00  0.00    +0.000 A 
BRANCH  14  15
ATOM     15  O   UNL     1       1.768   7.199  21.237  0.00  0.00    +0.000 OA
ATOM     16  H   UNL     1       1.708   6.285  20.911  0.00  0.00    +0.000 HD
ENDBRANCH  14  15
BRANCH  12  17
ATOM     17  O   UNL     1       0.054  11.295  19.410  0.00  0.00    +0.000 OA
BRANCH  17  18
ATOM     18  C   UNL     1      -1.203  11.064  20.053  0.00  0.00    +0.000 C 
BRANCH  18  19
ATOM     19  C   UNL     1      -1.533  12.166  21.008  0.00  0.00    +0.000 C 
ATOM     20  C   UNL     1      -1.469  12.028  22.348  0.00  0.00    +0.000 C 
ATOM     21  C   UNL     1      -1.025  10.769  23.048  0.00  0.00    +0.000 C 
ATOM     22  C   UNL     1      -1.850  13.154  23.267  0.00  0.00    +0.000 C 
ENDBRANCH  18  19
ENDBRANCH  17  18
ENDBRANCH  12  17
ENDBRANCH   6   9
BRANCH   8  23
ATOM     23  C   UNL     1       5.308   4.639  16.947  0.00  0.00    +0.000 A 
ATOM     24  C   UNL     1       6.709   4.607  16.891  0.00  0.00    +0.000 A 
ATOM     25  C   UNL     1       7.366   4.403  15.676  0.00  0.00    +0.000 A 
ATOM     26  C   UNL     1       6.631   4.231  14.506  0.00  0.00    +0.000 A 
ATOM     27  C   UNL     1       5.238   4.261  14.546  0.00  0.00    +0.000 A 
ATOM     28  C   UNL     1       4.579   4.460  15.759  0.00  0.00    +0.000 A 
ENDBRANCH   8  23
TORSDOF 6
ENDMDL
MODEL 3
REMARK VINA RESULT:      -8.3      1.724      2.577
REMARK  Name = 
REMARK  9 active torsions:
REMARK  status: ('A' for Active; 'I' for Inactive)
REMARK    1  A    between atoms: C_1  and  C_2
REMARK    2  A    between atoms: C_6  and  C_7
REMARK    3  A    between atoms: C_10  and  O_11
REMARK    4  A    between atoms: O_11  and  C_12
REMARK    5  A    between atoms: C_12  and  C_13
REMARK    6  A    between atoms: C_14  and  C_15
REMARK    7  A    between atoms: C_14  and  C_16
REMARK    8  A    between atoms: C_18  and  O_19
REMARK    9  A    between atoms: C_21  and  C_22
REMARK                            x       y       z     vdW  Elec       q    Type
REMARK                         _______ _______ _______ _____ _____    ______ ____
ROOT
ATOM      1  C   UNL     1       1.412   2.749  18.503  0.00  0.00    +0.000 C 
ATOM      2  C   UNL     1       2.883   3.079  18.492  0.00  0.00    +0.000 C 
ATOM      3  O   UNL     1       3.738   2.194  18.498  0.00  0.00    +0.000 OA
ATOM      4  N   UNL     1       3.177   4.430  18.476  0.00  0.00    +0.000 N 
ATOM      5  N   UNL     1       2.212   5.386  18.667  0.00  0.00    +0.000 NA
ATOM      6  C   UNL     1       2.830   6.517  18.832  0.00  0.00    +0.000 C 
ATOM      7  C   UNL     1       4.334   6.441  18.769  0.00  0.00    +0.000 C 
ATOM      8  C   UNL     1       4.535   4.959  18.500  0.00  0.00    +0.000 C 
ENDROOT
BRANCH   6   9
ATOM      9  C   UNL     1       2.111   7.788  19.100  0.00  0.00    +0.000 A 
ATOM     10  C   UNL     1       1.913   8.686  18.037  0.00  0.00    +0.000 A 
ATOM     11  C   UNL     1       1.163   9.852  18.216  0.00  0.00    +0.000 A 
ATOM     12  C   UNL     1       0.600  10.135  19.458  0.00  0.00    +0.000 A 
ATOM     13  C   UNL     1       0.865   9.288  20.538  0.00  0.00    +0.000 A 
ATOM     14  C   UNL     1       1.584   8.110  20.354  0.00  0.00    +0.000 A 
BRANCH  14  15
ATOM     15  O   UNL     1       1.725   7.276  21.428  0.00  0.00    +0.000 OA
ATOM     16  H   UNL     1       1.024   6.603  21.422  0.00  0.00    +0.000 HD
ENDBRANCH  14  15
BRANCH  12  17
ATOM     17  O   UNL     1      -0.216  11.236  19.528  0.00  0.00    +0.000 OA
BRANCH  17  18
ATOM     18  C   UNL     1       0.037  12.048  20.678  0.00  0.00    +0.000 C 
BRANCH  18  19
ATOM     19  C   UNL     1      -1.238  12.477  21.329  0.00  0.00    +0.000 C 
ATOM     20  C   UNL     1      -1.747  11.880  22.426  0.00  0.00    +0.000 C 
ATOM     21  C   UNL     1      -1.083  10.739  23.152  0.00  0.00    +0.000 C 
ATOM     22  C   UNL     1      -3.054  12.324  23.020  0.00  0.00    +0.000 C 
ENDBRANCH  18  19
ENDBRANCH  17  18
ENDBRANCH  12  17
ENDBRANCH   6   9
BRANCH   8  23
ATOM     23  C   UNL     1       5.297   4.728  17.208  0.00  0.00    +0.000 A 
ATOM     24  C   UNL     1       4.602   4.645  15.993  0.00  0.00    +0.000 A 
ATOM     25  C   UNL     1       5.285   4.400  14.800  0.00  0.00    +0.000 A 
ATOM     26  C   UNL     1       6.667   4.233  14.810  0.00  0.00    +0.000 A 
ATOM     27  C   UNL     1       7.371   4.313  16.009  0.00  0.00    +0.000 A 
ATOM     28  C   UNL     1       6.692   4.562  17.202  0.00  0.00    +0.000 A 
ENDBRANCH   8  23
TORSDOF 6
ENDMDL
MODEL 4
REMARK VINA RESULT:      -8.2      0.675      1.278
REMARK  Name = 
REMARK  9 active torsions:
REMARK  status: ('A' for Active; 'I' for Inactive)
REMARK    1  A    between atoms: C_1  and  C_2
REMARK    2  A    between atoms: C_6  and  C_7
REMARK    3  A    between atoms: C_10  and  O_11
REMARK    4  A    between atoms: O_11  and  C_12
REMARK    5  A    between atoms: C_12  and  C_13
REMARK    6  A    between atoms: C_14  and  C_15
REMARK    7  A    between atoms: C_14  and  C_16
REMARK    8  A    between atoms: C_18  and  O_19
REMARK    9  A    between atoms: C_21  and  C_22
REMARK                            x       y       z     vdW  Elec       q    Type
REMARK                         _______ _______ _______ _____ _____    ______ ____
ROOT
ATOM      1  C   UNL     1       1.593   2.885  18.969  0.00  0.00    +0.000 C 
ATOM      2  C   UNL     1       3.049   3.258  18.842  0.00  0.00    +0.000 C 
ATOM      3  O   UNL     1       3.936   2.407  18.906  0.00  0.00    +0.000 OA
ATOM      4  N   UNL     1       3.291   4.606  18.653  0.00  0.00    +0.000 N 
ATOM      5  N   UNL     1       2.301   5.547  18.782  0.00  0.00    +0.000 NA
ATOM      6  C   UNL     1       2.883   6.709  18.781  0.00  0.00    +0.000 C 
ATOM      7  C   UNL     1       4.384   6.673  18.648  0.00  0.00    +0.000 C 
ATOM      8  C   UNL     1       4.627   5.177  18.543  0.00  0.00    +0.000 C 
ENDROOT
BRANCH   6   9
ATOM      9  C   UNL     1       2.131   7.979  18.937  0.00  0.00    +0.000 A 
ATOM     10  C   UNL     1       2.028   8.840  17.830  0.00  0.00    +0.000 A 
ATOM     11  C   UNL     1       1.254  10.002  17.897  0.00  0.00    +0.000 A 
ATOM     12  C   UNL     1       0.573  10.318  19.070  0.00  0.00    +0.000 A 
ATOM     13  C   UNL     1       0.741   9.510  20.198  0.00  0.00    +0.000 A 
ATOM     14  C   UNL     1       1.484   8.335  20.123  0.00  0.00    +0.000 A 
BRANCH  14  15
ATOM     15  O   UNL     1       1.529   7.538  21.233  0.00  0.00    +0.000 OA
ATOM     16  H   UNL     1       0.655   7.147  21.398  0.00  0.00    +0.000 HD
ENDBRANCH  14  15
BRANCH  12  17
ATOM     17  O   UNL     1      -0.256  11.411  19.026  0.00  0.00    +0.000 OA
BRANCH  17  18
ATOM     18  C   UNL     1      -1.512  11.188  19.674  0.00  0.00    +0.000 C 
BRANCH  18  19
ATOM     19  C   UNL     1      -2.644  11.720  18.857  0.00  0.00    +0.000 C 
ATOM     20  C   UNL     1      -3.205  11.040  17.835  0.00  0.00    +0.000 C 
ATOM     21  C   UNL     1      -2.790   9.654  17.415  0.00  0.00    +0.000 C 
ATOM     22  C   UNL     1      -4.316  11.636  17.018  0.00  0.00    +0.000 C 
ENDBRANCH  18  19
ENDBRANCH  17  18
ENDBRANCH  12  17
ENDBRANCH   6   9
BRANCH   8  23
ATOM     23  C   UNL     1       5.333   4.819  17.249  0.00  0.00    +0.000 A 
ATOM     24  C   UNL     1       4.588   4.633  16.075  0.00  0.00    +0.000 A 
ATOM     25  C   UNL     1       5.219   4.270  14.884  0.00  0.00    +0.000 A 
ATOM     26  C   UNL     1       6.599   4.089  14.853  0.00  0.00    +0.000 A 
ATOM     27  C   UNL     1       7.353   4.270  16.010  0.00  0.00    +0.000 A 
ATOM     28  C   UNL     1       6.725   4.636  17.201  0.00  0.00    +0.000 A 
ENDBRANCH   8  23
TORSDOF 6
ENDMDL
MODEL 5
REMARK VINA RESULT:      -8.1      1.274      1.774
REMARK  Name = 
REMARK  9 active torsions:
REMARK  status: ('A' for Active; 'I' for Inactive)
REMARK    1  A    between atoms: C_1  and  C_2
REMARK    2  A    between atoms: C_6  and  C_7
REMARK    3  A    between atoms: C_10  and  O_11
REMARK    4  A    between atoms: O_11  and  C_12
REMARK    5  A    between atoms: C_12  and  C_13
REMARK    6  A    between atoms: C_14  and  C_15
REMARK    7  A    between atoms: C_14  and  C_16
REMARK    8  A    between atoms: C_18  and  O_19
REMARK    9  A    between atoms: C_21  and  C_22
REMARK                            x       y       z     vdW  Elec       q    Type
REMARK                         _______ _______ _______ _____ _____    ______ ____
ROOT
ATOM      1  C   UNL     1       2.007   2.464  19.838  0.00  0.00    +0.000 C 
ATOM      2  C   UNL     1       3.403   2.977  19.589  0.00  0.00    +0.000 C 
ATOM      3  O   UNL     1       4.377   2.224  19.617  0.00  0.00    +0.000 OA
ATOM      4  N   UNL     1       3.489   4.333  19.334  0.00  0.00    +0.000 N 
ATOM      5  N   UNL     1       2.418   5.173  19.503  0.00  0.00    +0.000 NA
ATOM      6  C   UNL     1       2.874   6.387  19.416  0.00  0.00    +0.000 C 
ATOM      7  C   UNL     1       4.357   6.499  19.172  0.00  0.00    +0.000 C 
ATOM      8  C   UNL     1       4.748   5.031  19.104  0.00  0.00    +0.000 C 
ENDROOT
BRANCH   6   9
ATOM      9  C   UNL     1       2.007   7.580  19.583  0.00  0.00    +0.000 A 
ATOM     10  C   UNL     1       1.347   7.765  20.811  0.00  0.00    +0.000 A 
ATOM     11  C   UNL     1       0.594   8.918  21.051  0.00  0.00    +0.000 A 
ATOM     12  C   UNL     1       0.492   9.901  20.070  0.00  0.00    +0.000 A 
ATOM     13  C   UNL     1       1.077   9.683  18.819  0.00  0.00    +0.000 A 
ATOM     14  C   UNL     1       1.854   8.550  18.589  0.00  0.00    +0.000 A 
BRANCH  14  15
ATOM     15  O   UNL     1       2.479   8.443  17.378  0.00  0.00    +0.000 OA
ATOM     16  H   UNL     1       3.391   8.772  17.443  0.00  0.00    +0.000 HD
ENDBRANCH  14  15
BRANCH  12  17
ATOM     17  O   UNL     1      -0.167  11.054  20.418  0.00  0.00    +0.000 OA
BRANCH  17  18
ATOM     18  C   UNL     1      -0.531  11.853  19.289  0.00  0.00    +0.000 C 
BRANCH  18  19
ATOM     19  C   UNL     1      -2.015  11.936  19.141  0.00  0.00    +0.000 C 
ATOM     20  C   UNL     1      -2.702  11.276  18.187  0.00  0.00    +0.000 C 
ATOM     21  C   UNL     1      -2.072  10.348  17.181  0.00  0.00    +0.000 C 
ATOM     22  C   UNL     1      -4.192  11.424  18.054  0.00  0.00    +0.000 C 
ENDBRANCH  18  19
ENDBRANCH  17  18
ENDBRANCH  12  17
ENDBRANCH   6   9
BRANCH   8  23
ATOM     23  C   UNL     1       5.393   4.691  17.774  0.00  0.00    +0.000 A 
ATOM     24  C   UNL     1       6.791   4.708  17.651  0.00  0.00    +0.000 A 
ATOM     25  C   UNL     1       7.398   4.430  16.425  0.00  0.00    +0.000 A 
ATOM     26  C   UNL     1       6.618   4.133  15.311  0.00  0.00    +0.000 A 
ATOM     27  C   UNL     1       5.229   4.112  15.417  0.00  0.00    +0.000 A 
ATOM     28  C   UNL     1       4.619   4.385  16.642  0.00  0.00    +0.000 A 
ENDBRANCH   8  23
TORSDOF 6
ENDMDL
MODEL 6
REMARK VINA RESULT:      -8.1      1.051      1.590
REMARK  Name = 
REMARK  9 active torsions:
REMARK  status: ('A' for Active; 'I' for Inactive)
REMARK    1  A    between atoms: C_1  and  C_2
REMARK    2  A    between atoms: C_6  and  C_7
REMARK    3  A    between atoms: C_10  and  O_11
REMARK    4  A    between atoms: O_11  and  C_12
REMARK    5  A    between atoms: C_12  and  C_13
REMARK    6  A    between atoms: C_14  and  C_15
REMARK    7  A    between atoms: C_14  and  C_16
REMARK    8  A    between atoms: C_18  and  O_19
REMARK    9  A    between atoms: C_21  and  C_22
REMARK                            x       y       z     vdW  Elec       q    Type
REMARK                         _______ _______ _______ _____ _____    ______ ____
ROOT
ATOM      1  C   UNL     1       3.105   3.035  20.135  0.00  0.00    +0.000 C 
ATOM      2  C   UNL     1       4.314   3.650  19.477  0.00  0.00    +0.000 C 
ATOM      3  O   UNL     1       5.385   3.046  19.412  0.00  0.00    +0.000 OA
ATOM      4  N   UNL     1       4.117   4.920  18.967  0.00  0.00    +0.000 N 
ATOM      5  N   UNL     1       2.978   5.639  19.227  0.00  0.00    +0.000 NA
ATOM      6  C   UNL     1       3.196   6.852  18.816  0.00  0.00    +0.000 C 
ATOM      7  C   UNL     1       4.558   7.091  18.215  0.00  0.00    +0.000 C 
ATOM      8  C   UNL     1       5.166   5.702  18.325  0.00  0.00    +0.000 C 
ENDROOT
BRANCH   6   9
ATOM      9  C   UNL     1       2.194   7.937  18.962  0.00  0.00    +0.000 A 
ATOM     10  C   UNL     1       1.822   8.667  17.819  0.00  0.00    +0.000 A 
ATOM     11  C   UNL     1       0.816   9.636  17.885  0.00  0.00    +0.000 A 
ATOM     12  C   UNL     1       0.168   9.886  19.092  0.00  0.00    +0.000 A 
ATOM     13  C   UNL     1       0.592   9.223  20.247  0.00  0.00    +0.000 A 
ATOM     14  C   UNL     1       1.571   8.235  20.177  0.00  0.00    +0.000 A 
BRANCH  14  15
ATOM     15  O   UNL     1       1.872   7.555  21.324  0.00  0.00    +0.000 OA
ATOM     16  H   UNL     1       2.821   7.636  21.520  0.00  0.00    +0.000 HD
ENDBRANCH  14  15
BRANCH  12  17
ATOM     17  O   UNL     1      -0.885  10.766  19.055  0.00  0.00    +0.000 OA
BRANCH  17  18
ATOM     18  C   UNL     1      -1.555  10.784  17.792  0.00  0.00    +0.000 C 
BRANCH  18  19
ATOM     19  C   UNL     1      -2.950  11.304  17.926  0.00  0.00    +0.000 C 
ATOM     20  C   UNL     1      -3.834  11.324  16.908  0.00  0.00    +0.000 C 
ATOM     21  C   UNL     1      -3.545  10.795  15.527  0.00  0.00    +0.000 C 
ATOM     22  C   UNL     1      -5.213  11.895  17.084  0.00  0.00    +0.000 C 
ENDBRANCH  18  19
ENDBRANCH  17  18
ENDBRANCH  12  17
ENDBRANCH   6   9
BRANCH   8  23
ATOM     23  C   UNL     1       5.573   5.166  16.965  0.00  0.00    +0.000 A 
ATOM     24  C   UNL     1       4.644   4.461  16.185  0.00  0.00    +0.000 A 
ATOM     25  C   UNL     1       5.014   3.933  14.947  0.00  0.00    +0.000 A 
ATOM     26  C   UNL     1       6.313   4.102  14.475  0.00  0.00    +0.000 A 
ATOM     27  C   UNL     1       7.247   4.800  15.239  0.00  0.00    +0.000 A 
ATOM     28  C   UNL     1       6.879   5.332  16.475  0.00  0.00    +0.000 A 
ENDBRANCH   8  23
TORSDOF 6
ENDMDL
MODEL 7
REMARK VINA RESULT:      -8.1      1.616      3.157
REMARK  Name = 
REMARK  9 active torsions:
REMARK  status: ('A' for Active; 'I' for Inactive)
REMARK    1  A    between atoms: C_1  and  C_2
REMARK    2  A    between atoms: C_6  and  C_7
REMARK    3  A    between atoms: C_10  and  O_11
REMARK    4  A    between atoms: O_11  and  C_12
REMARK    5  A    between atoms: C_12  and  C_13
REMARK    6  A    between atoms: C_14  and  C_15
REMARK    7  A    between atoms: C_14  and  C_16
REMARK    8  A    between atoms: C_18  and  O_19
REMARK    9  A    between atoms: C_21  and  C_22
REMARK                            x       y       z     vdW  Elec       q    Type
REMARK                         _______ _______ _______ _____ _____    ______ ____
ROOT
ATOM      1  C   UNL     1       6.759   6.741  16.872  0.00  0.00    +0.000 C 
ATOM      2  C   UNL     1       5.787   5.594  16.755  0.00  0.00    +0.000 C 
ATOM      3  O   UNL     1       6.080   4.566  16.143  0.00  0.00    +0.000 OA
ATOM      4  N   UNL     1       4.570   5.794  17.379  0.00  0.00    +0.000 N 
ATOM      5  N   UNL     1       4.204   7.018  17.882  0.00  0.00    +0.000 NA
ATOM      6  C   UNL     1       2.942   6.940  18.181  0.00  0.00    +0.000 C 
ATOM      7  C   UNL     1       2.298   5.606  17.901  0.00  0.00    +0.000 C 
ATOM      8  C   UNL     1       3.482   4.825  17.355  0.00  0.00    +0.000 C 
ENDROOT
BRANCH   6   9
ATOM      9  C   UNL     1       2.178   8.090  18.724  0.00  0.00    +0.000 A 
ATOM     10  C   UNL     1       1.918   9.184  17.878  0.00  0.00    +0.000 A 
ATOM     11  C   UNL     1       1.124  10.250  18.312  0.00  0.00    +0.000 A 
ATOM     12  C   UNL     1       0.577  10.236  19.593  0.00  0.00    +0.000 A 
ATOM     13  C   UNL     1       0.901   9.191  20.463  0.00  0.00    +0.000 A 
ATOM     14  C   UNL     1       1.665   8.114  20.023  0.00  0.00    +0.000 A 
BRANCH  14  15
ATOM     15  O   UNL     1       1.865   7.078  20.893  0.00  0.00    +0.000 OA
ATOM     16  H   UNL     1       1.037   6.866  21.355  0.00  0.00    +0.000 HD
ENDBRANCH  14  15
BRANCH  12  17
ATOM     17  O   UNL     1      -0.283  11.258  19.906  0.00  0.00    +0.000 OA
BRANCH  17  18
ATOM     18  C   UNL     1      -0.800  11.928  18.753  0.00  0.00    +0.000 C 
BRANCH  18  19
ATOM     19  C   UNL     1      -2.283  11.771  18.656  0.00  0.00    +0.000 C 
ATOM     20  C   UNL     1      -2.884  10.921  17.798  0.00  0.00    +0.000 C 
ATOM     21  C   UNL     1      -2.142  10.001  16.863  0.00  0.00    +0.000 C 
ATOM     22  C   UNL     1      -4.381  10.829  17.711  0.00  0.00    +0.000 C 
ENDBRANCH  18  19
ENDBRANCH  17  18
ENDBRANCH  12  17
ENDBRANCH   6   9
BRANCH   8  23
ATOM     23  C   UNL     1       3.759   3.584  18.184  0.00  0.00    +0.000 A 
ATOM     24  C   UNL     1       3.476   2.315  17.657  0.00  0.00    +0.000 A 
ATOM     25  C   UNL     1       3.693   1.167  18.420  0.00  0.00    +0.000 A 
ATOM     26  C   UNL     1       4.193   1.273  19.715  0.00  0.00    +0.000 A 
ATOM     27  C   UNL     1       4.478   2.527  20.252  0.00  0.00    +0.000 A 
ATOM     28  C   UNL     1       4.266   3.676  19.490  0.00  0.00    +0.000 A 
ENDBRANCH   8  23
TORSDOF 6
ENDMDL
MODEL 8
REMARK VINA RESULT:      -8.1      1.400      2.340
REMARK  Name = 
REMARK  9 active torsions:
REMARK  status: ('A' for Active; 'I' for Inactive)
REMARK    1  A    between atoms: C_1  and  C_2
REMARK    2  A    between atoms: C_6  and  C_7
REMARK    3  A    between atoms: C_10  and  O_11
REMARK    4  A    between atoms: O_11  and  C_12
REMARK    5  A    between atoms: C_12  and  C_13
REMARK    6  A    between atoms: C_14  and  C_15
REMARK    7  A    between atoms: C_14  and  C_16
REMARK    8  A    between atoms: C_18  and  O_19
REMARK    9  A    between atoms: C_21  and  C_22
REMARK                            x       y       z     vdW  Elec       q    Type
REMARK                         _______ _______ _______ _____ _____    ______ ____
ROOT
ATOM      1  C   UNL     1       1.662   2.544  18.185  0.00  0.00    +0.000 C 
ATOM      2  C   UNL     1       3.119   2.927  18.126  0.00  0.00    +0.000 C 
ATOM      3  O   UNL     1       4.003   2.075  18.045  0.00  0.00    +0.000 OA
ATOM      4  N   UNL     1       3.366   4.287  18.171  0.00  0.00    +0.000 N 
ATOM      5  N   UNL     1       2.379   5.196  18.457  0.00  0.00    +0.000 NA
ATOM      6  C   UNL     1       2.965   6.338  18.655  0.00  0.00    +0.000 C 
ATOM      7  C   UNL     1       4.466   6.321  18.521  0.00  0.00    +0.000 C 
ATOM      8  C   UNL     1       4.704   4.863  18.162  0.00  0.00    +0.000 C 
ENDROOT
BRANCH   6   9
ATOM      9  C   UNL     1       2.217   7.566  19.026  0.00  0.00    +0.000 A 
ATOM     10  C   UNL     1       1.988   8.538  18.036  0.00  0.00    +0.000 A 
ATOM     11  C   UNL     1       1.211   9.668  18.309  0.00  0.00    +0.000 A 
ATOM     12  C   UNL     1       0.651   9.839  19.572  0.00  0.00    +0.000 A 
ATOM     13  C   UNL     1       0.945   8.918  20.582  0.00  0.00    +0.000 A 
ATOM     14  C   UNL     1       1.692   7.777  20.303  0.00  0.00    +0.000 A 
BRANCH  14  15
ATOM     15  O   UNL     1       1.862   6.866  21.309  0.00  0.00    +0.000 OA
ATOM     16  H   UNL     1       1.679   7.281  22.169  0.00  0.00    +0.000 HD
ENDBRANCH  14  15
BRANCH  12  17
ATOM     17  O   UNL     1      -0.192  10.910  19.732  0.00  0.00    +0.000 OA
BRANCH  17  18
ATOM     18  C   UNL     1      -0.616  11.479  18.490  0.00  0.00    +0.000 C 
BRANCH  18  19
ATOM     19  C   UNL     1      -0.806  12.957  18.609  0.00  0.00    +0.000 C 
ATOM     20  C   UNL     1       0.216  13.837  18.602  0.00  0.00    +0.000 C 
ATOM     21  C   UNL     1       1.663  13.452  18.437  0.00  0.00    +0.000 C 
ATOM     22  C   UNL     1      -0.025  15.312  18.764  0.00  0.00    +0.000 C 
ENDBRANCH  18  19
ENDBRANCH  17  18
ENDBRANCH  12  17
ENDBRANCH   6   9
BRANCH   8  23
ATOM     23  C   UNL     1       5.412   4.729  16.826  0.00  0.00    +0.000 A 
ATOM     24  C   UNL     1       4.666   4.496  15.661  0.00  0.00    +0.000 A 
ATOM     25  C   UNL     1       5.305   4.337  14.430  0.00  0.00    +0.000 A 
ATOM     26  C   UNL     1       6.693   4.408  14.350  0.00  0.00    +0.000 A 
ATOM     27  C   UNL     1       7.447   4.639  15.499  0.00  0.00    +0.000 A 
ATOM     28  C   UNL     1       6.811   4.802  16.730  0.00  0.00    +0.000 A 
ENDBRANCH   8  23
TORSDOF 6
ENDMDL
MODEL 9
REMARK VINA RESULT:      -8.1      2.156      3.037
REMARK  Name = 
REMARK  9 active torsions:
REMARK  status: ('A' for Active; 'I' for Inactive)
REMARK    1  A    between atoms: C_1  and  C_2
REMARK    2  A    between atoms: C_6  and  C_7
REMARK    3  A    between atoms: C_10  and  O_11
REMARK    4  A    between atoms: O_11  and  C_12
REMARK    5  A    between atoms: C_12  and  C_13
REMARK    6  A    between atoms: C_14  and  C_15
REMARK    7  A    between atoms: C_14  and  C_16
REMARK    8  A    between atoms: C_18  and  O_19
REMARK    9  A    between atoms: C_21  and  C_22
REMARK                            x       y       z     vdW  Elec       q    Type
REMARK                         _______ _______ _______ _____ _____    ______ ____
ROOT
ATOM      1  C   UNL     1       1.359   2.607  18.336  0.00  0.00    +0.000 C 
ATOM      2  C   UNL     1       2.824   2.937  18.464  0.00  0.00    +0.000 C 
ATOM      3  O   UNL     1       3.685   2.058  18.424  0.00  0.00    +0.000 OA
ATOM      4  N   UNL     1       3.107   4.281  18.626  0.00  0.00    +0.000 N 
ATOM      5  N   UNL     1       2.122   5.207  18.862  0.00  0.00    +0.000 NA
ATOM      6  C   UNL     1       2.717   6.312  19.199  0.00  0.00    +0.000 C 
ATOM      7  C   UNL     1       4.223   6.246  19.230  0.00  0.00    +0.000 C 
ATOM      8  C   UNL     1       4.455   4.805  18.803  0.00  0.00    +0.000 C 
ENDROOT
BRANCH   6   9
ATOM      9  C   UNL     1       1.971   7.541  19.566  0.00  0.00    +0.000 A 
ATOM     10  C   UNL     1       1.430   7.638  20.861  0.00  0.00    +0.000 A 
ATOM     11  C   UNL     1       0.800   8.812  21.286  0.00  0.00    +0.000 A 
ATOM     12  C   UNL     1       0.703   9.902  20.425  0.00  0.00    +0.000 A 
ATOM     13  C   UNL     1       1.164   9.780  19.111  0.00  0.00    +0.000 A 
ATOM     14  C   UNL     1       1.821   8.624  18.696  0.00  0.00    +0.000 A 
BRANCH  14  15
ATOM     15  O   UNL     1       2.334   8.604  17.429  0.00  0.00    +0.000 OA
ATOM     16  H   UNL     1       1.849   7.963  16.883  0.00  0.00    +0.000 HD
ENDBRANCH  14  15
BRANCH  12  17
ATOM     17  O   UNL     1       0.175  11.055  20.949  0.00  0.00    +0.000 OA
BRANCH  17  18
ATOM     18  C   UNL     1      -0.064  10.972  22.357  0.00  0.00    +0.000 C 
BRANCH  18  19
ATOM     19  C   UNL     1      -1.504  11.211  22.676  0.00  0.00    +0.000 C 
ATOM     20  C   UNL     1      -1.986  12.406  23.075  0.00  0.00    +0.000 C 
ATOM     21  C   UNL     1      -1.150  13.652  23.212  0.00  0.00    +0.000 C 
ATOM     22  C   UNL     1      -3.437  12.584  23.424  0.00  0.00    +0.000 C 
ENDBRANCH  18  19
ENDBRANCH  17  18
ENDBRANCH  12  17
ENDBRANCH   6   9
BRANCH   8  23
ATOM     23  C   UNL     1       5.304   4.728  17.548  0.00  0.00    +0.000 A 
ATOM     24  C   UNL     1       6.697   4.611  17.653  0.00  0.00    +0.000 A 
ATOM     25  C   UNL     1       7.494   4.573  16.508  0.00  0.00    +0.000 A 
ATOM     26  C   UNL     1       6.909   4.653  15.247  0.00  0.00    +0.000 A 
ATOM     27  C   UNL     1       5.526   4.770  15.126  0.00  0.00    +0.000 A 
ATOM     28  C   UNL     1       4.726   4.804  16.270  0.00  0.00    +0.000 A 
ENDBRANCH   8  23
TORSDOF 6
ENDMDL
