MODEL 1
REMARK VINA RESULT:      -7.7      0.000      0.000
REMARK  Name = 
REMARK  7 active torsions:
REMARK  status: ('A' for Active; 'I' for Inactive)
REMARK    1  A    between atoms: C_1  and  O_2
REMARK    2  A    between atoms: O_2  and  C_3
REMARK    3  A    between atoms: C_6  and  N_7
REMARK    4  A    between atoms: C_8  and  S_9
REMARK    5  A    between atoms: S_9  and  C_10
REMARK    6  A    between atoms: C_10  and  C_11
REMARK    7  A    between atoms: C_16  and  C_17
REMARK                            x       y       z     vdW  Elec       q    Type
REMARK                         _______ _______ _______ _____ _____    ______ ____
ROOT
ATOM      1  N   UNL     1       3.502   5.160  19.332  0.00  0.00    +0.000 N 
ATOM      2  C   UNL     1       3.216   4.070  20.148  0.00  0.00    +0.000 A 
ATOM      3  N   UNL     1       2.300   4.387  21.037  0.00  0.00    +0.000 NA
ATOM      4  N   UNL     1       1.917   5.674  20.807  0.00  0.00    +0.000 NA
ATOM      5  C   UNL     1       2.580   6.121  19.757  0.00  0.00    +0.000 A 
ENDROOT
BRANCH   1   9
ATOM      6  C   UNL     1       6.566   5.689  16.433  0.00  0.00    +0.000 A 
ATOM      7  C   UNL     1       5.304   5.239  16.047  0.00  0.00    +0.000 A 
ATOM      8  C   UNL     1       4.277   5.078  16.989  0.00  0.00    +0.000 A 
ATOM      9  C   UNL     1       4.523   5.318  18.346  0.00  0.00    +0.000 A 
ATOM     10  C   UNL     1       5.812   5.713  18.728  0.00  0.00    +0.000 A 
ATOM     11  C   UNL     1       6.819   5.923  17.779  0.00  0.00    +0.000 A 
BRANCH   6  13
ATOM     12  C   UNL     1       7.242   5.026  14.267  0.00  0.00    +0.000 C 
ATOM     13  O   UNL     1       7.477   5.825  15.424  0.00  0.00    +0.000 OA
ENDBRANCH   6  13
ENDBRANCH   1   9
BRANCH   5  14
ATOM     14  C   UNL     1       2.302   7.399  19.168  0.00  0.00    +0.000 A 
ATOM     15  C   UNL     1       2.626   7.848  17.901  0.00  0.00    +0.000 A 
ATOM     16  C   UNL     1       2.058   9.136  17.743  0.00  0.00    +0.000 A 
ATOM     17  C   UNL     1       1.460   9.430  18.943  0.00  0.00    +0.000 A 
ATOM     18  O   UNL     1       1.627   8.407  19.817  0.00  0.00    +0.000 OA
ENDBRANCH   5  14
BRANCH   2  19
ATOM     19  S   UNL     1       3.955   2.502  20.192  0.00  0.00    +0.000 S 
BRANCH  19  20
ATOM     20  C   UNL     1       3.465   1.721  18.640  0.00  0.00    +0.000 C 
BRANCH  20  21
ATOM     21  C   UNL     1       2.132   2.126  18.037  0.00  0.00    +0.000 C 
ATOM     22  N   UNL     1       0.976   1.781  18.656  0.00  0.00    +0.000 N 
ATOM     23  O   UNL     1       2.083   2.784  16.998  0.00  0.00    +0.000 OA
ATOM     24  H   UNL     1       0.931   1.157  19.455  0.00  0.00    +0.000 HD
ATOM     25  H   UNL     1       0.105   2.024  18.202  0.00  0.00    +0.000 HD
ENDBRANCH  20  21
ENDBRANCH  19  20
ENDBRANCH   2  19
TORSDOF 6
ENDMDL
MODEL 2
REMARK VINA RESULT:      -7.7      2.220      5.014
REMARK  Name = 
REMARK  7 active torsions:
REMARK  status: ('A' for Active; 'I' for Inactive)
REMARK    1  A    between atoms: C_1  and  O_2
REMARK    2  A    between atoms: O_2  and  C_3
REMARK    3  A    between atoms: C_6  and  N_7
REMARK    4  A    between atoms: C_8  and  S_9
REMARK    5  A    between atoms: S_9  and  C_10
REMARK    6  A    between atoms: C_10  and  C_11
REMARK    7  A    between atoms: C_16  and  C_17
REMARK                            x       y       z     vdW  Elec       q    Type
REMARK                         _______ _______ _______ _____ _____    ______ ____
ROOT
ATOM      1  N   UNL     1       4.350   5.289  17.633  0.00  0.00    +0.000 N 
ATOM      2  C   UNL     1       4.005   4.005  17.222  0.00  0.00    +0.000 A 
ATOM      3  N   UNL     1       5.023   3.422  16.629  0.00  0.00    +0.000 NA
ATOM      4  N   UNL     1       6.084   4.276  16.672  0.00  0.00    +0.000 NA
ATOM      5  C   UNL     1       5.711   5.363  17.322  0.00  0.00    +0.000 A 
ENDROOT
BRANCH   1   9
ATOM      6  C   UNL     1       1.865   8.322  19.273  0.00  0.00    +0.000 A 
ATOM      7  C   UNL     1       2.427   8.483  18.007  0.00  0.00    +0.000 A 
ATOM      8  C   UNL     1       3.233   7.483  17.444  0.00  0.00    +0.000 A 
ATOM      9  C   UNL     1       3.529   6.325  18.173  0.00  0.00    +0.000 A 
ATOM     10  C   UNL     1       3.006   6.202  19.468  0.00  0.00    +0.000 A 
ATOM     11  C   UNL     1       2.160   7.179  20.005  0.00  0.00    +0.000 A 
BRANCH   6  13
ATOM     12  C   UNL     1       1.081  10.517  18.880  0.00  0.00    +0.000 C 
ATOM     13  O   UNL     1       1.083   9.356  19.706  0.00  0.00    +0.000 OA
ENDBRANCH   6  13
ENDBRANCH   1   9
BRANCH   5  14
ATOM     14  C   UNL     1       6.639   6.402  17.662  0.00  0.00    +0.000 A 
ATOM     15  C   UNL     1       7.630   6.384  18.628  0.00  0.00    +0.000 A 
ATOM     16  C   UNL     1       8.351   7.599  18.526  0.00  0.00    +0.000 A 
ATOM     17  C   UNL     1       7.730   8.320  17.537  0.00  0.00    +0.000 A 
ATOM     18  O   UNL     1       6.681   7.624  17.033  0.00  0.00    +0.000 OA
ENDBRANCH   5  14
BRANCH   2  19
ATOM     19  S   UNL     1       2.473   3.197  17.298  0.00  0.00    +0.000 S 
BRANCH  19  20
ATOM     20  C   UNL     1       2.650   2.005  18.641  0.00  0.00    +0.000 C 
BRANCH  20  21
ATOM     21  C   UNL     1       3.574   2.369  19.789  0.00  0.00    +0.000 C 
ATOM     22  N   UNL     1       4.902   2.110  19.699  0.00  0.00    +0.000 N 
ATOM     23  O   UNL     1       3.137   2.918  20.802  0.00  0.00    +0.000 OA
ATOM     24  H   UNL     1       5.320   1.572  18.946  0.00  0.00    +0.000 HD
ATOM     25  H   UNL     1       5.481   2.321  20.501  0.00  0.00    +0.000 HD
ENDBRANCH  20  21
ENDBRANCH  19  20
ENDBRANCH   2  19
TORSDOF 6
ENDMDL
MODEL 3
REMARK VINA RESULT:      -7.6      0.163      1.014
REMARK  Name = 
REMARK  7 active torsions:
REMARK  status: ('A' for Active; 'I' for Inactive)
REMARK    1  A    between atoms: C_1  and  O_2
REMARK    2  A    between atoms: O_2  and  C_3
REMARK    3  A    between atoms: C_6  and  N_7
REMARK    4  A    between atoms: C_8  and  S_9
REMARK    5  A    between atoms: S_9  and  C_10
REMARK    6  A    between atoms: C_10  and  C_11
REMARK    7  A    between atoms: C_16  and  C_17
REMARK                            x       y       z     vdW  Elec       q    Type
REMARK                         _______ _______ _______ _____ _____    ______ ____
ROOT
ATOM      1  N   UNL     1       3.600   5.098  19.240  0.00  0.00    +0.000 N 
ATOM      2  C   UNL     1       3.348   3.995  20.049  0.00  0.00    +0.000 A 
ATOM      3  N   UNL     1       2.453   4.290  20.966  0.00  0.00    +0.000 NA
ATOM      4  N   UNL     1       2.049   5.576  20.763  0.00  0.00    +0.000 NA
ATOM      5  C   UNL     1       2.679   6.044  19.702  0.00  0.00    +0.000 A 
ENDROOT
BRANCH   1   9
ATOM      6  C   UNL     1       6.532   5.582  16.200  0.00  0.00    +0.000 A 
ATOM      7  C   UNL     1       6.819   5.940  17.517  0.00  0.00    +0.000 A 
ATOM      8  C   UNL     1       5.869   5.768  18.534  0.00  0.00    +0.000 A 
ATOM      9  C   UNL     1       4.593   5.281  18.230  0.00  0.00    +0.000 A 
ATOM     10  C   UNL     1       4.298   4.980  16.893  0.00  0.00    +0.000 A 
ATOM     11  C   UNL     1       5.265   5.103  15.890  0.00  0.00    +0.000 A 
BRANCH   6  13
ATOM     12  C   UNL     1       7.402   5.104  14.055  0.00  0.00    +0.000 C 
ATOM     13  O   UNL     1       7.544   5.777  15.303  0.00  0.00    +0.000 OA
ENDBRANCH   6  13
ENDBRANCH   1   9
BRANCH   5  14
ATOM     14  C   UNL     1       2.371   7.326  19.138  0.00  0.00    +0.000 A 
ATOM     15  C   UNL     1       2.690   7.808  17.881  0.00  0.00    +0.000 A 
ATOM     16  C   UNL     1       2.091   9.084  17.746  0.00  0.00    +0.000 A 
ATOM     17  C   UNL     1       1.479   9.338  18.948  0.00  0.00    +0.000 A 
ATOM     18  O   UNL     1       1.669   8.303  19.803  0.00  0.00    +0.000 OA
ENDBRANCH   5  14
BRANCH   2  19
ATOM     19  S   UNL     1       4.105   2.435  20.053  0.00  0.00    +0.000 S 
BRANCH  19  20
ATOM     20  C   UNL     1       3.462   1.610  18.583  0.00  0.00    +0.000 C 
BRANCH  20  21
ATOM     21  C   UNL     1       2.126   2.082  18.037  0.00  0.00    +0.000 C 
ATOM     22  N   UNL     1       0.978   1.750  18.677  0.00  0.00    +0.000 N 
ATOM     23  O   UNL     1       2.070   2.782  17.026  0.00  0.00    +0.000 OA
ATOM     24  H   UNL     1       0.935   1.097  19.453  0.00  0.00    +0.000 HD
ATOM     25  H   UNL     1       0.103   2.040  18.259  0.00  0.00    +0.000 HD
ENDBRANCH  20  21
ENDBRANCH  19  20
ENDBRANCH   2  19
TORSDOF 6
ENDMDL
MODEL 4
REMARK VINA RESULT:      -7.5      1.879      4.699
REMARK  Name = 
REMARK  7 active torsions:
REMARK  status: ('A' for Active; 'I' for Inactive)
REMARK    1  A    between atoms: C_1  and  O_2
REMARK    2  A    between atoms: O_2  and  C_3
REMARK    3  A    between atoms: C_6  and  N_7
REMARK    4  A    between atoms: C_8  and  S_9
REMARK    5  A    between atoms: S_9  and  C_10
REMARK    6  A    between atoms: C_10  and  C_11
REMARK    7  A    between atoms: C_16  and  C_17
REMARK                            x       y       z     vdW  Elec       q    Type
REMARK                         _______ _______ _______ _____ _____    ______ ____
ROOT
ATOM      1  N   UNL     1       3.713   4.662  19.755  0.00  0.00    +0.000 N 
ATOM      2  C   UNL     1       3.173   3.519  20.335  0.00  0.00    +0.000 A 
ATOM      3  N   UNL     1       4.030   2.524  20.277  0.00  0.00    +0.000 NA
ATOM      4  N   UNL     1       5.177   2.987  19.704  0.00  0.00    +0.000 NA
ATOM      5  C   UNL     1       5.020   4.272  19.448  0.00  0.00    +0.000 A 
ENDROOT
BRANCH   1   9
ATOM      6  C   UNL     1       1.926   8.409  18.840  0.00  0.00    +0.000 A 
ATOM      7  C   UNL     1       1.819   7.875  20.123  0.00  0.00    +0.000 A 
ATOM      8  C   UNL     1       2.419   6.649  20.446  0.00  0.00    +0.000 A 
ATOM      9  C   UNL     1       3.094   5.916  19.463  0.00  0.00    +0.000 A 
ATOM     10  C   UNL     1       3.144   6.437  18.162  0.00  0.00    +0.000 A 
ATOM     11  C   UNL     1       2.589   7.685  17.858  0.00  0.00    +0.000 A 
BRANCH   6  13
ATOM     12  C   UNL     1       0.374   9.996  19.652  0.00  0.00    +0.000 C 
ATOM     13  O   UNL     1       1.317   9.618  18.654  0.00  0.00    +0.000 OA
ENDBRANCH   6  13
ENDBRANCH   1   9
BRANCH   5  14
ATOM     14  C   UNL     1       6.097   5.090  18.972  0.00  0.00    +0.000 A 
ATOM     15  C   UNL     1       6.293   5.592  17.698  0.00  0.00    +0.000 A 
ATOM     16  C   UNL     1       7.439   6.423  17.735  0.00  0.00    +0.000 A 
ATOM     17  C   UNL     1       7.916   6.344  19.020  0.00  0.00    +0.000 A 
ATOM     18  O   UNL     1       7.135   5.521  19.763  0.00  0.00    +0.000 OA
ENDBRANCH   5  14
BRANCH   2  19
ATOM     19  S   UNL     1       1.582   3.251  20.972  0.00  0.00    +0.000 S 
BRANCH  19  20
ATOM     20  C   UNL     1       0.567   2.878  19.528  0.00  0.00    +0.000 C 
BRANCH  20  21
ATOM     21  C   UNL     1       1.253   2.845  18.174  0.00  0.00    +0.000 C 
ATOM     22  N   UNL     1       2.039   1.792  17.838  0.00  0.00    +0.000 N 
ATOM     23  O   UNL     1       1.091   3.756  17.362  0.00  0.00    +0.000 OA
ATOM     24  H   UNL     1       2.301   1.057  18.487  0.00  0.00    +0.000 HD
ATOM     25  H   UNL     1       2.519   1.825  16.949  0.00  0.00    +0.000 HD
ENDBRANCH  20  21
ENDBRANCH  19  20
ENDBRANCH   2  19
TORSDOF 6
ENDMDL
MODEL 5
REMARK VINA RESULT:      -7.5      2.088      5.054
REMARK  Name = 
REMARK  7 active torsions:
REMARK  status: ('A' for Active; 'I' for Inactive)
REMARK    1  A    between atoms: C_1  and  O_2
REMARK    2  A    between atoms: O_2  and  C_3
REMARK    3  A    between atoms: C_6  and  N_7
REMARK    4  A    between atoms: C_8  and  S_9
REMARK    5  A    between atoms: S_9  and  C_10
REMARK    6  A    between atoms: C_10  and  C_11
REMARK    7  A    between atoms: C_16  and  C_17
REMARK                            x       y       z     vdW  Elec       q    Type
REMARK                         _______ _______ _______ _____ _____    ______ ____
ROOT
ATOM      1  N   UNL     1       4.075   5.182  17.899  0.00  0.00    +0.000 N 
ATOM      2  C   UNL     1       3.662   3.886  17.611  0.00  0.00    +0.000 A 
ATOM      3  N   UNL     1       4.628   3.213  17.024  0.00  0.00    +0.000 NA
ATOM      4  N   UNL     1       5.722   4.023  16.950  0.00  0.00    +0.000 NA
ATOM      5  C   UNL     1       5.422   5.173  17.524  0.00  0.00    +0.000 A 
ENDROOT
BRANCH   1   9
ATOM      6  C   UNL     1       1.789   8.441  19.388  0.00  0.00    +0.000 A 
ATOM      7  C   UNL     1       2.323   8.488  18.101  0.00  0.00    +0.000 A 
ATOM      8  C   UNL     1       3.063   7.413  17.588  0.00  0.00    +0.000 A 
ATOM      9  C   UNL     1       3.321   6.293  18.387  0.00  0.00    +0.000 A 
ATOM     10  C   UNL     1       2.828   6.283  19.699  0.00  0.00    +0.000 A 
ATOM     11  C   UNL     1       2.046   7.335  20.189  0.00  0.00    +0.000 A 
BRANCH   6  13
ATOM     12  C   UNL     1       0.141   9.335  20.828  0.00  0.00    +0.000 C 
ATOM     13  O   UNL     1       1.070   9.540  19.768  0.00  0.00    +0.000 OA
ENDBRANCH   6  13
ENDBRANCH   1   9
BRANCH   5  14
ATOM     14  C   UNL     1       6.405   6.196  17.737  0.00  0.00    +0.000 A 
ATOM     15  C   UNL     1       7.432   6.218  18.663  0.00  0.00    +0.000 A 
ATOM     16  C   UNL     1       8.197   7.387  18.427  0.00  0.00    +0.000 A 
ATOM     17  C   UNL     1       7.567   8.045  17.402  0.00  0.00    +0.000 A 
ATOM     18  O   UNL     1       6.471   7.356  17.001  0.00  0.00    +0.000 OA
ENDBRANCH   5  14
BRANCH   2  19
ATOM     19  S   UNL     1       2.105   3.152  17.820  0.00  0.00    +0.000 S 
BRANCH  19  20
ATOM     20  C   UNL     1       2.240   2.223  19.362  0.00  0.00    +0.000 C 
BRANCH  20  21
ATOM     21  C   UNL     1       1.577   2.807  20.596  0.00  0.00    +0.000 C 
ATOM     22  N   UNL     1       0.526   3.654  20.465  0.00  0.00    +0.000 N 
ATOM     23  O   UNL     1       1.970   2.508  21.724  0.00  0.00    +0.000 OA
ATOM     24  H   UNL     1       0.212   4.026  19.575  0.00  0.00    +0.000 HD
ATOM     25  H   UNL     1       0.140   4.063  21.307  0.00  0.00    +0.000 HD
ENDBRANCH  20  21
ENDBRANCH  19  20
ENDBRANCH   2  19
TORSDOF 6
ENDMDL
MODEL 6
REMARK VINA RESULT:      -7.5      1.890      4.651
REMARK  Name = 
REMARK  7 active torsions:
REMARK  status: ('A' for Active; 'I' for Inactive)
REMARK    1  A    between atoms: C_1  and  O_2
REMARK    2  A    between atoms: O_2  and  C_3
REMARK    3  A    between atoms: C_6  and  N_7
REMARK    4  A    between atoms: C_8  and  S_9
REMARK    5  A    between atoms: S_9  and  C_10
REMARK    6  A    between atoms: C_10  and  C_11
REMARK    7  A    between atoms: C_16  and  C_17
REMARK                            x       y       z     vdW  Elec       q    Type
REMARK                         _______ _______ _______ _____ _____    ______ ____
ROOT
ATOM      1  N   UNL     1       3.698   4.661  19.750  0.00  0.00    +0.000 N 
ATOM      2  C   UNL     1       3.147   3.523  20.331  0.00  0.00    +0.000 A 
ATOM      3  N   UNL     1       4.000   2.523  20.285  0.00  0.00    +0.000 NA
ATOM      4  N   UNL     1       5.154   2.977  19.720  0.00  0.00    +0.000 NA
ATOM      5  C   UNL     1       5.006   4.262  19.456  0.00  0.00    +0.000 A 
ENDROOT
BRANCH   1   9
ATOM      6  C   UNL     1       1.830   8.381  18.891  0.00  0.00    +0.000 A 
ATOM      7  C   UNL     1       2.522   7.696  17.894  0.00  0.00    +0.000 A 
ATOM      8  C   UNL     1       3.127   6.458  18.156  0.00  0.00    +0.000 A 
ATOM      9  C   UNL     1       3.089   5.916  19.446  0.00  0.00    +0.000 A 
ATOM     10  C   UNL     1       2.440   6.643  20.454  0.00  0.00    +0.000 A 
ATOM     11  C   UNL     1       1.793   7.852  20.175  0.00  0.00    +0.000 A 
BRANCH   6  13
ATOM     12  C   UNL     1       0.463  10.214  19.491  0.00  0.00    +0.000 C 
ATOM     13  O   UNL     1       1.267   9.566  18.509  0.00  0.00    +0.000 OA
ENDBRANCH   6  13
ENDBRANCH   1   9
BRANCH   5  14
ATOM     14  C   UNL     1       6.091   5.071  18.984  0.00  0.00    +0.000 A 
ATOM     15  C   UNL     1       6.285   5.590  17.716  0.00  0.00    +0.000 A 
ATOM     16  C   UNL     1       7.444   6.403  17.758  0.00  0.00    +0.000 A 
ATOM     17  C   UNL     1       7.928   6.298  19.038  0.00  0.00    +0.000 A 
ATOM     18  O   UNL     1       7.141   5.475  19.774  0.00  0.00    +0.000 OA
ENDBRANCH   5  14
BRANCH   2  19
ATOM     19  S   UNL     1       1.551   3.268  20.957  0.00  0.00    +0.000 S 
BRANCH  19  20
ATOM     20  C   UNL     1       0.549   2.871  19.509  0.00  0.00    +0.000 C 
BRANCH  20  21
ATOM     21  C   UNL     1       1.245   2.834  18.160  0.00  0.00    +0.000 C 
ATOM     22  N   UNL     1       2.015   1.770  17.824  0.00  0.00    +0.000 N 
ATOM     23  O   UNL     1       1.104   3.753  17.352  0.00  0.00    +0.000 OA
ATOM     24  H   UNL     1       2.260   1.027  18.471  0.00  0.00    +0.000 HD
ATOM     25  H   UNL     1       2.503   1.800  16.938  0.00  0.00    +0.000 HD
ENDBRANCH  20  21
ENDBRANCH  19  20
ENDBRANCH   2  19
TORSDOF 6
ENDMDL
MODEL 7
REMARK VINA RESULT:      -7.4      2.057      5.013
REMARK  Name = 
REMARK  7 active torsions:
REMARK  status: ('A' for Active; 'I' for Inactive)
REMARK    1  A    between atoms: C_1  and  O_2
REMARK    2  A    between atoms: O_2  and  C_3
REMARK    3  A    between atoms: C_6  and  N_7
REMARK    4  A    between atoms: C_8  and  S_9
REMARK    5  A    between atoms: S_9  and  C_10
REMARK    6  A    between atoms: C_10  and  C_11
REMARK    7  A    between atoms: C_16  and  C_17
REMARK                            x       y       z     vdW  Elec       q    Type
REMARK                         _______ _______ _______ _____ _____    ______ ____
ROOT
ATOM      1  N   UNL     1       4.140   5.103  17.898  0.00  0.00    +0.000 N 
ATOM      2  C   UNL     1       3.756   3.801  17.591  0.00  0.00    +0.000 A 
ATOM      3  N   UNL     1       4.734   3.163  16.985  0.00  0.00    +0.000 NA
ATOM      4  N   UNL     1       5.807   4.001  16.917  0.00  0.00    +0.000 NA
ATOM      5  C   UNL     1       5.484   5.133  17.513  0.00  0.00    +0.000 A 
ENDROOT
BRANCH   1   9
ATOM      6  C   UNL     1       1.870   8.373  19.390  0.00  0.00    +0.000 A 
ATOM      7  C   UNL     1       2.081   7.244  20.181  0.00  0.00    +0.000 A 
ATOM      8  C   UNL     1       2.843   6.165  19.711  0.00  0.00    +0.000 A 
ATOM      9  C   UNL     1       3.363   6.186  18.411  0.00  0.00    +0.000 A 
ATOM     10  C   UNL     1       3.095   7.301  17.605  0.00  0.00    +0.000 A 
ATOM     11  C   UNL     1       2.378   8.397  18.097  0.00  0.00    +0.000 A 
BRANCH   6  13
ATOM     12  C   UNL     1       0.653  10.375  19.080  0.00  0.00    +0.000 C 
ATOM     13  O   UNL     1       1.128   9.365  19.965  0.00  0.00    +0.000 OA
ENDBRANCH   6  13
ENDBRANCH   1   9
BRANCH   5  14
ATOM     14  C   UNL     1       6.443   6.176  17.736  0.00  0.00    +0.000 A 
ATOM     15  C   UNL     1       7.452   6.224  18.681  0.00  0.00    +0.000 A 
ATOM     16  C   UNL     1       8.199   7.405  18.451  0.00  0.00    +0.000 A 
ATOM     17  C   UNL     1       7.575   8.045  17.409  0.00  0.00    +0.000 A 
ATOM     18  O   UNL     1       6.501   7.331  16.993  0.00  0.00    +0.000 OA
ENDBRANCH   5  14
BRANCH   2  19
ATOM     19  S   UNL     1       2.219   3.027  17.799  0.00  0.00    +0.000 S 
BRANCH  19  20
ATOM     20  C   UNL     1       2.356   2.152  19.372  0.00  0.00    +0.000 C 
BRANCH  20  21
ATOM     21  C   UNL     1       1.615   2.727  20.565  0.00  0.00    +0.000 C 
ATOM     22  N   UNL     1       0.493   3.465  20.375  0.00  0.00    +0.000 N 
ATOM     23  O   UNL     1       2.008   2.518  21.713  0.00  0.00    +0.000 OA
ATOM     24  H   UNL     1       0.166   3.765  19.462  0.00  0.00    +0.000 HD
ATOM     25  H   UNL     1       0.052   3.874  21.188  0.00  0.00    +0.000 HD
ENDBRANCH  20  21
ENDBRANCH  19  20
ENDBRANCH   2  19
TORSDOF 6
ENDMDL
MODEL 8
REMARK VINA RESULT:      -7.4      2.212      5.096
REMARK  Name = 
REMARK  7 active torsions:
REMARK  status: ('A' for Active; 'I' for Inactive)
REMARK    1  A    between atoms: C_1  and  O_2
REMARK    2  A    between atoms: O_2  and  C_3
REMARK    3  A    between atoms: C_6  and  N_7
REMARK    4  A    between atoms: C_8  and  S_9
REMARK    5  A    between atoms: S_9  and  C_10
REMARK    6  A    between atoms: C_10  and  C_11
REMARK    7  A    between atoms: C_16  and  C_17
REMARK                            x       y       z     vdW  Elec       q    Type
REMARK                         _______ _______ _______ _____ _____    ______ ____
ROOT
ATOM      1  N   UNL     1       4.199   5.278  17.644  0.00  0.00    +0.000 N 
ATOM      2  C   UNL     1       3.808   4.015  17.211  0.00  0.00    +0.000 A 
ATOM      3  N   UNL     1       4.804   3.407  16.605  0.00  0.00    +0.000 NA
ATOM      4  N   UNL     1       5.894   4.223  16.660  0.00  0.00    +0.000 NA
ATOM      5  C   UNL     1       5.561   5.310  17.330  0.00  0.00    +0.000 A 
ENDROOT
BRANCH   1   9
ATOM      6  C   UNL     1       1.912   8.465  19.281  0.00  0.00    +0.000 A 
ATOM      7  C   UNL     1       2.116   7.297  20.015  0.00  0.00    +0.000 A 
ATOM      8  C   UNL     1       2.884   6.245  19.497  0.00  0.00    +0.000 A 
ATOM      9  C   UNL     1       3.416   6.333  18.205  0.00  0.00    +0.000 A 
ATOM     10  C   UNL     1       3.155   7.488  17.455  0.00  0.00    +0.000 A 
ATOM     11  C   UNL     1       2.432   8.557  17.996  0.00  0.00    +0.000 A 
BRANCH   6  13
ATOM     12  C   UNL     1       0.977   9.257  21.303  0.00  0.00    +0.000 C 
ATOM     13  O   UNL     1       1.163   9.426  19.901  0.00  0.00    +0.000 OA
ENDBRANCH   6  13
ENDBRANCH   1   9
BRANCH   5  14
ATOM     14  C   UNL     1       6.526   6.310  17.687  0.00  0.00    +0.000 A 
ATOM     15  C   UNL     1       7.509   6.245  18.658  0.00  0.00    +0.000 A 
ATOM     16  C   UNL     1       8.276   7.432  18.572  0.00  0.00    +0.000 A 
ATOM     17  C   UNL     1       7.689   8.185  17.586  0.00  0.00    +0.000 A 
ATOM     18  O   UNL     1       6.618   7.535  17.070  0.00  0.00    +0.000 OA
ENDBRANCH   5  14
BRANCH   2  19
ATOM     19  S   UNL     1       2.248   3.260  17.278  0.00  0.00    +0.000 S 
BRANCH  19  20
ATOM     20  C   UNL     1       2.298   2.235  18.762  0.00  0.00    +0.000 C 
BRANCH  20  21
ATOM     21  C   UNL     1       3.660   1.788  19.264  0.00  0.00    +0.000 C 
ATOM     22  N   UNL     1       4.300   0.757  18.659  0.00  0.00    +0.000 N 
ATOM     23  O   UNL     1       4.205   2.362  20.207  0.00  0.00    +0.000 OA
ATOM     24  H   UNL     1       3.874   0.172  17.946  0.00  0.00    +0.000 HD
ATOM     25  H   UNL     1       5.182   0.453  19.049  0.00  0.00    +0.000 HD
ENDBRANCH  20  21
ENDBRANCH  19  20
ENDBRANCH   2  19
TORSDOF 6
ENDMDL
MODEL 9
REMARK VINA RESULT:      -7.3      2.206      4.974
REMARK  Name = 
REMARK  7 active torsions:
REMARK  status: ('A' for Active; 'I' for Inactive)
REMARK    1  A    between atoms: C_1  and  O_2
REMARK    2  A    between atoms: O_2  and  C_3
REMARK    3  A    between atoms: C_6  and  N_7
REMARK    4  A    between atoms: C_8  and  S_9
REMARK    5  A    between atoms: S_9  and  C_10
REMARK    6  A    between atoms: C_10  and  C_11
REMARK    7  A    between atoms: C_16  and  C_17
REMARK                            x       y       z     vdW  Elec       q    Type
REMARK                         _______ _______ _______ _____ _____    ______ ____
ROOT
ATOM      1  N   UNL     1       3.501   5.136  18.244  0.00  0.00    +0.000 N 
ATOM      2  C   UNL     1       2.943   3.871  18.097  0.00  0.00    +0.000 A 
ATOM      3  N   UNL     1       3.805   3.048  17.540  0.00  0.00    +0.000 NA
ATOM      4  N   UNL     1       4.971   3.726  17.348  0.00  0.00    +0.000 NA
ATOM      5  C   UNL     1       4.820   4.949  17.820  0.00  0.00    +0.000 A 
ENDROOT
BRANCH   1   9
ATOM      6  C   UNL     1       1.636   8.743  19.502  0.00  0.00    +0.000 A 
ATOM      7  C   UNL     1       2.124   8.621  18.201  0.00  0.00    +0.000 A 
ATOM      8  C   UNL     1       2.725   7.431  17.765  0.00  0.00    +0.000 A 
ATOM      9  C   UNL     1       2.890   6.361  18.652  0.00  0.00    +0.000 A 
ATOM     10  C   UNL     1       2.448   6.518  19.973  0.00  0.00    +0.000 A 
ATOM     11  C   UNL     1       1.803   7.688  20.389  0.00  0.00    +0.000 A 
BRANCH   6  13
ATOM     12  C   UNL     1       1.068  10.914  18.760  0.00  0.00    +0.000 C 
ATOM     13  O   UNL     1       1.055   9.943  19.802  0.00  0.00    +0.000 OA
ENDBRANCH   6  13
ENDBRANCH   1   9
BRANCH   5  14
ATOM     14  C   UNL     1       5.912   5.876  17.896  0.00  0.00    +0.000 A 
ATOM     15  C   UNL     1       7.006   5.843  18.743  0.00  0.00    +0.000 A 
ATOM     16  C   UNL     1       7.861   6.912  18.379  0.00  0.00    +0.000 A 
ATOM     17  C   UNL     1       7.220   7.575  17.362  0.00  0.00    +0.000 A 
ATOM     18  O   UNL     1       6.034   6.980  17.086  0.00  0.00    +0.000 OA
ENDBRANCH   5  14
BRANCH   2  19
ATOM     19  S   UNL     1       1.330   3.331  18.435  0.00  0.00    +0.000 S 
BRANCH  19  20
ATOM     20  C   UNL     1       1.487   2.323  19.924  0.00  0.00    +0.000 C 
BRANCH  20  21
ATOM     21  C   UNL     1       2.537   2.730  20.943  0.00  0.00    +0.000 C 
ATOM     22  N   UNL     1       3.840   2.419  20.735  0.00  0.00    +0.000 N 
ATOM     23  O   UNL     1       2.224   3.360  21.954  0.00  0.00    +0.000 OA
ATOM     24  H   UNL     1       4.161   1.819  19.982  0.00  0.00    +0.000 HD
ATOM     25  H   UNL     1       4.506   2.663  21.457  0.00  0.00    +0.000 HD
ENDBRANCH  20  21
ENDBRANCH  19  20
ENDBRANCH   2  19
TORSDOF 6
ENDMDL
