MODEL 1
REMARK VINA RESULT:      -8.3      0.000      0.000
REMARK  Name = 
REMARK  9 active torsions:
REMARK  status: ('A' for Active; 'I' for Inactive)
REMARK    1  A    between atoms: C_1  and  C_2
REMARK    2  A    between atoms: C_2  and  C_3
REMARK    3  A    between atoms: C_7  and  O_8
REMARK    4  A    between atoms: O_8  and  C_9
REMARK    5  A    between atoms: C_9  and  C_10
REMARK    6  A    between atoms: C_16  and  C_17
REMARK    7  A    between atoms: C_21  and  O_22
REMARK    8  A    between atoms: O_22  and  C_23
REMARK    9  A    between atoms: C_23  and  C_24
REMARK                            x       y       z     vdW  Elec       q    Type
REMARK                         _______ _______ _______ _____ _____    ______ ____
ROOT
ATOM      1  C   UNL     1       2.304   5.303  20.084  0.00  0.00    +0.000 C 
ATOM      2  C   UNL     1       2.773   4.456  18.875  0.00  0.00    +0.000 C 
ATOM      3  C   UNL     1       3.789   5.134  17.999  0.00  0.00    +0.000 A 
ATOM      4  C   UNL     1       4.707   4.358  17.266  0.00  0.00    +0.000 A 
ATOM      5  C   UNL     1       5.587   4.980  16.389  0.00  0.00    +0.000 A 
ATOM      6  C   UNL     1       5.558   6.363  16.239  0.00  0.00    +0.000 A 
ATOM      7  C   UNL     1       4.647   7.131  16.972  0.00  0.00    +0.000 A 
ATOM      8  C   UNL     1       3.727   6.529  17.836  0.00  0.00    +0.000 A 
ATOM      9  C   UNL     1       2.726   7.289  18.609  0.00  0.00    +0.000 A 
ATOM     10  C   UNL     1       2.164   8.560  18.467  0.00  0.00    +0.000 A 
ATOM     11  C   UNL     1       1.354   8.805  19.626  0.00  0.00    +0.000 A 
ATOM     12  C   UNL     1       0.541   9.894  20.035  0.00  0.00    +0.000 A 
ATOM     13  C   UNL     1      -0.131   9.824  21.255  0.00  0.00    +0.000 A 
ATOM     14  C   UNL     1       0.068   8.750  22.113  0.00  0.00    +0.000 A 
ATOM     15  C   UNL     1       0.904   7.692  21.748  0.00  0.00    +0.000 A 
ATOM     16  C   UNL     1       1.460   7.689  20.457  0.00  0.00    +0.000 A 
ATOM     17  N   UNL     1       2.122   6.718  19.728  0.00  0.00    +0.000 N 
ENDROOT
BRANCH   1  19
ATOM     18  C   UNL     1       1.185   3.068  20.865  0.00  0.00    +0.000 C 
ATOM     19  C   UNL     1       1.090   4.586  20.738  0.00  0.00    +0.000 C 
ENDBRANCH   1  19
BRANCH  10  20
ATOM     20  C   UNL     1       2.341   9.514  17.383  0.00  0.00    +0.000 C 
ATOM     21  O   UNL     1       2.550  10.716  17.519  0.00  0.00    +0.000 OA
ENDBRANCH  10  20
BRANCH   5  22
ATOM     22  O   UNL     1       6.544   4.316  15.585  0.00  0.00    +0.000 OA
BRANCH  22  23
ATOM     23  C   UNL     1       6.897   4.640  14.274  0.00  0.00    +0.000 C 
ATOM     24  C   UNL     1       6.066   3.828  13.323  0.00  0.00    +0.000 C 
ATOM     25  O   UNL     1       7.753   5.435  13.919  0.00  0.00    +0.000 OA
ENDBRANCH  22  23
ENDBRANCH   5  22
BRANCH  13  26
ATOM     26  O   UNL     1      -1.079  10.776  21.709  0.00  0.00    +0.000 OA
BRANCH  26  27
ATOM     27  C   UNL     1      -0.794  12.033  22.244  0.00  0.00    +0.000 C 
ATOM     28  C   UNL     1      -1.944  12.481  23.099  0.00  0.00    +0.000 C 
ATOM     29  O   UNL     1       0.205  12.708  22.046  0.00  0.00    +0.000 OA
ENDBRANCH  26  27
ENDBRANCH  13  26
TORSDOF 6
ENDMDL
MODEL 2
REMARK VINA RESULT:      -7.9      3.297     10.078
REMARK  Name = 
REMARK  9 active torsions:
REMARK  status: ('A' for Active; 'I' for Inactive)
REMARK    1  A    between atoms: C_1  and  C_2
REMARK    2  A    between atoms: C_2  and  C_3
REMARK    3  A    between atoms: C_7  and  O_8
REMARK    4  A    between atoms: O_8  and  C_9
REMARK    5  A    between atoms: C_9  and  C_10
REMARK    6  A    between atoms: C_16  and  C_17
REMARK    7  A    between atoms: C_21  and  O_22
REMARK    8  A    between atoms: O_22  and  C_23
REMARK    9  A    between atoms: C_23  and  C_24
REMARK                            x       y       z     vdW  Elec       q    Type
REMARK                         _______ _______ _______ _____ _____    ______ ____
ROOT
ATOM      1  C   UNL     1      -1.389  11.586  18.711  0.00  0.00    +0.000 C 
ATOM      2  C   UNL     1      -2.696  12.132  19.336  0.00  0.00    +0.000 C 
ATOM      3  C   UNL     1      -2.560  12.582  20.764  0.00  0.00    +0.000 A 
ATOM      4  C   UNL     1      -3.412  13.586  21.264  0.00  0.00    +0.000 A 
ATOM      5  C   UNL     1      -3.346  13.938  22.606  0.00  0.00    +0.000 A 
ATOM      6  C   UNL     1      -2.440  13.302  23.449  0.00  0.00    +0.000 A 
ATOM      7  C   UNL     1      -1.594  12.307  22.948  0.00  0.00    +0.000 A 
ATOM      8  C   UNL     1      -1.661  11.908  21.610  0.00  0.00    +0.000 A 
ATOM      9  C   UNL     1      -0.813  10.845  21.038  0.00  0.00    +0.000 A 
ATOM     10  C   UNL     1      -0.096   9.784  21.595  0.00  0.00    +0.000 A 
ATOM     11  C   UNL     1       0.669   9.180  20.542  0.00  0.00    +0.000 A 
ATOM     12  C   UNL     1       1.559   8.076  20.492  0.00  0.00    +0.000 A 
ATOM     13  C   UNL     1       2.163   7.739  19.281  0.00  0.00    +0.000 A 
ATOM     14  C   UNL     1       1.980   8.531  18.154  0.00  0.00    +0.000 A 
ATOM     15  C   UNL     1       1.145   9.649  18.197  0.00  0.00    +0.000 A 
ATOM     16  C   UNL     1       0.418   9.901  19.374  0.00  0.00    +0.000 A 
ATOM     17  N   UNL     1      -0.627  10.760  19.659  0.00  0.00    +0.000 N 
ENDROOT
BRANCH   1  19
ATOM     18  C   UNL     1      -2.775   9.814  17.370  0.00  0.00    +0.000 C 
ATOM     19  C   UNL     1      -1.739  10.934  17.343  0.00  0.00    +0.000 C 
ENDBRANCH   1  19
BRANCH  10  20
ATOM     20  C   UNL     1      -0.069   9.334  22.979  0.00  0.00    +0.000 C 
ATOM     21  O   UNL     1       0.721   9.717  23.837  0.00  0.00    +0.000 OA
ENDBRANCH  10  20
BRANCH   5  22
ATOM     22  O   UNL     1      -4.154  14.917  23.233  0.00  0.00    +0.000 OA
BRANCH  22  23
ATOM     23  C   UNL     1      -5.548  14.989  23.200  0.00  0.00    +0.000 C 
ATOM     24  C   UNL     1      -6.122  13.704  23.726  0.00  0.00    +0.000 C 
ATOM     25  O   UNL     1      -6.226  15.920  22.796  0.00  0.00    +0.000 OA
ENDBRANCH  22  23
ENDBRANCH   5  22
BRANCH  13  26
ATOM     26  O   UNL     1       2.956   6.582  19.069  0.00  0.00    +0.000 OA
BRANCH  26  27
ATOM     27  C   UNL     1       2.583   5.266  19.346  0.00  0.00    +0.000 C 
ATOM     28  C   UNL     1       1.918   4.674  18.137  0.00  0.00    +0.000 C 
ATOM     29  O   UNL     1       2.726   4.667  20.401  0.00  0.00    +0.000 OA
ENDBRANCH  26  27
ENDBRANCH  13  26
TORSDOF 6
ENDMDL
MODEL 3
REMARK VINA RESULT:      -7.8      2.846      9.938
REMARK  Name = 
REMARK  9 active torsions:
REMARK  status: ('A' for Active; 'I' for Inactive)
REMARK    1  A    between atoms: C_1  and  C_2
REMARK    2  A    between atoms: C_2  and  C_3
REMARK    3  A    between atoms: C_7  and  O_8
REMARK    4  A    between atoms: O_8  and  C_9
REMARK    5  A    between atoms: C_9  and  C_10
REMARK    6  A    between atoms: C_16  and  C_17
REMARK    7  A    between atoms: C_21  and  O_22
REMARK    8  A    between atoms: O_22  and  C_23
REMARK    9  A    between atoms: C_23  and  C_24
REMARK                            x       y       z     vdW  Elec       q    Type
REMARK                         _______ _______ _______ _____ _____    ______ ____
ROOT
ATOM      1  C   UNL     1      -1.272  11.307  18.504  0.00  0.00    +0.000 C 
ATOM      2  C   UNL     1      -2.570  11.888  19.116  0.00  0.00    +0.000 C 
ATOM      3  C   UNL     1      -2.408  12.439  20.505  0.00  0.00    +0.000 A 
ATOM      4  C   UNL     1      -3.257  13.471  20.950  0.00  0.00    +0.000 A 
ATOM      5  C   UNL     1      -3.166  13.918  22.262  0.00  0.00    +0.000 A 
ATOM      6  C   UNL     1      -2.239  13.349  23.129  0.00  0.00    +0.000 A 
ATOM      7  C   UNL     1      -1.395  12.326  22.682  0.00  0.00    +0.000 A 
ATOM      8  C   UNL     1      -1.487  11.832  21.378  0.00  0.00    +0.000 A 
ATOM      9  C   UNL     1      -0.642  10.737  20.865  0.00  0.00    +0.000 A 
ATOM     10  C   UNL     1       0.094   9.723  21.481  0.00  0.00    +0.000 A 
ATOM     11  C   UNL     1       0.841   9.050  20.457  0.00  0.00    +0.000 A 
ATOM     12  C   UNL     1       1.739   7.951  20.467  0.00  0.00    +0.000 A 
ATOM     13  C   UNL     1       2.320   7.532  19.270  0.00  0.00    +0.000 A 
ATOM     14  C   UNL     1       2.108   8.240  18.094  0.00  0.00    +0.000 A 
ATOM     15  C   UNL     1       1.266   9.353  18.075  0.00  0.00    +0.000 A 
ATOM     16  C   UNL     1       0.561   9.684  19.246  0.00  0.00    +0.000 A 
ATOM     17  N   UNL     1      -0.484  10.555  19.492  0.00  0.00    +0.000 N 
ENDROOT
BRANCH   1  19
ATOM     18  C   UNL     1      -2.920   9.719  17.230  0.00  0.00    +0.000 C 
ATOM     19  C   UNL     1      -1.646  10.558  17.194  0.00  0.00    +0.000 C 
ENDBRANCH   1  19
BRANCH  10  20
ATOM     20  C   UNL     1       0.153   9.372  22.892  0.00  0.00    +0.000 C 
ATOM     21  O   UNL     1       1.078   9.638  23.654  0.00  0.00    +0.000 OA
ENDBRANCH  10  20
BRANCH   5  22
ATOM     22  O   UNL     1      -3.968  14.934  22.835  0.00  0.00    +0.000 OA
BRANCH  22  23
ATOM     23  C   UNL     1      -3.517  16.123  23.412  0.00  0.00    +0.000 C 
ATOM     24  C   UNL     1      -4.085  16.248  24.797  0.00  0.00    +0.000 C 
ATOM     25  O   UNL     1      -2.793  16.961  22.897  0.00  0.00    +0.000 OA
ENDBRANCH  22  23
ENDBRANCH   5  22
BRANCH  13  26
ATOM     26  O   UNL     1       3.117   6.368  19.124  0.00  0.00    +0.000 OA
BRANCH  26  27
ATOM     27  C   UNL     1       2.990   5.402  18.125  0.00  0.00    +0.000 C 
ATOM     28  C   UNL     1       1.771   4.569  18.392  0.00  0.00    +0.000 C 
ATOM     29  O   UNL     1       3.748   5.211  17.185  0.00  0.00    +0.000 OA
ENDBRANCH  26  27
ENDBRANCH  13  26
TORSDOF 6
ENDMDL
MODEL 4
REMARK VINA RESULT:      -7.7      3.000      9.991
REMARK  Name = 
REMARK  9 active torsions:
REMARK  status: ('A' for Active; 'I' for Inactive)
REMARK    1  A    between atoms: C_1  and  C_2
REMARK    2  A    between atoms: C_2  and  C_3
REMARK    3  A    between atoms: C_7  and  O_8
REMARK    4  A    between atoms: O_8  and  C_9
REMARK    5  A    between atoms: C_9  and  C_10
REMARK    6  A    between atoms: C_16  and  C_17
REMARK    7  A    between atoms: C_21  and  O_22
REMARK    8  A    between atoms: O_22  and  C_23
REMARK    9  A    between atoms: C_23  and  C_24
REMARK                            x       y       z     vdW  Elec       q    Type
REMARK                         _______ _______ _______ _____ _____    ______ ____
ROOT
ATOM      1  C   UNL     1      -1.215  11.202  18.370  0.00  0.00    +0.000 C 
ATOM      2  C   UNL     1      -2.508  11.818  18.958  0.00  0.00    +0.000 C 
ATOM      3  C   UNL     1      -2.350  12.395  20.336  0.00  0.00    +0.000 A 
ATOM      4  C   UNL     1      -3.185  13.450  20.752  0.00  0.00    +0.000 A 
ATOM      5  C   UNL     1      -3.099  13.923  22.055  0.00  0.00    +0.000 A 
ATOM      6  C   UNL     1      -2.189  13.356  22.942  0.00  0.00    +0.000 A 
ATOM      7  C   UNL     1      -1.359  12.311  22.525  0.00  0.00    +0.000 A 
ATOM      8  C   UNL     1      -1.448  11.791  21.230  0.00  0.00    +0.000 A 
ATOM      9  C   UNL     1      -0.617  10.671  20.749  0.00  0.00    +0.000 A 
ATOM     10  C   UNL     1       0.096   9.658  21.392  0.00  0.00    +0.000 A 
ATOM     11  C   UNL     1       0.841   8.951  20.390  0.00  0.00    +0.000 A 
ATOM     12  C   UNL     1       1.720   7.837  20.431  0.00  0.00    +0.000 A 
ATOM     13  C   UNL     1       2.305   7.384  19.249  0.00  0.00    +0.000 A 
ATOM     14  C   UNL     1       2.115   8.071  18.057  0.00  0.00    +0.000 A 
ATOM     15  C   UNL     1       1.293   9.198  18.007  0.00  0.00    +0.000 A 
ATOM     16  C   UNL     1       0.583   9.564  19.163  0.00  0.00    +0.000 A 
ATOM     17  N   UNL     1      -0.449  10.458  19.381  0.00  0.00    +0.000 N 
ENDROOT
BRANCH   1  19
ATOM     18  C   UNL     1      -2.749  10.998  16.258  0.00  0.00    +0.000 C 
ATOM     19  C   UNL     1      -1.589  10.432  17.072  0.00  0.00    +0.000 C 
ENDBRANCH   1  19
BRANCH  10  20
ATOM     20  C   UNL     1       0.136   9.336  22.811  0.00  0.00    +0.000 C 
ATOM     21  O   UNL     1       0.974   9.743  23.610  0.00  0.00    +0.000 OA
ENDBRANCH  10  20
BRANCH   5  22
ATOM     22  O   UNL     1      -3.889  14.965  22.599  0.00  0.00    +0.000 OA
BRANCH  22  23
ATOM     23  C   UNL     1      -4.509  14.969  23.850  0.00  0.00    +0.000 C 
ATOM     24  C   UNL     1      -5.762  14.143  23.783  0.00  0.00    +0.000 C 
ATOM     25  O   UNL     1      -4.136  15.555  24.854  0.00  0.00    +0.000 OA
ENDBRANCH  22  23
ENDBRANCH   5  22
BRANCH  13  26
ATOM     26  O   UNL     1       3.083   6.203  19.135  0.00  0.00    +0.000 OA
BRANCH  26  27
ATOM     27  C   UNL     1       2.821   5.122  18.292  0.00  0.00    +0.000 C 
ATOM     28  C   UNL     1       4.049   4.811  17.488  0.00  0.00    +0.000 C 
ATOM     29  O   UNL     1       1.763   4.521  18.174  0.00  0.00    +0.000 OA
ENDBRANCH  26  27
ENDBRANCH  13  26
TORSDOF 6
ENDMDL
MODEL 5
REMARK VINA RESULT:      -7.4      2.528      5.270
REMARK  Name = 
REMARK  9 active torsions:
REMARK  status: ('A' for Active; 'I' for Inactive)
REMARK    1  A    between atoms: C_1  and  C_2
REMARK    2  A    between atoms: C_2  and  C_3
REMARK    3  A    between atoms: C_7  and  O_8
REMARK    4  A    between atoms: O_8  and  C_9
REMARK    5  A    between atoms: C_9  and  C_10
REMARK    6  A    between atoms: C_16  and  C_17
REMARK    7  A    between atoms: C_21  and  O_22
REMARK    8  A    between atoms: O_22  and  C_23
REMARK    9  A    between atoms: C_23  and  C_24
REMARK                            x       y       z     vdW  Elec       q    Type
REMARK                         _______ _______ _______ _____ _____    ______ ____
ROOT
ATOM      1  C   UNL     1       0.170  11.261  18.491  0.00  0.00    +0.000 C 
ATOM      2  C   UNL     1       1.543  10.700  18.044  0.00  0.00    +0.000 C 
ATOM      3  C   UNL     1       1.827   9.303  18.518  0.00  0.00    +0.000 A 
ATOM      4  C   UNL     1       2.682   8.472  17.769  0.00  0.00    +0.000 A 
ATOM      5  C   UNL     1       3.014   7.212  18.252  0.00  0.00    +0.000 A 
ATOM      6  C   UNL     1       2.501   6.777  19.470  0.00  0.00    +0.000 A 
ATOM      7  C   UNL     1       1.649   7.604  20.209  0.00  0.00    +0.000 A 
ATOM      8  C   UNL     1       1.325   8.889  19.765  0.00  0.00    +0.000 A 
ATOM      9  C   UNL     1       0.455   9.811  20.519  0.00  0.00    +0.000 A 
ATOM     10  C   UNL     1       0.073   9.891  21.860  0.00  0.00    +0.000 A 
ATOM     11  C   UNL     1      -0.921  10.921  21.965  0.00  0.00    +0.000 A 
ATOM     12  C   UNL     1      -1.658  11.459  23.052  0.00  0.00    +0.000 A 
ATOM     13  C   UNL     1      -2.580  12.478  22.814  0.00  0.00    +0.000 A 
ATOM     14  C   UNL     1      -2.854  12.898  21.519  0.00  0.00    +0.000 A 
ATOM     15  C   UNL     1      -2.174  12.345  20.432  0.00  0.00    +0.000 A 
ATOM     16  C   UNL     1      -1.138  11.428  20.683  0.00  0.00    +0.000 A 
ATOM     17  N   UNL     1      -0.154  10.887  19.875  0.00  0.00    +0.000 N 
ENDROOT
BRANCH   1  19
ATOM     18  C   UNL     1       1.243  13.636  18.740  0.00  0.00    +0.000 C 
ATOM     19  C   UNL     1       0.129  12.777  18.149  0.00  0.00    +0.000 C 
ENDBRANCH   1  19
BRANCH  10  20
ATOM     20  C   UNL     1       0.540   9.096  22.986  0.00  0.00    +0.000 C 
ATOM     21  O   UNL     1       0.852   9.537  24.088  0.00  0.00    +0.000 OA
ENDBRANCH  10  20
BRANCH   5  22
ATOM     22  O   UNL     1       3.872   6.290  17.606  0.00  0.00    +0.000 OA
BRANCH  22  23
ATOM     23  C   UNL     1       4.985   6.600  16.821  0.00  0.00    +0.000 C 
ATOM     24  C   UNL     1       6.222   6.538  17.671  0.00  0.00    +0.000 C 
ATOM     25  O   UNL     1       4.989   6.900  15.638  0.00  0.00    +0.000 OA
ENDBRANCH  22  23
ENDBRANCH   5  22
BRANCH  13  26
ATOM     26  O   UNL     1      -3.271  13.192  23.827  0.00  0.00    +0.000 OA
BRANCH  26  27
ATOM     27  C   UNL     1      -4.600  13.004  24.207  0.00  0.00    +0.000 C 
ATOM     28  C   UNL     1      -5.403  14.210  23.817  0.00  0.00    +0.000 C 
ATOM     29  O   UNL     1      -5.067  12.041  24.797  0.00  0.00    +0.000 OA
ENDBRANCH  26  27
ENDBRANCH  13  26
TORSDOF 6
ENDMDL
MODEL 6
REMARK VINA RESULT:      -7.3      2.762      5.537
REMARK  Name = 
REMARK  9 active torsions:
REMARK  status: ('A' for Active; 'I' for Inactive)
REMARK    1  A    between atoms: C_1  and  C_2
REMARK    2  A    between atoms: C_2  and  C_3
REMARK    3  A    between atoms: C_7  and  O_8
REMARK    4  A    between atoms: O_8  and  C_9
REMARK    5  A    between atoms: C_9  and  C_10
REMARK    6  A    between atoms: C_16  and  C_17
REMARK    7  A    between atoms: C_21  and  O_22
REMARK    8  A    between atoms: O_22  and  C_23
REMARK    9  A    between atoms: C_23  and  C_24
REMARK                            x       y       z     vdW  Elec       q    Type
REMARK                         _______ _______ _______ _____ _____    ______ ____
ROOT
ATOM      1  C   UNL     1       0.157  11.157  18.631  0.00  0.00    +0.000 C 
ATOM      2  C   UNL     1       1.494  10.447  18.307  0.00  0.00    +0.000 C 
ATOM      3  C   UNL     1       1.636   9.082  18.918  0.00  0.00    +0.000 A 
ATOM      4  C   UNL     1       2.449   8.118  18.291  0.00  0.00    +0.000 A 
ATOM      5  C   UNL     1       2.651   6.886  18.902  0.00  0.00    +0.000 A 
ATOM      6  C   UNL     1       2.050   6.609  20.126  0.00  0.00    +0.000 A 
ATOM      7  C   UNL     1       1.240   7.568  20.744  0.00  0.00    +0.000 A 
ATOM      8  C   UNL     1       1.047   8.828  20.170  0.00  0.00    +0.000 A 
ATOM      9  C   UNL     1       0.228   9.885  20.793  0.00  0.00    +0.000 A 
ATOM     10  C   UNL     1      -0.204  10.120  22.100  0.00  0.00    +0.000 A 
ATOM     11  C   UNL     1      -1.110  11.233  22.061  0.00  0.00    +0.000 A 
ATOM     12  C   UNL     1      -1.845  11.928  23.057  0.00  0.00    +0.000 A 
ATOM     13  C   UNL     1      -2.665  12.992  22.682  0.00  0.00    +0.000 A 
ATOM     14  C   UNL     1      -2.845  13.310  21.342  0.00  0.00    +0.000 A 
ATOM     15  C   UNL     1      -2.168  12.605  20.346  0.00  0.00    +0.000 A 
ATOM     16  C   UNL     1      -1.227  11.634  20.730  0.00  0.00    +0.000 A 
ATOM     17  N   UNL     1      -0.259  10.942  20.025  0.00  0.00    +0.000 N 
ENDROOT
BRANCH   1  19
ATOM     18  C   UNL     1       1.459  13.428  18.663  0.00  0.00    +0.000 C 
ATOM     19  C   UNL     1       0.260  12.633  18.154  0.00  0.00    +0.000 C 
ENDBRANCH   1  19
BRANCH  10  20
ATOM     20  C   UNL     1       0.144   9.399  23.315  0.00  0.00    +0.000 C 
ATOM     21  O   UNL     1       1.154   9.583  23.988  0.00  0.00    +0.000 OA
ENDBRANCH  10  20
BRANCH   5  22
ATOM     22  O   UNL     1       3.454   5.841  18.385  0.00  0.00    +0.000 OA
BRANCH  22  23
ATOM     23  C   UNL     1       3.007   4.721  17.681  0.00  0.00    +0.000 C 
ATOM     24  C   UNL     1       4.190   3.992  17.110  0.00  0.00    +0.000 C 
ATOM     25  O   UNL     1       1.849   4.370  17.516  0.00  0.00    +0.000 OA
ENDBRANCH  22  23
ENDBRANCH   5  22
BRANCH  13  26
ATOM     26  O   UNL     1      -3.335  13.852  23.590  0.00  0.00    +0.000 OA
BRANCH  26  27
ATOM     27  C   UNL     1      -4.671  13.757  23.982  0.00  0.00    +0.000 C 
ATOM     28  C   UNL     1      -4.889  12.448  24.684  0.00  0.00    +0.000 C 
ATOM     29  O   UNL     1      -5.559  14.571  23.776  0.00  0.00    +0.000 OA
ENDBRANCH  26  27
ENDBRANCH  13  26
TORSDOF 6
ENDMDL
MODEL 7
REMARK VINA RESULT:      -7.3      2.812      5.447
REMARK  Name = 
REMARK  9 active torsions:
REMARK  status: ('A' for Active; 'I' for Inactive)
REMARK    1  A    between atoms: C_1  and  C_2
REMARK    2  A    between atoms: C_2  and  C_3
REMARK    3  A    between atoms: C_7  and  O_8
REMARK    4  A    between atoms: O_8  and  C_9
REMARK    5  A    between atoms: C_9  and  C_10
REMARK    6  A    between atoms: C_16  and  C_17
REMARK    7  A    between atoms: C_21  and  O_22
REMARK    8  A    between atoms: O_22  and  C_23
REMARK    9  A    between atoms: C_23  and  C_24
REMARK                            x       y       z     vdW  Elec       q    Type
REMARK                         _______ _______ _______ _____ _____    ______ ____
ROOT
ATOM      1  C   UNL     1       0.253  11.293  18.579  0.00  0.00    +0.000 C 
ATOM      2  C   UNL     1       1.624  10.674  18.213  0.00  0.00    +0.000 C 
ATOM      3  C   UNL     1       1.818   9.265  18.698  0.00  0.00    +0.000 A 
ATOM      4  C   UNL     1       2.680   8.398  17.998  0.00  0.00    +0.000 A 
ATOM      5  C   UNL     1       2.927   7.125  18.496  0.00  0.00    +0.000 A 
ATOM      6  C   UNL     1       2.323   6.711  19.680  0.00  0.00    +0.000 A 
ATOM      7  C   UNL     1       1.465   7.573  20.370  0.00  0.00    +0.000 A 
ATOM      8  C   UNL     1       1.224   8.872  19.911  0.00  0.00    +0.000 A 
ATOM      9  C   UNL     1       0.352   9.831  20.616  0.00  0.00    +0.000 A 
ATOM     10  C   UNL     1      -0.106   9.925  21.931  0.00  0.00    +0.000 A 
ATOM     11  C   UNL     1      -1.059  10.998  21.980  0.00  0.00    +0.000 A 
ATOM     12  C   UNL     1      -1.835  11.566  23.023  0.00  0.00    +0.000 A 
ATOM     13  C   UNL     1      -2.697  12.625  22.734  0.00  0.00    +0.000 A 
ATOM     14  C   UNL     1      -2.874  13.057  21.426  0.00  0.00    +0.000 A 
ATOM     15  C   UNL     1      -2.154  12.476  20.380  0.00  0.00    +0.000 A 
ATOM     16  C   UNL     1      -1.176  11.515  20.689  0.00  0.00    +0.000 A 
ATOM     17  N   UNL     1      -0.170  10.933  19.940  0.00  0.00    +0.000 N 
ENDROOT
BRANCH   1  19
ATOM     18  C   UNL     1       1.629  13.518  18.476  0.00  0.00    +0.000 C 
ATOM     19  C   UNL     1       0.298  12.810  18.241  0.00  0.00    +0.000 C 
ENDBRANCH   1  19
BRANCH  10  20
ATOM     20  C   UNL     1       0.258   9.110  23.080  0.00  0.00    +0.000 C 
ATOM     21  O   UNL     1       0.718   9.533  24.137  0.00  0.00    +0.000 OA
ENDBRANCH  10  20
BRANCH   5  22
ATOM     22  O   UNL     1       3.781   6.167  17.899  0.00  0.00    +0.000 OA
BRANCH  22  23
ATOM     23  C   UNL     1       4.584   5.239  18.566  0.00  0.00    +0.000 C 
ATOM     24  C   UNL     1       4.152   3.851  18.190  0.00  0.00    +0.000 C 
ATOM     25  O   UNL     1       5.486   5.480  19.353  0.00  0.00    +0.000 OA
ENDBRANCH  22  23
ENDBRANCH   5  22
BRANCH  13  26
ATOM     26  O   UNL     1      -3.415  13.368  23.706  0.00  0.00    +0.000 OA
BRANCH  26  27
ATOM     27  C   UNL     1      -4.716  13.114  24.142  0.00  0.00    +0.000 C 
ATOM     28  C   UNL     1      -5.604  14.257  23.748  0.00  0.00    +0.000 C 
ATOM     29  O   UNL     1      -5.103  12.144  24.776  0.00  0.00    +0.000 OA
ENDBRANCH  26  27
ENDBRANCH  13  26
TORSDOF 6
ENDMDL
MODEL 8
REMARK VINA RESULT:      -7.3      2.985      5.970
REMARK  Name = 
REMARK  9 active torsions:
REMARK  status: ('A' for Active; 'I' for Inactive)
REMARK    1  A    between atoms: C_1  and  C_2
REMARK    2  A    between atoms: C_2  and  C_3
REMARK    3  A    between atoms: C_7  and  O_8
REMARK    4  A    between atoms: O_8  and  C_9
REMARK    5  A    between atoms: C_9  and  C_10
REMARK    6  A    between atoms: C_16  and  C_17
REMARK    7  A    between atoms: C_21  and  O_22
REMARK    8  A    between atoms: O_22  and  C_23
REMARK    9  A    between atoms: C_23  and  C_24
REMARK                            x       y       z     vdW  Elec       q    Type
REMARK                         _______ _______ _______ _____ _____    ______ ____
ROOT
ATOM      1  C   UNL     1      -0.328  11.709  18.709  0.00  0.00    +0.000 C 
ATOM      2  C   UNL     1       1.061  11.132  18.342  0.00  0.00    +0.000 C 
ATOM      3  C   UNL     1       1.320   9.751  18.876  0.00  0.00    +0.000 A 
ATOM      4  C   UNL     1       2.205   8.894  18.194  0.00  0.00    +0.000 A 
ATOM      5  C   UNL     1       2.512   7.652  18.735  0.00  0.00    +0.000 A 
ATOM      6  C   UNL     1       1.945   7.259  19.944  0.00  0.00    +0.000 A 
ATOM      7  C   UNL     1       1.065   8.113  20.617  0.00  0.00    +0.000 A 
ATOM      8  C   UNL     1       0.763   9.382  20.114  0.00  0.00    +0.000 A 
ATOM      9  C   UNL     1      -0.136  10.331  20.797  0.00  0.00    +0.000 A 
ATOM     10  C   UNL     1      -0.576  10.458  22.117  0.00  0.00    +0.000 A 
ATOM     11  C   UNL     1      -1.570  11.492  22.142  0.00  0.00    +0.000 A 
ATOM     12  C   UNL     1      -2.352  12.068  23.177  0.00  0.00    +0.000 A 
ATOM     13  C   UNL     1      -3.260  13.080  22.865  0.00  0.00    +0.000 A 
ATOM     14  C   UNL     1      -3.477  13.454  21.545  0.00  0.00    +0.000 A 
ATOM     15  C   UNL     1      -2.751  12.863  20.509  0.00  0.00    +0.000 A 
ATOM     16  C   UNL     1      -1.730  11.954  20.836  0.00  0.00    +0.000 A 
ATOM     17  N   UNL     1      -0.714  11.385  20.090  0.00  0.00    +0.000 N 
ENDROOT
BRANCH   1  19
ATOM     18  C   UNL     1       0.735  14.092  18.926  0.00  0.00    +0.000 C 
ATOM     19  C   UNL     1      -0.351  13.213  18.314  0.00  0.00    +0.000 C 
ENDBRANCH   1  19
BRANCH  10  20
ATOM     20  C   UNL     1      -0.160   9.702  23.289  0.00  0.00    +0.000 C 
ATOM     21  O   UNL     1       0.983   9.651  23.735  0.00  0.00    +0.000 OA
ENDBRANCH  10  20
BRANCH   5  22
ATOM     22  O   UNL     1       3.395   6.707  18.159  0.00  0.00    +0.000 OA
BRANCH  22  23
ATOM     23  C   UNL     1       3.595   5.391  18.582  0.00  0.00    +0.000 C 
ATOM     24  C   UNL     1       2.715   4.475  17.781  0.00  0.00    +0.000 C 
ATOM     25  O   UNL     1       4.340   5.011  19.472  0.00  0.00    +0.000 OA
ENDBRANCH  22  23
ENDBRANCH   5  22
BRANCH  13  26
ATOM     26  O   UNL     1      -3.992  13.830  23.821  0.00  0.00    +0.000 OA
BRANCH  26  27
ATOM     27  C   UNL     1      -5.360  14.101  23.783  0.00  0.00    +0.000 C 
ATOM     28  C   UNL     1      -6.124  12.829  24.009  0.00  0.00    +0.000 C 
ATOM     29  O   UNL     1      -5.892  15.181  23.570  0.00  0.00    +0.000 OA
ENDBRANCH  26  27
ENDBRANCH  13  26
TORSDOF 6
ENDMDL
MODEL 9
REMARK VINA RESULT:      -7.2      2.794      5.742
REMARK  Name = 
REMARK  9 active torsions:
REMARK  status: ('A' for Active; 'I' for Inactive)
REMARK    1  A    between atoms: C_1  and  C_2
REMARK    2  A    between atoms: C_2  and  C_3
REMARK    3  A    between atoms: C_7  and  O_8
REMARK    4  A    between atoms: O_8  and  C_9
REMARK    5  A    between atoms: C_9  and  C_10
REMARK    6  A    between atoms: C_16  and  C_17
REMARK    7  A    between atoms: C_21  and  O_22
REMARK    8  A    between atoms: O_22  and  C_23
REMARK    9  A    between atoms: C_23  and  C_24
REMARK                            x       y       z     vdW  Elec       q    Type
REMARK                         _______ _______ _______ _____ _____    ______ ____
ROOT
ATOM      1  C   UNL     1      -0.285  11.420  18.772  0.00  0.00    +0.000 C 
ATOM      2  C   UNL     1       1.088  10.815  18.389  0.00  0.00    +0.000 C 
ATOM      3  C   UNL     1       1.348   9.451  18.965  0.00  0.00    +0.000 A 
ATOM      4  C   UNL     1       2.205   8.560  18.290  0.00  0.00    +0.000 A 
ATOM      5  C   UNL     1       2.516   7.335  18.867  0.00  0.00    +0.000 A 
ATOM      6  C   UNL     1       1.979   6.992  20.104  0.00  0.00    +0.000 A 
ATOM      7  C   UNL     1       1.125   7.879  20.770  0.00  0.00    +0.000 A 
ATOM      8  C   UNL     1       0.823   9.132  20.230  0.00  0.00    +0.000 A 
ATOM      9  C   UNL     1      -0.048  10.115  20.903  0.00  0.00    +0.000 A 
ATOM     10  C   UNL     1      -0.450  10.293  22.228  0.00  0.00    +0.000 A 
ATOM     11  C   UNL     1      -1.433  11.338  22.244  0.00  0.00    +0.000 A 
ATOM     12  C   UNL     1      -2.180  11.960  23.278  0.00  0.00    +0.000 A 
ATOM     13  C   UNL     1      -3.087  12.969  22.954  0.00  0.00    +0.000 A 
ATOM     14  C   UNL     1      -3.336  13.299  21.628  0.00  0.00    +0.000 A 
ATOM     15  C   UNL     1      -2.646  12.663  20.595  0.00  0.00    +0.000 A 
ATOM     16  C   UNL     1      -1.624  11.756  20.926  0.00  0.00    +0.000 A 
ATOM     17  N   UNL     1      -0.635  11.149  20.175  0.00  0.00    +0.000 N 
ENDROOT
BRANCH   1  19
ATOM     18  C   UNL     1       0.897  13.756  18.734  0.00  0.00    +0.000 C 
ATOM     19  C   UNL     1      -0.303  12.908  18.324  0.00  0.00    +0.000 C 
ENDBRANCH   1  19
BRANCH  10  20
ATOM     20  C   UNL     1      -0.009   9.576  23.415  0.00  0.00    +0.000 C 
ATOM     21  O   UNL     1       1.135   9.573  23.862  0.00  0.00    +0.000 OA
ENDBRANCH  10  20
BRANCH   5  22
ATOM     22  O   UNL     1       3.373   6.361  18.302  0.00  0.00    +0.000 OA
BRANCH  22  23
ATOM     23  C   UNL     1       2.991   5.129  17.766  0.00  0.00    +0.000 C 
ATOM     24  C   UNL     1       4.209   4.409  17.263  0.00  0.00    +0.000 C 
ATOM     25  O   UNL     1       1.857   4.684  17.684  0.00  0.00    +0.000 OA
ENDBRANCH  22  23
ENDBRANCH   5  22
BRANCH  13  26
ATOM     26  O   UNL     1      -3.784  13.761  23.902  0.00  0.00    +0.000 OA
BRANCH  26  27
ATOM     27  C   UNL     1      -3.590  15.122  24.142  0.00  0.00    +0.000 C 
ATOM     28  C   UNL     1      -4.906  15.836  24.044  0.00  0.00    +0.000 C 
ATOM     29  O   UNL     1      -2.529  15.686  24.365  0.00  0.00    +0.000 OA
ENDBRANCH  26  27
ENDBRANCH  13  26
TORSDOF 6
ENDMDL
