MODEL 1
REMARK VINA RESULT:      -8.6      0.000      0.000
REMARK  Name = 
REMARK  9 active torsions:
REMARK  status: ('A' for Active; 'I' for Inactive)
REMARK    1  A    between atoms: C_1  and  C_2
REMARK    2  A    between atoms: C_2  and  C_3
REMARK    3  A    between atoms: C_2  and  C_4
REMARK    4  A    between atoms: C_8  and  C_9
REMARK    5  A    between atoms: C_13  and  C_14
REMARK    6  A    between atoms: C_14  and  P_17
REMARK    7  A    between atoms: P_17  and  O_19
REMARK    8  A    between atoms: P_17  and  O_20
REMARK    9  A    between atoms: C_22  and  O_23
REMARK                            x       y       z     vdW  Elec       q    Type
REMARK                         _______ _______ _______ _____ _____    ______ ____
ROOT
ATOM      1  C   UNL     1       2.770   6.319  18.188  0.00  0.00    +0.000 A 
ATOM      2  C   UNL     1       1.992   5.157  18.020  0.00  0.00    +0.000 A 
ATOM      3  C   UNL     1       2.553   3.978  17.504  0.00  0.00    +0.000 A 
ATOM      4  C   UNL     1       3.905   3.926  17.177  0.00  0.00    +0.000 A 
ATOM      5  C   UNL     1       4.726   5.039  17.388  0.00  0.00    +0.000 A 
ATOM      6  C   UNL     1       4.144   6.217  17.891  0.00  0.00    +0.000 A 
ENDROOT
BRANCH   1  11
ATOM      7  C   UNL     1       1.123   9.139  20.283  0.00  0.00    +0.000 A 
ATOM      8  C   UNL     1       0.956  10.096  19.274  0.00  0.00    +0.000 A 
ATOM      9  C   UNL     1       1.384   9.847  17.973  0.00  0.00    +0.000 A 
ATOM     10  C   UNL     1       1.994   8.632  17.659  0.00  0.00    +0.000 A 
ATOM     11  C   UNL     1       2.185   7.620  18.623  0.00  0.00    +0.000 A 
ATOM     12  C   UNL     1       1.743   7.912  19.941  0.00  0.00    +0.000 A 
BRANCH   7  14
ATOM     13  C   UNL     1       0.316  10.904  21.876  0.00  0.00    +0.000 C 
ATOM     14  C   UNL     1       0.658   9.422  21.710  0.00  0.00    +0.000 C 
ATOM     15  C   UNL     1      -0.528   8.558  22.165  0.00  0.00    +0.000 C 
ENDBRANCH   7  14
BRANCH  12  16
ATOM     16  O   UNL     1       1.863   6.994  20.957  0.00  0.00    +0.000 OA
ATOM     17  H   UNL     1       2.595   6.393  20.748  0.00  0.00    +0.000 HD
ENDBRANCH  12  16
ENDBRANCH   1  11
BRANCH   5  18
ATOM     18  C   UNL     1       6.173   5.046  16.932  0.00  0.00    +0.000 C 
ATOM     19  F   UNL     1       6.567   3.876  16.362  0.00  0.00    +0.000 F 
ATOM     20  F   UNL     1       6.505   6.059  16.085  0.00  0.00    +0.000 F 
BRANCH  18  21
ATOM     21  P   UNL     1       7.320   5.228  18.345  0.00  0.00    +0.000 P 
ATOM     22  O   UNL     1       6.415   4.450  19.316  0.00  0.00    +0.000 OA
BRANCH  21  23
ATOM     23  O   UNL     1       8.352   4.074  17.770  0.00  0.00    +0.000 OA
ATOM     24  H   UNL     1       7.985   3.187  17.960  0.00  0.00    +0.000 HD
ENDBRANCH  21  23
BRANCH  21  25
ATOM     25  O   UNL     1       8.404   5.400  19.682  0.00  0.00    +0.000 OA
ATOM     26  H   UNL     1       7.991   4.868  20.394  0.00  0.00    +0.000 HD
ENDBRANCH  21  25
ENDBRANCH  18  21
ENDBRANCH   5  18
TORSDOF 7
ENDMDL
MODEL 2
REMARK VINA RESULT:      -8.3      1.319      1.444
REMARK  Name = 
REMARK  9 active torsions:
REMARK  status: ('A' for Active; 'I' for Inactive)
REMARK    1  A    between atoms: C_1  and  C_2
REMARK    2  A    between atoms: C_2  and  C_3
REMARK    3  A    between atoms: C_2  and  C_4
REMARK    4  A    between atoms: C_8  and  C_9
REMARK    5  A    between atoms: C_13  and  C_14
REMARK    6  A    between atoms: C_14  and  P_17
REMARK    7  A    between atoms: P_17  and  O_19
REMARK    8  A    between atoms: P_17  and  O_20
REMARK    9  A    between atoms: C_22  and  O_23
REMARK                            x       y       z     vdW  Elec       q    Type
REMARK                         _______ _______ _______ _____ _____    ______ ____
ROOT
ATOM      1  C   UNL     1       2.726   5.833  18.127  0.00  0.00    +0.000 A 
ATOM      2  C   UNL     1       2.006   4.658  18.417  0.00  0.00    +0.000 A 
ATOM      3  C   UNL     1       2.416   3.414  17.910  0.00  0.00    +0.000 A 
ATOM      4  C   UNL     1       3.567   3.316  17.134  0.00  0.00    +0.000 A 
ATOM      5  C   UNL     1       4.344   4.449  16.875  0.00  0.00    +0.000 A 
ATOM      6  C   UNL     1       3.910   5.690  17.378  0.00  0.00    +0.000 A 
ENDROOT
BRANCH   1  11
ATOM      7  C   UNL     1       1.324   8.804  20.192  0.00  0.00    +0.000 A 
ATOM      8  C   UNL     1       1.253   9.766  19.176  0.00  0.00    +0.000 A 
ATOM      9  C   UNL     1       1.668   9.472  17.880  0.00  0.00    +0.000 A 
ATOM     10  C   UNL     1       2.168   8.205  17.579  0.00  0.00    +0.000 A 
ATOM     11  C   UNL     1       2.258   7.185  18.550  0.00  0.00    +0.000 A 
ATOM     12  C   UNL     1       1.832   7.524  19.862  0.00  0.00    +0.000 A 
BRANCH   7  14
ATOM     13  C   UNL     1       0.854  10.652  21.826  0.00  0.00    +0.000 C 
ATOM     14  C   UNL     1       0.874   9.137  21.613  0.00  0.00    +0.000 C 
ATOM     15  C   UNL     1      -0.488   8.538  21.995  0.00  0.00    +0.000 C 
ENDBRANCH   7  14
BRANCH  12  16
ATOM     16  O   UNL     1       1.860   6.606  20.884  0.00  0.00    +0.000 OA
ATOM     17  H   UNL     1       2.761   6.256  20.964  0.00  0.00    +0.000 HD
ENDBRANCH  12  16
ENDBRANCH   1  11
BRANCH   5  18
ATOM     18  C   UNL     1       5.535   4.389  15.937  0.00  0.00    +0.000 C 
ATOM     19  F   UNL     1       6.263   3.247  16.058  0.00  0.00    +0.000 F 
ATOM     20  F   UNL     1       5.241   4.562  14.619  0.00  0.00    +0.000 F 
BRANCH  18  21
ATOM     21  P   UNL     1       6.754   5.701  16.316  0.00  0.00    +0.000 P 
ATOM     22  O   UNL     1       7.653   4.771  17.150  0.00  0.00    +0.000 OA
BRANCH  21  23
ATOM     23  O   UNL     1       7.424   5.635  14.808  0.00  0.00    +0.000 OA
ATOM     24  H   UNL     1       6.725   5.438  14.150  0.00  0.00    +0.000 HD
ENDBRANCH  21  23
BRANCH  21  25
ATOM     25  O   UNL     1       7.906   6.940  16.675  0.00  0.00    +0.000 OA
ATOM     26  H   UNL     1       7.436   7.528  17.301  0.00  0.00    +0.000 HD
ENDBRANCH  21  25
ENDBRANCH  18  21
ENDBRANCH   5  18
TORSDOF 7
ENDMDL
MODEL 3
REMARK VINA RESULT:      -8.3      1.814      2.127
REMARK  Name = 
REMARK  9 active torsions:
REMARK  status: ('A' for Active; 'I' for Inactive)
REMARK    1  A    between atoms: C_1  and  C_2
REMARK    2  A    between atoms: C_2  and  C_3
REMARK    3  A    between atoms: C_2  and  C_4
REMARK    4  A    between atoms: C_8  and  C_9
REMARK    5  A    between atoms: C_13  and  C_14
REMARK    6  A    between atoms: C_14  and  P_17
REMARK    7  A    between atoms: P_17  and  O_19
REMARK    8  A    between atoms: P_17  and  O_20
REMARK    9  A    between atoms: C_22  and  O_23
REMARK                            x       y       z     vdW  Elec       q    Type
REMARK                         _______ _______ _______ _____ _____    ______ ____
ROOT
ATOM      1  C   UNL     1       3.011   6.193  18.225  0.00  0.00    +0.000 A 
ATOM      2  C   UNL     1       2.297   4.980  18.197  0.00  0.00    +0.000 A 
ATOM      3  C   UNL     1       2.892   3.799  17.724  0.00  0.00    +0.000 A 
ATOM      4  C   UNL     1       4.219   3.801  17.302  0.00  0.00    +0.000 A 
ATOM      5  C   UNL     1       4.981   4.971  17.372  0.00  0.00    +0.000 A 
ATOM      6  C   UNL     1       4.363   6.148  17.834  0.00  0.00    +0.000 A 
ENDROOT
BRANCH   1  11
ATOM      7  C   UNL     1       1.214   9.011  20.196  0.00  0.00    +0.000 A 
ATOM      8  C   UNL     1       1.064   9.944  19.162  0.00  0.00    +0.000 A 
ATOM      9  C   UNL     1       1.548   9.681  17.884  0.00  0.00    +0.000 A 
ATOM     10  C   UNL     1       2.200   8.476  17.619  0.00  0.00    +0.000 A 
ATOM     11  C   UNL     1       2.377   7.487  18.610  0.00  0.00    +0.000 A 
ATOM     12  C   UNL     1       1.877   7.793  19.903  0.00  0.00    +0.000 A 
BRANCH   7  14
ATOM     13  C   UNL     1       0.432  10.810  21.764  0.00  0.00    +0.000 C 
ATOM     14  C   UNL     1       0.687   9.311  21.598  0.00  0.00    +0.000 C 
ATOM     15  C   UNL     1      -0.576   8.521  21.973  0.00  0.00    +0.000 C 
ENDBRANCH   7  14
BRANCH  12  16
ATOM     16  O   UNL     1       1.979   6.900  20.942  0.00  0.00    +0.000 OA
ATOM     17  H   UNL     1       2.660   6.245  20.723  0.00  0.00    +0.000 HD
ENDBRANCH  12  16
ENDBRANCH   1  11
BRANCH   5  18
ATOM     18  C   UNL     1       6.389   5.027  16.810  0.00  0.00    +0.000 C 
ATOM     19  F   UNL     1       6.849   6.294  16.628  0.00  0.00    +0.000 F 
ATOM     20  F   UNL     1       7.322   4.339  17.523  0.00  0.00    +0.000 F 
BRANCH  18  21
ATOM     21  P   UNL     1       6.468   4.310  15.128  0.00  0.00    +0.000 P 
ATOM     22  O   UNL     1       5.273   5.129  14.609  0.00  0.00    +0.000 OA
BRANCH  21  23
ATOM     23  O   UNL     1       7.776   5.225  14.704  0.00  0.00    +0.000 OA
ATOM     24  H   UNL     1       8.381   4.690  14.150  0.00  0.00    +0.000 HD
ENDBRANCH  21  23
BRANCH  21  25
ATOM     25  O   UNL     1       6.541   3.633  13.538  0.00  0.00    +0.000 OA
ATOM     26  H   UNL     1       6.578   2.666  13.692  0.00  0.00    +0.000 HD
ENDBRANCH  21  25
ENDBRANCH  18  21
ENDBRANCH   5  18
TORSDOF 7
ENDMDL
MODEL 4
REMARK VINA RESULT:      -8.3      0.823      1.061
REMARK  Name = 
REMARK  9 active torsions:
REMARK  status: ('A' for Active; 'I' for Inactive)
REMARK    1  A    between atoms: C_1  and  C_2
REMARK    2  A    between atoms: C_2  and  C_3
REMARK    3  A    between atoms: C_2  and  C_4
REMARK    4  A    between atoms: C_8  and  C_9
REMARK    5  A    between atoms: C_13  and  C_14
REMARK    6  A    between atoms: C_14  and  P_17
REMARK    7  A    between atoms: P_17  and  O_19
REMARK    8  A    between atoms: P_17  and  O_20
REMARK    9  A    between atoms: C_22  and  O_23
REMARK                            x       y       z     vdW  Elec       q    Type
REMARK                         _______ _______ _______ _____ _____    ______ ____
ROOT
ATOM      1  C   UNL     1       2.688   6.148  18.154  0.00  0.00    +0.000 A 
ATOM      2  C   UNL     1       1.903   4.988  18.016  0.00  0.00    +0.000 A 
ATOM      3  C   UNL     1       2.424   3.827  17.419  0.00  0.00    +0.000 A 
ATOM      4  C   UNL     1       3.745   3.794  16.982  0.00  0.00    +0.000 A 
ATOM      5  C   UNL     1       4.576   4.905  17.157  0.00  0.00    +0.000 A 
ATOM      6  C   UNL     1       4.033   6.064  17.743  0.00  0.00    +0.000 A 
ENDROOT
BRANCH   1  11
ATOM      7  C   UNL     1       1.082   8.856  20.421  0.00  0.00    +0.000 A 
ATOM      8  C   UNL     1       0.974   9.893  19.486  0.00  0.00    +0.000 A 
ATOM      9  C   UNL     1       1.429   9.731  18.180  0.00  0.00    +0.000 A 
ATOM     10  C   UNL     1       2.006   8.522  17.788  0.00  0.00    +0.000 A 
ATOM     11  C   UNL     1       2.136   7.432  18.675  0.00  0.00    +0.000 A 
ATOM     12  C   UNL     1       1.668   7.637  20.000  0.00  0.00    +0.000 A 
BRANCH   7  14
ATOM     13  C   UNL     1       1.763   9.348  22.788  0.00  0.00    +0.000 C 
ATOM     14  C   UNL     1       0.588   9.045  21.854  0.00  0.00    +0.000 C 
ATOM     15  C   UNL     1      -0.493  10.126  22.007  0.00  0.00    +0.000 C 
ENDBRANCH   7  14
BRANCH  12  16
ATOM     16  O   UNL     1       1.730   6.641  20.944  0.00  0.00    +0.000 OA
ATOM     17  H   UNL     1       2.470   6.053  20.728  0.00  0.00    +0.000 HD
ENDBRANCH  12  16
ENDBRANCH   1  11
BRANCH   5  18
ATOM     18  C   UNL     1       5.981   4.935  16.584  0.00  0.00    +0.000 C 
ATOM     19  F   UNL     1       6.459   3.704  16.259  0.00  0.00    +0.000 F 
ATOM     20  F   UNL     1       6.146   5.749  15.506  0.00  0.00    +0.000 F 
BRANCH  18  21
ATOM     21  P   UNL     1       7.193   5.540  17.814  0.00  0.00    +0.000 P 
ATOM     22  O   UNL     1       8.194   4.402  17.544  0.00  0.00    +0.000 OA
BRANCH  21  23
ATOM     23  O   UNL     1       7.717   6.757  16.828  0.00  0.00    +0.000 OA
ATOM     24  H   UNL     1       8.419   7.265  17.285  0.00  0.00    +0.000 HD
ENDBRANCH  21  23
BRANCH  21  25
ATOM     25  O   UNL     1       8.339   6.111  18.976  0.00  0.00    +0.000 OA
ATOM     26  H   UNL     1       7.846   6.103  19.822  0.00  0.00    +0.000 HD
ENDBRANCH  21  25
ENDBRANCH  18  21
ENDBRANCH   5  18
TORSDOF 7
ENDMDL
MODEL 5
REMARK VINA RESULT:      -8.2      1.011      1.272
REMARK  Name = 
REMARK  9 active torsions:
REMARK  status: ('A' for Active; 'I' for Inactive)
REMARK    1  A    between atoms: C_1  and  C_2
REMARK    2  A    between atoms: C_2  and  C_3
REMARK    3  A    between atoms: C_2  and  C_4
REMARK    4  A    between atoms: C_8  and  C_9
REMARK    5  A    between atoms: C_13  and  C_14
REMARK    6  A    between atoms: C_14  and  P_17
REMARK    7  A    between atoms: P_17  and  O_19
REMARK    8  A    between atoms: P_17  and  O_20
REMARK    9  A    between atoms: C_22  and  O_23
REMARK                            x       y       z     vdW  Elec       q    Type
REMARK                         _______ _______ _______ _____ _____    ______ ____
ROOT
ATOM      1  C   UNL     1       2.558   6.618  18.387  0.00  0.00    +0.000 A 
ATOM      2  C   UNL     1       1.959   5.375  18.669  0.00  0.00    +0.000 A 
ATOM      3  C   UNL     1       2.503   4.179  18.173  0.00  0.00    +0.000 A 
ATOM      4  C   UNL     1       3.671   4.199  17.415  0.00  0.00    +0.000 A 
ATOM      5  C   UNL     1       4.330   5.406  17.166  0.00  0.00    +0.000 A 
ATOM      6  C   UNL     1       3.763   6.596  17.657  0.00  0.00    +0.000 A 
ENDROOT
BRANCH   1  11
ATOM      7  C   UNL     1       0.926   9.470  20.451  0.00  0.00    +0.000 A 
ATOM      8  C   UNL     1       0.655  10.368  19.411  0.00  0.00    +0.000 A 
ATOM      9  C   UNL     1       1.011  10.074  18.098  0.00  0.00    +0.000 A 
ATOM     10  C   UNL     1       1.652   8.870  17.802  0.00  0.00    +0.000 A 
ATOM     11  C   UNL     1       1.946   7.915  18.798  0.00  0.00    +0.000 A 
ATOM     12  C   UNL     1       1.575   8.253  20.126  0.00  0.00    +0.000 A 
BRANCH   7  14
ATOM     13  C   UNL     1       0.080  11.260  21.996  0.00  0.00    +0.000 C 
ATOM     14  C   UNL     1       0.540   9.804  21.890  0.00  0.00    +0.000 C 
ATOM     15  C   UNL     1      -0.530   8.874  22.483  0.00  0.00    +0.000 C 
ENDBRANCH   7  14
BRANCH  12  16
ATOM     16  O   UNL     1       1.798   7.392  21.174  0.00  0.00    +0.000 OA
ATOM     17  H   UNL     1       1.468   7.801  21.989  0.00  0.00    +0.000 HD
ENDBRANCH  12  16
ENDBRANCH   1  11
BRANCH   5  18
ATOM     18  C   UNL     1       5.537   5.468  16.246  0.00  0.00    +0.000 C 
ATOM     19  F   UNL     1       5.388   4.738  15.109  0.00  0.00    +0.000 F 
ATOM     20  F   UNL     1       5.929   6.722  15.893  0.00  0.00    +0.000 F 
BRANCH  18  21
ATOM     21  P   UNL     1       7.014   4.723  17.028  0.00  0.00    +0.000 P 
ATOM     22  O   UNL     1       7.805   4.651  15.711  0.00  0.00    +0.000 OA
BRANCH  21  23
ATOM     23  O   UNL     1       7.495   6.157  17.691  0.00  0.00    +0.000 OA
ATOM     24  H   UNL     1       7.650   6.036  18.650  0.00  0.00    +0.000 HD
ENDBRANCH  21  23
BRANCH  21  25
ATOM     25  O   UNL     1       8.410   4.018  17.767  0.00  0.00    +0.000 OA
ATOM     26  H   UNL     1       9.158   4.537  17.405  0.00  0.00    +0.000 HD
ENDBRANCH  21  25
ENDBRANCH  18  21
ENDBRANCH   5  18
TORSDOF 7
ENDMDL
MODEL 6
REMARK VINA RESULT:      -8.1      2.412      2.965
REMARK  Name = 
REMARK  9 active torsions:
REMARK  status: ('A' for Active; 'I' for Inactive)
REMARK    1  A    between atoms: C_1  and  C_2
REMARK    2  A    between atoms: C_2  and  C_3
REMARK    3  A    between atoms: C_2  and  C_4
REMARK    4  A    between atoms: C_8  and  C_9
REMARK    5  A    between atoms: C_13  and  C_14
REMARK    6  A    between atoms: C_14  and  P_17
REMARK    7  A    between atoms: P_17  and  O_19
REMARK    8  A    between atoms: P_17  and  O_20
REMARK    9  A    between atoms: C_22  and  O_23
REMARK                            x       y       z     vdW  Elec       q    Type
REMARK                         _______ _______ _______ _____ _____    ______ ____
ROOT
ATOM      1  C   UNL     1       2.621   7.290  18.110  0.00  0.00    +0.000 A 
ATOM      2  C   UNL     1       3.856   7.551  17.486  0.00  0.00    +0.000 A 
ATOM      3  C   UNL     1       4.705   6.503  17.094  0.00  0.00    +0.000 A 
ATOM      4  C   UNL     1       4.324   5.178  17.289  0.00  0.00    +0.000 A 
ATOM      5  C   UNL     1       3.078   4.877  17.849  0.00  0.00    +0.000 A 
ATOM      6  C   UNL     1       2.247   5.940  18.250  0.00  0.00    +0.000 A 
ENDROOT
BRANCH   1  11
ATOM      7  C   UNL     1       0.590   9.606  20.470  0.00  0.00    +0.000 A 
ATOM      8  C   UNL     1      -0.055  10.393  19.507  0.00  0.00    +0.000 A 
ATOM      9  C   UNL     1       0.179  10.198  18.149  0.00  0.00    +0.000 A 
ATOM     10  C   UNL     1       1.071   9.211  17.729  0.00  0.00    +0.000 A 
ATOM     11  C   UNL     1       1.748   8.376  18.643  0.00  0.00    +0.000 A 
ATOM     12  C   UNL     1       1.490   8.608  20.020  0.00  0.00    +0.000 A 
BRANCH   7  14
ATOM     13  C   UNL     1      -0.262  11.220  22.195  0.00  0.00    +0.000 C 
ATOM     14  C   UNL     1       0.335   9.831  21.959  0.00  0.00    +0.000 C 
ATOM     15  C   UNL     1      -0.556   8.762  22.610  0.00  0.00    +0.000 C 
ENDBRANCH   7  14
BRANCH  12  16
ATOM     16  O   UNL     1       2.080   7.845  20.999  0.00  0.00    +0.000 OA
ATOM     17  H   UNL     1       1.935   8.272  21.857  0.00  0.00    +0.000 HD
ENDBRANCH  12  16
ENDBRANCH   1  11
BRANCH   5  18
ATOM     18  C   UNL     1       2.690   3.448  18.180  0.00  0.00    +0.000 C 
ATOM     19  F   UNL     1       1.568   3.354  18.943  0.00  0.00    +0.000 F 
ATOM     20  F   UNL     1       2.535   2.629  17.103  0.00  0.00    +0.000 F 
BRANCH  18  21
ATOM     21  P   UNL     1       3.962   2.628  19.207  0.00  0.00    +0.000 P 
ATOM     22  O   UNL     1       3.003   2.380  20.385  0.00  0.00    +0.000 OA
BRANCH  21  23
ATOM     23  O   UNL     1       3.882   1.223  18.342  0.00  0.00    +0.000 OA
ATOM     24  H   UNL     1       3.877   1.432  17.385  0.00  0.00    +0.000 HD
ENDBRANCH  21  23
BRANCH  21  25
ATOM     25  O   UNL     1       5.164   1.853  20.179  0.00  0.00    +0.000 OA
ATOM     26  H   UNL     1       5.931   1.754  19.578  0.00  0.00    +0.000 HD
ENDBRANCH  21  25
ENDBRANCH  18  21
ENDBRANCH   5  18
TORSDOF 7
ENDMDL
MODEL 7
REMARK VINA RESULT:      -8.1      2.721      3.677
REMARK  Name = 
REMARK  9 active torsions:
REMARK  status: ('A' for Active; 'I' for Inactive)
REMARK    1  A    between atoms: C_1  and  C_2
REMARK    2  A    between atoms: C_2  and  C_3
REMARK    3  A    between atoms: C_2  and  C_4
REMARK    4  A    between atoms: C_8  and  C_9
REMARK    5  A    between atoms: C_13  and  C_14
REMARK    6  A    between atoms: C_14  and  P_17
REMARK    7  A    between atoms: P_17  and  O_19
REMARK    8  A    between atoms: P_17  and  O_20
REMARK    9  A    between atoms: C_22  and  O_23
REMARK                            x       y       z     vdW  Elec       q    Type
REMARK                         _______ _______ _______ _____ _____    ______ ____
ROOT
ATOM      1  C   UNL     1       2.632   7.179  18.407  0.00  0.00    +0.000 A 
ATOM      2  C   UNL     1       3.764   7.476  17.625  0.00  0.00    +0.000 A 
ATOM      3  C   UNL     1       4.510   6.456  17.012  0.00  0.00    +0.000 A 
ATOM      4  C   UNL     1       4.120   5.125  17.141  0.00  0.00    +0.000 A 
ATOM      5  C   UNL     1       2.965   4.794  17.857  0.00  0.00    +0.000 A 
ATOM      6  C   UNL     1       2.239   5.828  18.477  0.00  0.00    +0.000 A 
ENDROOT
BRANCH   1  11
ATOM      7  C   UNL     1       0.850  10.471  19.430  0.00  0.00    +0.000 A 
ATOM      8  C   UNL     1       0.595  10.176  20.775  0.00  0.00    +0.000 A 
ATOM      9  C   UNL     1       0.962   8.949  21.322  0.00  0.00    +0.000 A 
ATOM     10  C   UNL     1       1.589   7.990  20.526  0.00  0.00    +0.000 A 
ATOM     11  C   UNL     1       1.886   8.224  19.166  0.00  0.00    +0.000 A 
ATOM     12  C   UNL     1       1.490   9.483  18.642  0.00  0.00    +0.000 A 
BRANCH   7  14
ATOM     13  C   UNL     1      -1.083  11.882  18.671  0.00  0.00    +0.000 C 
ATOM     14  C   UNL     1       0.437  11.815  18.835  0.00  0.00    +0.000 C 
ATOM     15  C   UNL     1       0.930  13.031  19.634  0.00  0.00    +0.000 C 
ENDBRANCH   7  14
BRANCH  12  16
ATOM     16  O   UNL     1       1.742   9.825  17.335  0.00  0.00    +0.000 OA
ATOM     17  H   UNL     1       1.198   9.269  16.757  0.00  0.00    +0.000 HD
ENDBRANCH  12  16
ENDBRANCH   1  11
BRANCH   5  18
ATOM     18  C   UNL     1       2.585   3.347  18.110  0.00  0.00    +0.000 C 
ATOM     19  F   UNL     1       1.462   3.206  18.864  0.00  0.00    +0.000 F 
ATOM     20  F   UNL     1       2.439   2.585  16.992  0.00  0.00    +0.000 F 
BRANCH  18  21
ATOM     21  P   UNL     1       3.860   2.482  19.097  0.00  0.00    +0.000 P 
ATOM     22  O   UNL     1       3.036   2.528  20.396  0.00  0.00    +0.000 OA
BRANCH  21  23
ATOM     23  O   UNL     1       3.485   1.008  18.453  0.00  0.00    +0.000 OA
ATOM     24  H   UNL     1       2.748   0.611  18.961  0.00  0.00    +0.000 HD
ENDBRANCH  21  23
BRANCH  21  25
ATOM     25  O   UNL     1       5.065   1.665  20.031  0.00  0.00    +0.000 OA
ATOM     26  H   UNL     1       4.569   1.295  20.790  0.00  0.00    +0.000 HD
ENDBRANCH  21  25
ENDBRANCH  18  21
ENDBRANCH   5  18
TORSDOF 7
ENDMDL
MODEL 8
REMARK VINA RESULT:      -8.1      1.372      1.768
REMARK  Name = 
REMARK  9 active torsions:
REMARK  status: ('A' for Active; 'I' for Inactive)
REMARK    1  A    between atoms: C_1  and  C_2
REMARK    2  A    between atoms: C_2  and  C_3
REMARK    3  A    between atoms: C_2  and  C_4
REMARK    4  A    between atoms: C_8  and  C_9
REMARK    5  A    between atoms: C_13  and  C_14
REMARK    6  A    between atoms: C_14  and  P_17
REMARK    7  A    between atoms: P_17  and  O_19
REMARK    8  A    between atoms: P_17  and  O_20
REMARK    9  A    between atoms: C_22  and  O_23
REMARK                            x       y       z     vdW  Elec       q    Type
REMARK                         _______ _______ _______ _____ _____    ______ ____
ROOT
ATOM      1  C   UNL     1       2.710   6.490  18.487  0.00  0.00    +0.000 A 
ATOM      2  C   UNL     1       2.004   5.342  18.079  0.00  0.00    +0.000 A 
ATOM      3  C   UNL     1       2.682   4.185  17.662  0.00  0.00    +0.000 A 
ATOM      4  C   UNL     1       4.074   4.142  17.677  0.00  0.00    +0.000 A 
ATOM      5  C   UNL     1       4.810   5.240  18.134  0.00  0.00    +0.000 A 
ATOM      6  C   UNL     1       4.114   6.396  18.533  0.00  0.00    +0.000 A 
ENDROOT
BRANCH   1  11
ATOM      7  C   UNL     1       0.902   9.353  20.383  0.00  0.00    +0.000 A 
ATOM      8  C   UNL     1       0.605  10.186  19.296  0.00  0.00    +0.000 A 
ATOM      9  C   UNL     1       0.998   9.846  18.005  0.00  0.00    +0.000 A 
ATOM     10  C   UNL     1       1.703   8.663  17.778  0.00  0.00    +0.000 A 
ATOM     11  C   UNL     1       2.027   7.773  18.825  0.00  0.00    +0.000 A 
ATOM     12  C   UNL     1       1.616   8.156  20.129  0.00  0.00    +0.000 A 
BRANCH   7  14
ATOM     13  C   UNL     1      -0.037  11.179  21.830  0.00  0.00    +0.000 C 
ATOM     14  C   UNL     1       0.474   9.736  21.798  0.00  0.00    +0.000 C 
ATOM     15  C   UNL     1      -0.576   8.797  22.411  0.00  0.00    +0.000 C 
ENDBRANCH   7  14
BRANCH  12  16
ATOM     16  O   UNL     1       1.863   7.359  21.221  0.00  0.00    +0.000 OA
ATOM     17  H   UNL     1       1.669   7.865  22.025  0.00  0.00    +0.000 HD
ENDBRANCH  12  16
ENDBRANCH   1  11
BRANCH   5  18
ATOM     18  C   UNL     1       6.325   5.261  18.049  0.00  0.00    +0.000 C 
ATOM     19  F   UNL     1       6.882   6.378  18.589  0.00  0.00    +0.000 F 
ATOM     20  F   UNL     1       6.948   4.177  18.588  0.00  0.00    +0.000 F 
BRANCH  18  21
ATOM     21  P   UNL     1       6.898   5.309  16.312  0.00  0.00    +0.000 P 
ATOM     22  O   UNL     1       7.618   6.659  16.476  0.00  0.00    +0.000 OA
BRANCH  21  23
ATOM     23  O   UNL     1       8.090   4.199  16.582  0.00  0.00    +0.000 OA
ATOM     24  H   UNL     1       7.751   3.303  16.380  0.00  0.00    +0.000 HD
ENDBRANCH  21  23
BRANCH  21  25
ATOM     25  O   UNL     1       7.439   5.356  14.670  0.00  0.00    +0.000 OA
ATOM     26  H   UNL     1       7.947   6.191  14.610  0.00  0.00    +0.000 HD
ENDBRANCH  21  25
ENDBRANCH  18  21
ENDBRANCH   5  18
TORSDOF 7
ENDMDL
MODEL 9
REMARK VINA RESULT:      -8.0      1.540      2.455
REMARK  Name = 
REMARK  9 active torsions:
REMARK  status: ('A' for Active; 'I' for Inactive)
REMARK    1  A    between atoms: C_1  and  C_2
REMARK    2  A    between atoms: C_2  and  C_3
REMARK    3  A    between atoms: C_2  and  C_4
REMARK    4  A    between atoms: C_8  and  C_9
REMARK    5  A    between atoms: C_13  and  C_14
REMARK    6  A    between atoms: C_14  and  P_17
REMARK    7  A    between atoms: P_17  and  O_19
REMARK    8  A    between atoms: P_17  and  O_20
REMARK    9  A    between atoms: C_22  and  O_23
REMARK                            x       y       z     vdW  Elec       q    Type
REMARK                         _______ _______ _______ _____ _____    ______ ____
ROOT
ATOM      1  C   UNL     1       2.513   6.405  18.742  0.00  0.00    +0.000 A 
ATOM      2  C   UNL     1       1.907   5.135  18.800  0.00  0.00    +0.000 A 
ATOM      3  C   UNL     1       2.437   4.046  18.089  0.00  0.00    +0.000 A 
ATOM      4  C   UNL     1       3.598   4.196  17.336  0.00  0.00    +0.000 A 
ATOM      5  C   UNL     1       4.265   5.425  17.302  0.00  0.00    +0.000 A 
ATOM      6  C   UNL     1       3.711   6.509  18.008  0.00  0.00    +0.000 A 
ENDROOT
BRANCH   1  11
ATOM      7  C   UNL     1       1.177   9.985  19.415  0.00  0.00    +0.000 A 
ATOM      8  C   UNL     1       0.901   9.865  20.783  0.00  0.00    +0.000 A 
ATOM      9  C   UNL     1       1.114   8.665  21.454  0.00  0.00    +0.000 A 
ATOM     10  C   UNL     1       1.605   7.556  20.764  0.00  0.00    +0.000 A 
ATOM     11  C   UNL     1       1.915   7.609  19.388  0.00  0.00    +0.000 A 
ATOM     12  C   UNL     1       1.678   8.847  18.734  0.00  0.00    +0.000 A 
BRANCH   7  14
ATOM     13  C   UNL     1      -0.556  11.656  18.700  0.00  0.00    +0.000 C 
ATOM     14  C   UNL     1       0.933  11.303  18.683  0.00  0.00    +0.000 C 
ATOM     15  C   UNL     1       1.755  12.482  19.226  0.00  0.00    +0.000 C 
ENDBRANCH   7  14
BRANCH  12  16
ATOM     16  O   UNL     1       1.957   9.019  17.400  0.00  0.00    +0.000 OA
ATOM     17  H   UNL     1       2.839   8.661  17.218  0.00  0.00    +0.000 HD
ENDBRANCH  12  16
ENDBRANCH   1  11
BRANCH   5  18
ATOM     18  C   UNL     1       5.463   5.645  16.397  0.00  0.00    +0.000 C 
ATOM     19  F   UNL     1       5.318   5.091  15.164  0.00  0.00    +0.000 F 
ATOM     20  F   UNL     1       5.830   6.946  16.234  0.00  0.00    +0.000 F 
BRANCH  18  21
ATOM     21  P   UNL     1       6.958   4.819  17.052  0.00  0.00    +0.000 P 
ATOM     22  O   UNL     1       7.665   4.783  15.686  0.00  0.00    +0.000 OA
BRANCH  21  23
ATOM     23  O   UNL     1       7.528   6.206  17.745  0.00  0.00    +0.000 OA
ATOM     24  H   UNL     1       8.235   6.582  17.182  0.00  0.00    +0.000 HD
ENDBRANCH  21  23
BRANCH  21  25
ATOM     25  O   UNL     1       8.372   4.038  17.670  0.00  0.00    +0.000 OA
ATOM     26  H   UNL     1       8.823   3.693  16.872  0.00  0.00    +0.000 HD
ENDBRANCH  21  25
ENDBRANCH  18  21
ENDBRANCH   5  18
TORSDOF 7
ENDMDL
