MODEL 1
REMARK VINA RESULT:      -7.3      0.000      0.000
REMARK  Name = 
REMARK  8 active torsions:
REMARK  status: ('A' for Active; 'I' for Inactive)
REMARK    1  A    between atoms: C_1  and  O_2
REMARK    2  A    between atoms: O_2  and  C_3
REMARK    3  A    between atoms: C_6  and  O_7
REMARK    4  A    between atoms: O_7  and  C_8
REMARK    5  A    between atoms: C_9  and  C_10
REMARK    6  A    between atoms: C_10  and  C_12
REMARK    7  A    between atoms: C_13  and  C_14
REMARK    8  A    between atoms: C_19  and  O_20
REMARK                            x       y       z     vdW  Elec       q    Type
REMARK                         _______ _______ _______ _____ _____    ______ ____
ROOT
ATOM      1  C   UNL     1       3.728   4.359  18.065  0.00  0.00    +0.000 C 
ATOM      2  O   UNL     1       3.530   3.313  18.684  0.00  0.00    +0.000 OA
ENDROOT
BRANCH   1   7
ATOM      3  C   UNL     1       5.601   4.354  14.795  0.00  0.00    +0.000 A 
ATOM      4  C   UNL     1       6.927   4.477  15.186  0.00  0.00    +0.000 A 
ATOM      5  C   UNL     1       7.260   4.584  16.538  0.00  0.00    +0.000 A 
ATOM      6  C   UNL     1       6.271   4.543  17.536  0.00  0.00    +0.000 A 
ATOM      7  C   UNL     1       4.920   4.444  17.152  0.00  0.00    +0.000 A 
ATOM      8  C   UNL     1       4.610   4.350  15.774  0.00  0.00    +0.000 A 
BRANCH   3  10
ATOM      9  C   UNL     1       6.407   3.536  12.712  0.00  0.00    +0.000 C 
ATOM     10  O   UNL     1       5.410   4.236  13.448  0.00  0.00    +0.000 OA
ENDBRANCH   3  10
BRANCH   6  11
ATOM     11  O   UNL     1       6.589   4.617  18.865  0.00  0.00    +0.000 OA
ATOM     12  C   UNL     1       7.348   5.746  19.290  0.00  0.00    +0.000 C 
ENDBRANCH   6  11
ENDBRANCH   1   7
BRANCH   1  13
ATOM     13  C   UNL     1       2.756   5.475  18.202  0.00  0.00    +0.000 C 
ATOM     14  C   UNL     1       3.221   6.694  18.519  0.00  0.00    +0.000 C 
BRANCH  14  15
ATOM     15  C   UNL     1       2.319   7.809  18.813  0.00  0.00    +0.000 A 
ATOM     16  C   UNL     1       2.044   8.712  17.778  0.00  0.00    +0.000 A 
ATOM     17  C   UNL     1       1.219   9.815  18.002  0.00  0.00    +0.000 A 
ATOM     18  C   UNL     1       0.659  10.022  19.261  0.00  0.00    +0.000 A 
ATOM     19  C   UNL     1       0.915   9.122  20.297  0.00  0.00    +0.000 A 
ATOM     20  C   UNL     1       1.744   8.020  20.072  0.00  0.00    +0.000 A 
BRANCH  20  21
ATOM     21  O   UNL     1       1.996   7.139  21.087  0.00  0.00    +0.000 OA
ATOM     22  H   UNL     1       2.594   7.560  21.725  0.00  0.00    +0.000 HD
ENDBRANCH  20  21
ENDBRANCH  14  15
ENDBRANCH   1  13
TORSDOF 6
ENDMDL
MODEL 2
REMARK VINA RESULT:      -7.0      1.171      1.596
REMARK  Name = 
REMARK  8 active torsions:
REMARK  status: ('A' for Active; 'I' for Inactive)
REMARK    1  A    between atoms: C_1  and  O_2
REMARK    2  A    between atoms: O_2  and  C_3
REMARK    3  A    between atoms: C_6  and  O_7
REMARK    4  A    between atoms: O_7  and  C_8
REMARK    5  A    between atoms: C_9  and  C_10
REMARK    6  A    between atoms: C_10  and  C_12
REMARK    7  A    between atoms: C_13  and  C_14
REMARK    8  A    between atoms: C_19  and  O_20
REMARK                            x       y       z     vdW  Elec       q    Type
REMARK                         _______ _______ _______ _____ _____    ______ ____
ROOT
ATOM      1  C   UNL     1       3.932   4.102  18.902  0.00  0.00    +0.000 C 
ATOM      2  O   UNL     1       3.804   2.948  19.315  0.00  0.00    +0.000 OA
ENDROOT
BRANCH   1   7
ATOM      3  C   UNL     1       5.483   4.352  15.478  0.00  0.00    +0.000 A 
ATOM      4  C   UNL     1       6.784   4.754  15.745  0.00  0.00    +0.000 A 
ATOM      5  C   UNL     1       7.202   4.975  17.058  0.00  0.00    +0.000 A 
ATOM      6  C   UNL     1       6.330   4.773  18.142  0.00  0.00    +0.000 A 
ATOM      7  C   UNL     1       5.000   4.391  17.884  0.00  0.00    +0.000 A 
ATOM      8  C   UNL     1       4.600   4.185  16.542  0.00  0.00    +0.000 A 
BRANCH   3  10
ATOM      9  C   UNL     1       6.299   3.800  13.313  0.00  0.00    +0.000 C 
ATOM     10  O   UNL     1       5.207   4.148  14.156  0.00  0.00    +0.000 OA
ENDBRANCH   3  10
BRANCH   6  11
ATOM     11  O   UNL     1       6.738   4.958  19.436  0.00  0.00    +0.000 OA
ATOM     12  C   UNL     1       7.918   5.730  19.641  0.00  0.00    +0.000 C 
ENDBRANCH   6  11
ENDBRANCH   1   7
BRANCH   1  13
ATOM     13  C   UNL     1       2.995   5.149  19.385  0.00  0.00    +0.000 C 
ATOM     14  C   UNL     1       3.018   6.352  18.789  0.00  0.00    +0.000 C 
BRANCH  14  15
ATOM     15  C   UNL     1       2.233   7.478  19.298  0.00  0.00    +0.000 A 
ATOM     16  C   UNL     1       1.738   7.387  20.606  0.00  0.00    +0.000 A 
ATOM     17  C   UNL     1       0.955   8.409  21.140  0.00  0.00    +0.000 A 
ATOM     18  C   UNL     1       0.662   9.535  20.372  0.00  0.00    +0.000 A 
ATOM     19  C   UNL     1       1.159   9.645  19.073  0.00  0.00    +0.000 A 
ATOM     20  C   UNL     1       1.940   8.618  18.538  0.00  0.00    +0.000 A 
BRANCH  20  21
ATOM     21  O   UNL     1       2.426   8.724  17.265  0.00  0.00    +0.000 OA
ATOM     22  H   UNL     1       2.065   9.528  16.858  0.00  0.00    +0.000 HD
ENDBRANCH  20  21
ENDBRANCH  14  15
ENDBRANCH   1  13
TORSDOF 6
ENDMDL
MODEL 3
REMARK VINA RESULT:      -6.9      1.108      1.430
REMARK  Name = 
REMARK  8 active torsions:
REMARK  status: ('A' for Active; 'I' for Inactive)
REMARK    1  A    between atoms: C_1  and  O_2
REMARK    2  A    between atoms: O_2  and  C_3
REMARK    3  A    between atoms: C_6  and  O_7
REMARK    4  A    between atoms: O_7  and  C_8
REMARK    5  A    between atoms: C_9  and  C_10
REMARK    6  A    between atoms: C_10  and  C_12
REMARK    7  A    between atoms: C_13  and  C_14
REMARK    8  A    between atoms: C_19  and  O_20
REMARK                            x       y       z     vdW  Elec       q    Type
REMARK                         _______ _______ _______ _____ _____    ______ ____
ROOT
ATOM      1  C   UNL     1       2.884   4.557  17.432  0.00  0.00    +0.000 C 
ATOM      2  O   UNL     1       2.299   3.515  17.129  0.00  0.00    +0.000 OA
ENDROOT
BRANCH   1   7
ATOM      3  C   UNL     1       6.203   4.972  15.698  0.00  0.00    +0.000 A 
ATOM      4  C   UNL     1       7.123   4.702  16.700  0.00  0.00    +0.000 A 
ATOM      5  C   UNL     1       6.693   4.389  17.991  0.00  0.00    +0.000 A 
ATOM      6  C   UNL     1       5.325   4.314  18.303  0.00  0.00    +0.000 A 
ATOM      7  C   UNL     1       4.381   4.609  17.302  0.00  0.00    +0.000 A 
ATOM      8  C   UNL     1       4.844   4.936  16.005  0.00  0.00    +0.000 A 
BRANCH   3  10
ATOM      9  C   UNL     1       6.671   4.217  13.491  0.00  0.00    +0.000 C 
ATOM     10  O   UNL     1       6.750   5.242  14.476  0.00  0.00    +0.000 OA
ENDBRANCH   3  10
BRANCH   6  11
ATOM     11  O   UNL     1       4.892   3.978  19.558  0.00  0.00    +0.000 OA
ATOM     12  C   UNL     1       4.508   2.622  19.771  0.00  0.00    +0.000 C 
ENDBRANCH   6  11
ENDBRANCH   1   7
BRANCH   1  13
ATOM     13  C   UNL     1       2.085   5.735  17.860  0.00  0.00    +0.000 C 
ATOM     14  C   UNL     1       2.736   6.845  18.243  0.00  0.00    +0.000 C 
BRANCH  14  15
ATOM     15  C   UNL     1       2.030   7.992  18.815  0.00  0.00    +0.000 A 
ATOM     16  C   UNL     1       1.753   9.073  17.966  0.00  0.00    +0.000 A 
ATOM     17  C   UNL     1       1.113  10.211  18.456  0.00  0.00    +0.000 A 
ATOM     18  C   UNL     1       0.740  10.279  19.797  0.00  0.00    +0.000 A 
ATOM     19  C   UNL     1       0.998   9.204  20.649  0.00  0.00    +0.000 A 
ATOM     20  C   UNL     1       1.642   8.066  20.158  0.00  0.00    +0.000 A 
BRANCH  20  21
ATOM     21  O   UNL     1       1.896   7.013  20.994  0.00  0.00    +0.000 OA
ATOM     22  H   UNL     1       1.648   6.190  20.543  0.00  0.00    +0.000 HD
ENDBRANCH  20  21
ENDBRANCH  14  15
ENDBRANCH   1  13
TORSDOF 6
ENDMDL
MODEL 4
REMARK VINA RESULT:      -6.9      2.213      3.243
REMARK  Name = 
REMARK  8 active torsions:
REMARK  status: ('A' for Active; 'I' for Inactive)
REMARK    1  A    between atoms: C_1  and  O_2
REMARK    2  A    between atoms: O_2  and  C_3
REMARK    3  A    between atoms: C_6  and  O_7
REMARK    4  A    between atoms: O_7  and  C_8
REMARK    5  A    between atoms: C_9  and  C_10
REMARK    6  A    between atoms: C_10  and  C_12
REMARK    7  A    between atoms: C_13  and  C_14
REMARK    8  A    between atoms: C_19  and  O_20
REMARK                            x       y       z     vdW  Elec       q    Type
REMARK                         _______ _______ _______ _____ _____    ______ ____
ROOT
ATOM      1  C   UNL     1       4.210   6.604  17.186  0.00  0.00    +0.000 C 
ATOM      2  O   UNL     1       5.005   6.786  16.263  0.00  0.00    +0.000 OA
ENDROOT
BRANCH   1   7
ATOM      3  C   UNL     1       2.855   3.196  18.046  0.00  0.00    +0.000 A 
ATOM      4  C   UNL     1       3.760   2.720  18.984  0.00  0.00    +0.000 A 
ATOM      5  C   UNL     1       4.861   3.490  19.362  0.00  0.00    +0.000 A 
ATOM      6  C   UNL     1       5.069   4.772  18.825  0.00  0.00    +0.000 A 
ATOM      7  C   UNL     1       4.173   5.257  17.853  0.00  0.00    +0.000 A 
ATOM      8  C   UNL     1       3.072   4.450  17.480  0.00  0.00    +0.000 A 
BRANCH   3  10
ATOM      9  C   UNL     1       0.779   2.279  18.758  0.00  0.00    +0.000 C 
ATOM     10  O   UNL     1       1.811   2.356  17.781  0.00  0.00    +0.000 OA
ENDBRANCH   3  10
BRANCH   6  11
ATOM     11  O   UNL     1       6.128   5.549  19.210  0.00  0.00    +0.000 OA
ATOM     12  C   UNL     1       7.364   5.345  18.530  0.00  0.00    +0.000 C 
ENDBRANCH   6  11
ENDBRANCH   1   7
BRANCH   1  13
ATOM     13  C   UNL     1       3.358   7.735  17.639  0.00  0.00    +0.000 C 
ATOM     14  C   UNL     1       2.580   7.557  18.719  0.00  0.00    +0.000 C 
BRANCH  14  15
ATOM     15  C   UNL     1       1.609   8.567  19.142  0.00  0.00    +0.000 A 
ATOM     16  C   UNL     1       1.063   9.397  18.153  0.00  0.00    +0.000 A 
ATOM     17  C   UNL     1       0.158  10.402  18.493  0.00  0.00    +0.000 A 
ATOM     18  C   UNL     1      -0.215  10.584  19.824  0.00  0.00    +0.000 A 
ATOM     19  C   UNL     1       0.311   9.755  20.816  0.00  0.00    +0.000 A 
ATOM     20  C   UNL     1       1.221   8.752  20.474  0.00  0.00    +0.000 A 
BRANCH  20  21
ATOM     21  O   UNL     1       1.737   7.941  21.447  0.00  0.00    +0.000 OA
ATOM     22  H   UNL     1       2.679   7.793  21.264  0.00  0.00    +0.000 HD
ENDBRANCH  20  21
ENDBRANCH  14  15
ENDBRANCH   1  13
TORSDOF 6
ENDMDL
MODEL 5
REMARK VINA RESULT:      -6.9      1.743      6.950
REMARK  Name = 
REMARK  8 active torsions:
REMARK  status: ('A' for Active; 'I' for Inactive)
REMARK    1  A    between atoms: C_1  and  O_2
REMARK    2  A    between atoms: O_2  and  C_3
REMARK    3  A    between atoms: C_6  and  O_7
REMARK    4  A    between atoms: O_7  and  C_8
REMARK    5  A    between atoms: C_9  and  C_10
REMARK    6  A    between atoms: C_10  and  C_12
REMARK    7  A    between atoms: C_13  and  C_14
REMARK    8  A    between atoms: C_19  and  O_20
REMARK                            x       y       z     vdW  Elec       q    Type
REMARK                         _______ _______ _______ _____ _____    ______ ____
ROOT
ATOM      1  C   UNL     1       6.001   4.591  18.122  0.00  0.00    +0.000 C 
ATOM      2  O   UNL     1       6.963   4.926  18.815  0.00  0.00    +0.000 OA
ENDROOT
BRANCH   1   7
ATOM      3  C   UNL     1       2.881   6.395  19.219  0.00  0.00    +0.000 A 
ATOM      4  C   UNL     1       2.097   5.383  19.752  0.00  0.00    +0.000 A 
ATOM      5  C   UNL     1       2.552   4.063  19.758  0.00  0.00    +0.000 A 
ATOM      6  C   UNL     1       3.820   3.729  19.252  0.00  0.00    +0.000 A 
ATOM      7  C   UNL     1       4.616   4.742  18.686  0.00  0.00    +0.000 A 
ATOM      8  C   UNL     1       4.125   6.070  18.681  0.00  0.00    +0.000 A 
BRANCH   3  10
ATOM      9  C   UNL     1       1.630   7.971  20.488  0.00  0.00    +0.000 C 
ATOM     10  O   UNL     1       2.333   7.644  19.294  0.00  0.00    +0.000 OA
ENDBRANCH   3  10
BRANCH   6  11
ATOM     11  O   UNL     1       4.288   2.443  19.281  0.00  0.00    +0.000 OA
ATOM     12  C   UNL     1       3.644   1.498  18.431  0.00  0.00    +0.000 C 
ENDBRANCH   6  11
ENDBRANCH   1   7
BRANCH   1  13
ATOM     13  C   UNL     1       6.243   4.101  16.740  0.00  0.00    +0.000 C 
ATOM     14  C   UNL     1       6.222   4.989  15.733  0.00  0.00    +0.000 C 
BRANCH  14  15
ATOM     15  C   UNL     1       6.307   4.567  14.334  0.00  0.00    +0.000 A 
ATOM     16  C   UNL     1       5.285   3.744  13.840  0.00  0.00    +0.000 A 
ATOM     17  C   UNL     1       5.324   3.280  12.526  0.00  0.00    +0.000 A 
ATOM     18  C   UNL     1       6.381   3.637  11.691  0.00  0.00    +0.000 A 
ATOM     19  C   UNL     1       7.398   4.467  12.166  0.00  0.00    +0.000 A 
ATOM     20  C   UNL     1       7.360   4.928  13.484  0.00  0.00    +0.000 A 
BRANCH  20  21
ATOM     21  O   UNL     1       8.356   5.741  13.950  0.00  0.00    +0.000 OA
ATOM     22  H   UNL     1       8.647   5.413  14.816  0.00  0.00    +0.000 HD
ENDBRANCH  20  21
ENDBRANCH  14  15
ENDBRANCH   1  13
TORSDOF 6
ENDMDL
MODEL 6
REMARK VINA RESULT:      -6.8      2.878      6.523
REMARK  Name = 
REMARK  8 active torsions:
REMARK  status: ('A' for Active; 'I' for Inactive)
REMARK    1  A    between atoms: C_1  and  O_2
REMARK    2  A    between atoms: O_2  and  C_3
REMARK    3  A    between atoms: C_6  and  O_7
REMARK    4  A    between atoms: O_7  and  C_8
REMARK    5  A    between atoms: C_9  and  C_10
REMARK    6  A    between atoms: C_10  and  C_12
REMARK    7  A    between atoms: C_13  and  C_14
REMARK    8  A    between atoms: C_19  and  O_20
REMARK                            x       y       z     vdW  Elec       q    Type
REMARK                         _______ _______ _______ _____ _____    ______ ____
ROOT
ATOM      1  C   UNL     1       4.449   6.087  17.365  0.00  0.00    +0.000 C 
ATOM      2  O   UNL     1       4.172   7.222  17.757  0.00  0.00    +0.000 OA
ENDROOT
BRANCH   1   7
ATOM      3  C   UNL     1       2.475   3.618  19.415  0.00  0.00    +0.000 A 
ATOM      4  C   UNL     1       3.458   2.875  20.053  0.00  0.00    +0.000 A 
ATOM      5  C   UNL     1       4.809   3.142  19.825  0.00  0.00    +0.000 A 
ATOM      6  C   UNL     1       5.210   4.181  18.967  0.00  0.00    +0.000 A 
ATOM      7  C   UNL     1       4.224   4.927  18.294  0.00  0.00    +0.000 A 
ATOM      8  C   UNL     1       2.861   4.627  18.534  0.00  0.00    +0.000 A 
BRANCH   3  10
ATOM      9  C   UNL     1       0.479   2.480  18.800  0.00  0.00    +0.000 C 
ATOM     10  O   UNL     1       1.195   3.273  19.740  0.00  0.00    +0.000 OA
ENDBRANCH   3  10
BRANCH   6  11
ATOM     11  O   UNL     1       6.531   4.472  18.759  0.00  0.00    +0.000 OA
ATOM     12  C   UNL     1       7.093   5.529  19.533  0.00  0.00    +0.000 C 
ENDBRANCH   6  11
ENDBRANCH   1   7
BRANCH   1  13
ATOM     13  C   UNL     1       4.944   5.904  15.976  0.00  0.00    +0.000 C 
ATOM     14  C   UNL     1       5.257   4.664  15.566  0.00  0.00    +0.000 C 
BRANCH  14  15
ATOM     15  C   UNL     1       5.885   4.418  14.267  0.00  0.00    +0.000 A 
ATOM     16  C   UNL     1       5.183   3.631  13.344  0.00  0.00    +0.000 A 
ATOM     17  C   UNL     1       5.740   3.331  12.102  0.00  0.00    +0.000 A 
ATOM     18  C   UNL     1       7.002   3.819  11.767  0.00  0.00    +0.000 A 
ATOM     19  C   UNL     1       7.706   4.616  12.672  0.00  0.00    +0.000 A 
ATOM     20  C   UNL     1       7.148   4.912  13.918  0.00  0.00    +0.000 A 
BRANCH  20  21
ATOM     21  O   UNL     1       7.838   5.691  14.805  0.00  0.00    +0.000 OA
ATOM     22  H   UNL     1       8.501   6.206  14.319  0.00  0.00    +0.000 HD
ENDBRANCH  20  21
ENDBRANCH  14  15
ENDBRANCH   1  13
TORSDOF 6
ENDMDL
MODEL 7
REMARK VINA RESULT:      -6.8      2.601      3.888
REMARK  Name = 
REMARK  8 active torsions:
REMARK  status: ('A' for Active; 'I' for Inactive)
REMARK    1  A    between atoms: C_1  and  O_2
REMARK    2  A    between atoms: O_2  and  C_3
REMARK    3  A    between atoms: C_6  and  O_7
REMARK    4  A    between atoms: O_7  and  C_8
REMARK    5  A    between atoms: C_9  and  C_10
REMARK    6  A    between atoms: C_10  and  C_12
REMARK    7  A    between atoms: C_13  and  C_14
REMARK    8  A    between atoms: C_19  and  O_20
REMARK                            x       y       z     vdW  Elec       q    Type
REMARK                         _______ _______ _______ _____ _____    ______ ____
ROOT
ATOM      1  C   UNL     1       4.278   6.614  17.153  0.00  0.00    +0.000 C 
ATOM      2  O   UNL     1       3.996   7.777  16.862  0.00  0.00    +0.000 OA
ENDROOT
BRANCH   1   7
ATOM      3  C   UNL     1       5.739   4.483  14.411  0.00  0.00    +0.000 A 
ATOM      4  C   UNL     1       7.087   4.427  14.734  0.00  0.00    +0.000 A 
ATOM      5  C   UNL     1       7.576   5.100  15.855  0.00  0.00    +0.000 A 
ATOM      6  C   UNL     1       6.718   5.826  16.698  0.00  0.00    +0.000 A 
ATOM      7  C   UNL     1       5.352   5.912  16.368  0.00  0.00    +0.000 A 
ATOM      8  C   UNL     1       4.885   5.231  15.219  0.00  0.00    +0.000 A 
BRANCH   3  10
ATOM      9  C   UNL     1       6.391   3.554  12.320  0.00  0.00    +0.000 C 
ATOM     10  O   UNL     1       5.385   3.764  13.305  0.00  0.00    +0.000 OA
ENDBRANCH   3  10
BRANCH   6  11
ATOM     11  O   UNL     1       7.181   6.465  17.816  0.00  0.00    +0.000 OA
ATOM     12  C   UNL     1       7.731   7.768  17.640  0.00  0.00    +0.000 C 
ENDBRANCH   6  11
ENDBRANCH   1   7
BRANCH   1  13
ATOM     13  C   UNL     1       3.586   5.968  18.298  0.00  0.00    +0.000 C 
ATOM     14  C   UNL     1       3.885   4.692  18.591  0.00  0.00    +0.000 C 
BRANCH  14  15
ATOM     15  C   UNL     1       3.147   3.942  19.607  0.00  0.00    +0.000 A 
ATOM     16  C   UNL     1       1.848   4.370  19.915  0.00  0.00    +0.000 A 
ATOM     17  C   UNL     1       1.102   3.720  20.898  0.00  0.00    +0.000 A 
ATOM     18  C   UNL     1       1.646   2.633  21.580  0.00  0.00    +0.000 A 
ATOM     19  C   UNL     1       2.933   2.188  21.274  0.00  0.00    +0.000 A 
ATOM     20  C   UNL     1       3.680   2.843  20.292  0.00  0.00    +0.000 A 
BRANCH  20  21
ATOM     21  O   UNL     1       4.942   2.408  19.993  0.00  0.00    +0.000 OA
ATOM     22  H   UNL     1       5.334   2.017  20.789  0.00  0.00    +0.000 HD
ENDBRANCH  20  21
ENDBRANCH  14  15
ENDBRANCH   1  13
TORSDOF 6
ENDMDL
MODEL 8
REMARK VINA RESULT:      -6.8      2.149      3.683
REMARK  Name = 
REMARK  8 active torsions:
REMARK  status: ('A' for Active; 'I' for Inactive)
REMARK    1  A    between atoms: C_1  and  O_2
REMARK    2  A    between atoms: O_2  and  C_3
REMARK    3  A    between atoms: C_6  and  O_7
REMARK    4  A    between atoms: O_7  and  C_8
REMARK    5  A    between atoms: C_9  and  C_10
REMARK    6  A    between atoms: C_10  and  C_12
REMARK    7  A    between atoms: C_13  and  C_14
REMARK    8  A    between atoms: C_19  and  O_20
REMARK                            x       y       z     vdW  Elec       q    Type
REMARK                         _______ _______ _______ _____ _____    ______ ____
ROOT
ATOM      1  C   UNL     1       2.365   4.851  20.567  0.00  0.00    +0.000 C 
ATOM      2  O   UNL     1       2.220   4.084  21.520  0.00  0.00    +0.000 OA
ENDROOT
BRANCH   1   7
ATOM      3  C   UNL     1       5.398   4.278  18.407  0.00  0.00    +0.000 A 
ATOM      4  C   UNL     1       4.870   3.695  17.264  0.00  0.00    +0.000 A 
ATOM      5  C   UNL     1       3.500   3.450  17.161  0.00  0.00    +0.000 A 
ATOM      6  C   UNL     1       2.618   3.809  18.195  0.00  0.00    +0.000 A 
ATOM      7  C   UNL     1       3.142   4.378  19.371  0.00  0.00    +0.000 A 
ATOM      8  C   UNL     1       4.538   4.604  19.453  0.00  0.00    +0.000 A 
BRANCH   3  10
ATOM      9  C   UNL     1       7.354   4.591  17.090  0.00  0.00    +0.000 C 
ATOM     10  O   UNL     1       6.747   4.485  18.373  0.00  0.00    +0.000 OA
ENDBRANCH   3  10
BRANCH   6  11
ATOM     11  O   UNL     1       1.269   3.601  18.092  0.00  0.00    +0.000 OA
ATOM     12  C   UNL     1       0.750   2.407  18.671  0.00  0.00    +0.000 C 
ENDBRANCH   6  11
ENDBRANCH   1   7
BRANCH   1  13
ATOM     13  C   UNL     1       1.724   6.191  20.615  0.00  0.00    +0.000 C 
ATOM     14  C   UNL     1       2.046   7.089  19.670  0.00  0.00    +0.000 C 
BRANCH  14  15
ATOM     15  C   UNL     1       1.571   8.472  19.729  0.00  0.00    +0.000 A 
ATOM     16  C   UNL     1       1.048   8.928  20.947  0.00  0.00    +0.000 A 
ATOM     17  C   UNL     1       0.547  10.224  21.062  0.00  0.00    +0.000 A 
ATOM     18  C   UNL     1       0.569  11.079  19.961  0.00  0.00    +0.000 A 
ATOM     19  C   UNL     1       1.099  10.642  18.747  0.00  0.00    +0.000 A 
ATOM     20  C   UNL     1       1.597   9.342  18.633  0.00  0.00    +0.000 A 
BRANCH  20  21
ATOM     21  O   UNL     1       2.115   8.913  17.442  0.00  0.00    +0.000 OA
ATOM     22  H   UNL     1       2.235   9.680  16.859  0.00  0.00    +0.000 HD
ENDBRANCH  20  21
ENDBRANCH  14  15
ENDBRANCH   1  13
TORSDOF 6
ENDMDL
MODEL 9
REMARK VINA RESULT:      -6.8      1.705      6.861
REMARK  Name = 
REMARK  8 active torsions:
REMARK  status: ('A' for Active; 'I' for Inactive)
REMARK    1  A    between atoms: C_1  and  O_2
REMARK    2  A    between atoms: O_2  and  C_3
REMARK    3  A    between atoms: C_6  and  O_7
REMARK    4  A    between atoms: O_7  and  C_8
REMARK    5  A    between atoms: C_9  and  C_10
REMARK    6  A    between atoms: C_10  and  C_12
REMARK    7  A    between atoms: C_13  and  C_14
REMARK    8  A    between atoms: C_19  and  O_20
REMARK                            x       y       z     vdW  Elec       q    Type
REMARK                         _______ _______ _______ _____ _____    ______ ____
ROOT
ATOM      1  C   UNL     1       4.156   4.543  17.838  0.00  0.00    +0.000 C 
ATOM      2  O   UNL     1       4.546   3.561  18.472  0.00  0.00    +0.000 OA
ENDROOT
BRANCH   1   7
ATOM      3  C   UNL     1       2.503   7.884  18.380  0.00  0.00    +0.000 A 
ATOM      4  C   UNL     1       1.920   7.753  19.633  0.00  0.00    +0.000 A 
ATOM      5  C   UNL     1       2.032   6.558  20.345  0.00  0.00    +0.000 A 
ATOM      6  C   UNL     1       2.754   5.469  19.827  0.00  0.00    +0.000 A 
ATOM      7  C   UNL     1       3.329   5.579  18.547  0.00  0.00    +0.000 A 
ATOM      8  C   UNL     1       3.190   6.798  17.842  0.00  0.00    +0.000 A 
BRANCH   3  10
ATOM      9  C   UNL     1       1.275   9.920  18.282  0.00  0.00    +0.000 C 
ATOM     10  O   UNL     1       2.341   9.110  17.799  0.00  0.00    +0.000 OA
ENDBRANCH   3  10
BRANCH   6  11
ATOM     11  O   UNL     1       2.895   4.302  20.529  0.00  0.00    +0.000 OA
ATOM     12  C   UNL     1       1.703   3.595  20.860  0.00  0.00    +0.000 C 
ENDBRANCH   6  11
ENDBRANCH   1   7
BRANCH   1  13
ATOM     13  C   UNL     1       4.561   4.691  16.416  0.00  0.00    +0.000 C 
ATOM     14  C   UNL     1       5.566   3.929  15.954  0.00  0.00    +0.000 C 
BRANCH  14  15
ATOM     15  C   UNL     1       6.118   4.117  14.611  0.00  0.00    +0.000 A 
ATOM     16  C   UNL     1       5.567   3.358  13.570  0.00  0.00    +0.000 A 
ATOM     17  C   UNL     1       6.070   3.464  12.274  0.00  0.00    +0.000 A 
ATOM     18  C   UNL     1       7.126   4.333  12.005  0.00  0.00    +0.000 A 
ATOM     19  C   UNL     1       7.674   5.105  13.030  0.00  0.00    +0.000 A 
ATOM     20  C   UNL     1       7.171   4.995  14.329  0.00  0.00    +0.000 A 
BRANCH  20  21
ATOM     21  O   UNL     1       7.710   5.750  15.334  0.00  0.00    +0.000 OA
ATOM     22  H   UNL     1       7.679   5.240  16.159  0.00  0.00    +0.000 HD
ENDBRANCH  20  21
ENDBRANCH  14  15
ENDBRANCH   1  13
TORSDOF 6
ENDMDL
