MODEL 1
REMARK VINA RESULT:      -8.6      0.000      0.000
REMARK  Name = 
REMARK  10 active torsions:
REMARK  status: ('A' for Active; 'I' for Inactive)
REMARK    1  A    between atoms: C_1  and  C_2
REMARK    2  A    between atoms: C_2  and  C_3
REMARK    3  A    between atoms: C_2  and  C_4
REMARK    4  A    between atoms: C_4  and  N_5
REMARK    5  A    between atoms: C_4  and  C_16
REMARK    6  A    between atoms: C_6  and  C_8
REMARK    7  A    between atoms: N_18  and  C_19
REMARK    8  A    between atoms: C_19  and  C_20
REMARK    9  A    between atoms: C_23  and  S_24
REMARK   10  A    between atoms: S_24  and  N_27
REMARK                            x       y       z     vdW  Elec       q    Type
REMARK                         _______ _______ _______ _____ _____    ______ ____
ROOT
ATOM      1  C   UNL     1      -1.335  11.720  18.324  0.00  0.00    +0.000 C 
ATOM      2  O   UNL     1      -0.614  12.710  18.223  0.00  0.00    +0.000 OA
ATOM      3  N   UNL     1      -0.945  10.585  19.007  0.00  0.00    +0.000 N 
ATOM      4  H   UNL     1      -1.647   9.889  19.246  0.00  0.00    +0.000 HD
ENDROOT
BRANCH   1   5
ATOM      5  C   UNL     1      -2.680  11.597  17.571  0.00  0.00    +0.000 C 
BRANCH   5   6
ATOM      6  N   UNL     1      -3.748  11.478  18.566  0.00  0.00    +0.000 N 
ATOM      7  C   UNL     1      -5.004  12.010  18.330  0.00  0.00    +0.000 C 
ATOM      8  O   UNL     1      -5.330  12.501  17.257  0.00  0.00    +0.000 OA
ATOM      9  H   UNL     1      -3.506  11.195  19.507  0.00  0.00    +0.000 HD
BRANCH   7  10
ATOM     10  C   UNL     1      -5.961  11.969  19.458  0.00  0.00    +0.000 A 
ATOM     11  C   UNL     1      -6.085  13.038  20.346  0.00  0.00    +0.000 A 
ATOM     12  F   UNL     1      -5.329  14.140  20.204  0.00  0.00    +0.000 F 
ATOM     13  C   UNL     1      -6.991  12.998  21.405  0.00  0.00    +0.000 A 
ATOM     14  C   UNL     1      -7.795  11.874  21.587  0.00  0.00    +0.000 A 
ATOM     15  C   UNL     1      -7.687  10.801  20.704  0.00  0.00    +0.000 A 
ATOM     16  C   UNL     1      -6.778  10.853  19.645  0.00  0.00    +0.000 A 
ATOM     17  F   UNL     1      -6.694   9.781  18.843  0.00  0.00    +0.000 F 
ENDBRANCH   7  10
ENDBRANCH   5   6
BRANCH   5  19
ATOM     18  C   UNL     1      -3.510   9.219  17.129  0.00  0.00    +0.000 C 
ATOM     19  C   UNL     1      -2.642  10.373  16.622  0.00  0.00    +0.000 C 
ATOM     20  C   UNL     1      -3.093  10.762  15.208  0.00  0.00    +0.000 C 
ENDBRANCH   5  19
ENDBRANCH   1   5
BRANCH   3  21
ATOM     21  C   UNL     1       0.308  10.552  19.718  0.00  0.00    +0.000 C 
BRANCH  21  22
ATOM     22  C   UNL     1       1.154   9.357  19.342  0.00  0.00    +0.000 A 
ATOM     23  C   UNL     1       1.678   9.216  18.045  0.00  0.00    +0.000 A 
ATOM     24  C   UNL     1       2.521   8.143  17.727  0.00  0.00    +0.000 A 
ATOM     25  C   UNL     1       2.859   7.207  18.711  0.00  0.00    +0.000 A 
ATOM     26  C   UNL     1       2.276   7.295  19.977  0.00  0.00    +0.000 A 
ATOM     27  C   UNL     1       1.434   8.368  20.294  0.00  0.00    +0.000 A 
BRANCH  25  28
ATOM     28  S   UNL     1       3.870   5.783  18.305  0.00  0.00    +0.000 S 
ATOM     29  O   UNL     1       4.365   5.268  19.565  0.00  0.00    +0.000 OA
ATOM     30  O   UNL     1       3.076   4.950  17.427  0.00  0.00    +0.000 OA
BRANCH  28  31
ATOM     31  N   UNL     1       5.198   6.337  17.430  0.00  0.00    +0.000 NA
ATOM     32  C   UNL     1       5.217   6.283  15.951  0.00  0.00    +0.000 C 
ATOM     33  C   UNL     1       5.904   5.001  15.472  0.00  0.00    +0.000 C 
ATOM     34  O   UNL     1       7.207   4.822  16.050  0.00  0.00    +0.000 OA
ATOM     35  C   UNL     1       7.218   4.922  17.482  0.00  0.00    +0.000 C 
ATOM     36  C   UNL     1       6.567   6.212  17.975  0.00  0.00    +0.000 C 
ENDBRANCH  28  31
ENDBRANCH  25  28
ENDBRANCH  21  22
ENDBRANCH   3  21
TORSDOF 8
ENDMDL
MODEL 2
REMARK VINA RESULT:      -8.4      2.452      4.011
REMARK  Name = 
REMARK  10 active torsions:
REMARK  status: ('A' for Active; 'I' for Inactive)
REMARK    1  A    between atoms: C_1  and  C_2
REMARK    2  A    between atoms: C_2  and  C_3
REMARK    3  A    between atoms: C_2  and  C_4
REMARK    4  A    between atoms: C_4  and  N_5
REMARK    5  A    between atoms: C_4  and  C_16
REMARK    6  A    between atoms: C_6  and  C_8
REMARK    7  A    between atoms: N_18  and  C_19
REMARK    8  A    between atoms: C_19  and  C_20
REMARK    9  A    between atoms: C_23  and  S_24
REMARK   10  A    between atoms: S_24  and  N_27
REMARK                            x       y       z     vdW  Elec       q    Type
REMARK                         _______ _______ _______ _____ _____    ______ ____
ROOT
ATOM      1  C   UNL     1       0.346  10.847  21.364  0.00  0.00    +0.000 C 
ATOM      2  O   UNL     1       0.318  10.844  22.593  0.00  0.00    +0.000 OA
ATOM      3  N   UNL     1       0.632   9.715  20.626  0.00  0.00    +0.000 N 
ATOM      4  H   UNL     1       0.432   9.714  19.629  0.00  0.00    +0.000 HD
ENDROOT
BRANCH   1   5
ATOM      5  C   UNL     1       0.215  12.148  20.538  0.00  0.00    +0.000 C 
BRANCH   5   6
ATOM      6  N   UNL     1      -0.532  11.835  19.317  0.00  0.00    +0.000 N 
ATOM      7  C   UNL     1      -1.906  11.672  19.347  0.00  0.00    +0.000 C 
ATOM      8  O   UNL     1      -2.583  11.885  20.345  0.00  0.00    +0.000 OA
ATOM      9  H   UNL     1      -0.021  11.533  18.499  0.00  0.00    +0.000 HD
BRANCH   7  10
ATOM     10  C   UNL     1      -2.543  11.210  18.094  0.00  0.00    +0.000 A 
ATOM     11  C   UNL     1      -1.901  10.313  17.240  0.00  0.00    +0.000 A 
ATOM     12  F   UNL     1      -0.675   9.845  17.530  0.00  0.00    +0.000 F 
ATOM     13  C   UNL     1      -2.505   9.876  16.061  0.00  0.00    +0.000 A 
ATOM     14  C   UNL     1      -3.776  10.336  15.723  0.00  0.00    +0.000 A 
ATOM     15  C   UNL     1      -4.433  11.227  16.569  0.00  0.00    +0.000 A 
ATOM     16  C   UNL     1      -3.819  11.657  17.748  0.00  0.00    +0.000 A 
ATOM     17  F   UNL     1      -4.484  12.536  18.511  0.00  0.00    +0.000 F 
ENDBRANCH   7  10
ENDBRANCH   5   6
BRANCH   5  19
ATOM     18  C   UNL     1       1.957  12.631  18.728  0.00  0.00    +0.000 C 
ATOM     19  C   UNL     1       1.622  12.712  20.219  0.00  0.00    +0.000 C 
ATOM     20  C   UNL     1       1.747  14.169  20.687  0.00  0.00    +0.000 C 
ENDBRANCH   5  19
ENDBRANCH   1   5
BRANCH   3  21
ATOM     21  C   UNL     1       0.819   8.443  21.278  0.00  0.00    +0.000 C 
BRANCH  21  22
ATOM     22  C   UNL     1       1.586   7.463  20.421  0.00  0.00    +0.000 A 
ATOM     23  C   UNL     1       2.196   7.867  19.221  0.00  0.00    +0.000 A 
ATOM     24  C   UNL     1       2.965   6.968  18.471  0.00  0.00    +0.000 A 
ATOM     25  C   UNL     1       3.146   5.657  18.925  0.00  0.00    +0.000 A 
ATOM     26  C   UNL     1       2.476   5.226  20.073  0.00  0.00    +0.000 A 
ATOM     27  C   UNL     1       1.706   6.125  20.821  0.00  0.00    +0.000 A 
BRANCH  25  28
ATOM     28  S   UNL     1       4.059   4.469  17.942  0.00  0.00    +0.000 S 
ATOM     29  O   UNL     1       4.744   3.607  18.884  0.00  0.00    +0.000 OA
ATOM     30  O   UNL     1       3.123   3.920  16.984  0.00  0.00    +0.000 OA
BRANCH  28  31
ATOM     31  N   UNL     1       5.236   5.317  17.087  0.00  0.00    +0.000 NA
ATOM     32  C   UNL     1       5.450   5.082  15.641  0.00  0.00    +0.000 C 
ATOM     33  C   UNL     1       6.563   4.053  15.426  0.00  0.00    +0.000 C 
ATOM     34  O   UNL     1       7.774   4.395  16.116  0.00  0.00    +0.000 OA
ATOM     35  C   UNL     1       7.580   4.676  17.510  0.00  0.00    +0.000 C 
ATOM     36  C   UNL     1       6.497   5.727  17.741  0.00  0.00    +0.000 C 
ENDBRANCH  28  31
ENDBRANCH  25  28
ENDBRANCH  21  22
ENDBRANCH   3  21
TORSDOF 8
ENDMDL
MODEL 3
REMARK VINA RESULT:      -8.1      7.293     10.642
REMARK  Name = 
REMARK  10 active torsions:
REMARK  status: ('A' for Active; 'I' for Inactive)
REMARK    1  A    between atoms: C_1  and  C_2
REMARK    2  A    between atoms: C_2  and  C_3
REMARK    3  A    between atoms: C_2  and  C_4
REMARK    4  A    between atoms: C_4  and  N_5
REMARK    5  A    between atoms: C_4  and  C_16
REMARK    6  A    between atoms: C_6  and  C_8
REMARK    7  A    between atoms: N_18  and  C_19
REMARK    8  A    between atoms: C_19  and  C_20
REMARK    9  A    between atoms: C_23  and  S_24
REMARK   10  A    between atoms: S_24  and  N_27
REMARK                            x       y       z     vdW  Elec       q    Type
REMARK                         _______ _______ _______ _____ _____    ______ ____
ROOT
ATOM      1  C   UNL     1       7.216   6.820  18.047  0.00  0.00    +0.000 C 
ATOM      2  O   UNL     1       7.445   6.068  18.992  0.00  0.00    +0.000 OA
ATOM      3  N   UNL     1       7.824   8.053  17.917  0.00  0.00    +0.000 N 
ATOM      4  H   UNL     1       7.770   8.537  17.024  0.00  0.00    +0.000 HD
ENDROOT
BRANCH   1   5
ATOM      5  C   UNL     1       6.117   6.522  17.001  0.00  0.00    +0.000 C 
BRANCH   5   6
ATOM      6  N   UNL     1       5.052   5.766  17.665  0.00  0.00    +0.000 N 
ATOM      7  C   UNL     1       3.777   6.291  17.786  0.00  0.00    +0.000 C 
ATOM      8  O   UNL     1       3.434   7.341  17.260  0.00  0.00    +0.000 OA
ATOM      9  H   UNL     1       5.302   4.957  18.218  0.00  0.00    +0.000 HD
BRANCH   7  10
ATOM     10  C   UNL     1       2.819   5.515  18.604  0.00  0.00    +0.000 A 
ATOM     11  C   UNL     1       2.371   4.257  18.201  0.00  0.00    +0.000 A 
ATOM     12  F   UNL     1       2.794   3.713  17.048  0.00  0.00    +0.000 F 
ATOM     13  C   UNL     1       1.471   3.525  18.977  0.00  0.00    +0.000 A 
ATOM     14  C   UNL     1       1.008   4.052  20.181  0.00  0.00    +0.000 A 
ATOM     15  C   UNL     1       1.452   5.305  20.600  0.00  0.00    +0.000 A 
ATOM     16  C   UNL     1       2.354   6.027  19.817  0.00  0.00    +0.000 A 
ATOM     17  F   UNL     1       2.726   7.240  20.253  0.00  0.00    +0.000 F 
ENDBRANCH   7  10
ENDBRANCH   5   6
BRANCH   5  19
ATOM     18  C   UNL     1       7.364   4.417  16.254  0.00  0.00    +0.000 C 
ATOM     19  C   UNL     1       6.722   5.734  15.812  0.00  0.00    +0.000 C 
ATOM     20  C   UNL     1       5.654   5.444  14.748  0.00  0.00    +0.000 C 
ENDBRANCH   5  19
ENDBRANCH   1   5
BRANCH   3  21
ATOM     21  C   UNL     1       8.837   8.473  18.852  0.00  0.00    +0.000 C 
BRANCH  21  22
ATOM     22  C   UNL     1       8.978   9.976  18.914  0.00  0.00    +0.000 A 
ATOM     23  C   UNL     1       8.750  10.776  17.780  0.00  0.00    +0.000 A 
ATOM     24  C   UNL     1       8.813  12.173  17.865  0.00  0.00    +0.000 A 
ATOM     25  C   UNL     1       9.090  12.785  19.093  0.00  0.00    +0.000 A 
ATOM     26  C   UNL     1       9.399  11.995  20.204  0.00  0.00    +0.000 A 
ATOM     27  C   UNL     1       9.336  10.599  20.117  0.00  0.00    +0.000 A 
BRANCH  25  28
ATOM     28  S   UNL     1       9.254  14.566  19.208  0.00  0.00    +0.000 S 
ATOM     29  O   UNL     1       7.927  15.107  18.995  0.00  0.00    +0.000 OA
ATOM     30  O   UNL     1       9.975  14.836  20.433  0.00  0.00    +0.000 OA
BRANCH  28  31
ATOM     31  N   UNL     1      10.216  15.070  17.921  0.00  0.00    +0.000 NA
ATOM     32  C   UNL     1      11.690  14.933  17.967  0.00  0.00    +0.000 C 
ATOM     33  C   UNL     1      12.331  16.228  18.472  0.00  0.00    +0.000 C 
ATOM     34  O   UNL     1      11.906  17.381  17.731  0.00  0.00    +0.000 OA
ATOM     35  C   UNL     1      10.479  17.506  17.631  0.00  0.00    +0.000 C 
ATOM     36  C   UNL     1       9.826  16.233  17.096  0.00  0.00    +0.000 C 
ENDBRANCH  28  31
ENDBRANCH  25  28
ENDBRANCH  21  22
ENDBRANCH   3  21
TORSDOF 8
ENDMDL
MODEL 4
REMARK VINA RESULT:      -8.0      7.384     10.451
REMARK  Name = 
REMARK  10 active torsions:
REMARK  status: ('A' for Active; 'I' for Inactive)
REMARK    1  A    between atoms: C_1  and  C_2
REMARK    2  A    between atoms: C_2  and  C_3
REMARK    3  A    between atoms: C_2  and  C_4
REMARK    4  A    between atoms: C_4  and  N_5
REMARK    5  A    between atoms: C_4  and  C_16
REMARK    6  A    between atoms: C_6  and  C_8
REMARK    7  A    between atoms: N_18  and  C_19
REMARK    8  A    between atoms: C_19  and  C_20
REMARK    9  A    between atoms: C_23  and  S_24
REMARK   10  A    between atoms: S_24  and  N_27
REMARK                            x       y       z     vdW  Elec       q    Type
REMARK                         _______ _______ _______ _____ _____    ______ ____
ROOT
ATOM      1  C   UNL     1       6.892   6.585  17.989  0.00  0.00    +0.000 C 
ATOM      2  O   UNL     1       7.007   5.902  19.003  0.00  0.00    +0.000 OA
ATOM      3  N   UNL     1       7.616   7.744  17.789  0.00  0.00    +0.000 N 
ATOM      4  H   UNL     1       7.648   8.150  16.857  0.00  0.00    +0.000 HD
ENDROOT
BRANCH   1   5
ATOM      5  C   UNL     1       5.818   6.294  16.914  0.00  0.00    +0.000 C 
BRANCH   5   6
ATOM      6  N   UNL     1       4.761   5.492  17.534  0.00  0.00    +0.000 N 
ATOM      7  C   UNL     1       3.538   6.054  17.854  0.00  0.00    +0.000 C 
ATOM      8  O   UNL     1       3.225   7.196  17.544  0.00  0.00    +0.000 OA
ATOM      9  H   UNL     1       5.001   4.588  17.919  0.00  0.00    +0.000 HD
BRANCH   7  10
ATOM     10  C   UNL     1       2.598   5.199  18.613  0.00  0.00    +0.000 A 
ATOM     11  C   UNL     1       2.128   3.994  18.091  0.00  0.00    +0.000 A 
ATOM     12  F   UNL     1       2.512   3.575  16.873  0.00  0.00    +0.000 F 
ATOM     13  C   UNL     1       1.246   3.187  18.811  0.00  0.00    +0.000 A 
ATOM     14  C   UNL     1       0.823   3.583  20.078  0.00  0.00    +0.000 A 
ATOM     15  C   UNL     1       1.289   4.782  20.616  0.00  0.00    +0.000 A 
ATOM     16  C   UNL     1       2.174   5.580  19.887  0.00  0.00    +0.000 A 
ATOM     17  F   UNL     1       2.569   6.736  20.440  0.00  0.00    +0.000 F 
ENDBRANCH   7  10
ENDBRANCH   5   6
BRANCH   5  19
ATOM     18  C   UNL     1       7.172   4.271  16.130  0.00  0.00    +0.000 C 
ATOM     19  C   UNL     1       6.463   5.561  15.711  0.00  0.00    +0.000 C 
ATOM     20  C   UNL     1       5.412   5.235  14.641  0.00  0.00    +0.000 C 
ENDBRANCH   5  19
ENDBRANCH   1   5
BRANCH   3  21
ATOM     21  C   UNL     1       8.620   8.154  18.738  0.00  0.00    +0.000 C 
BRANCH  21  22
ATOM     22  C   UNL     1       8.866   9.644  18.712  0.00  0.00    +0.000 A 
ATOM     23  C   UNL     1       8.309  10.456  17.709  0.00  0.00    +0.000 A 
ATOM     24  C   UNL     1       8.482  11.846  17.735  0.00  0.00    +0.000 A 
ATOM     25  C   UNL     1       9.203  12.440  18.777  0.00  0.00    +0.000 A 
ATOM     26  C   UNL     1       9.828  11.632  19.731  0.00  0.00    +0.000 A 
ATOM     27  C   UNL     1       9.654  10.243  19.704  0.00  0.00    +0.000 A 
BRANCH  25  28
ATOM     28  S   UNL     1       9.505  14.206  18.787  0.00  0.00    +0.000 S 
ATOM     29  O   UNL     1      10.160  14.497  20.046  0.00  0.00    +0.000 OA
ATOM     30  O   UNL     1      10.148  14.522  17.530  0.00  0.00    +0.000 OA
BRANCH  28  31
ATOM     31  N   UNL     1       8.007  14.976  18.809  0.00  0.00    +0.000 NA
ATOM     32  C   UNL     1       7.802  16.273  18.125  0.00  0.00    +0.000 C 
ATOM     33  C   UNL     1       7.997  17.432  19.107  0.00  0.00    +0.000 C 
ATOM     34  O   UNL     1       7.193  17.296  20.289  0.00  0.00    +0.000 OA
ATOM     35  C   UNL     1       7.339  16.025  20.940  0.00  0.00    +0.000 C 
ATOM     36  C   UNL     1       7.113  14.857  19.981  0.00  0.00    +0.000 C 
ENDBRANCH  28  31
ENDBRANCH  25  28
ENDBRANCH  21  22
ENDBRANCH   3  21
TORSDOF 8
ENDMDL
MODEL 5
REMARK VINA RESULT:      -8.0      4.098     10.209
REMARK  Name = 
REMARK  10 active torsions:
REMARK  status: ('A' for Active; 'I' for Inactive)
REMARK    1  A    between atoms: C_1  and  C_2
REMARK    2  A    between atoms: C_2  and  C_3
REMARK    3  A    between atoms: C_2  and  C_4
REMARK    4  A    between atoms: C_4  and  N_5
REMARK    5  A    between atoms: C_4  and  C_16
REMARK    6  A    between atoms: C_6  and  C_8
REMARK    7  A    between atoms: N_18  and  C_19
REMARK    8  A    between atoms: C_19  and  C_20
REMARK    9  A    between atoms: C_23  and  S_24
REMARK   10  A    between atoms: S_24  and  N_27
REMARK                            x       y       z     vdW  Elec       q    Type
REMARK                         _______ _______ _______ _____ _____    ______ ____
ROOT
ATOM      1  C   UNL     1       4.853   6.628  16.963  0.00  0.00    +0.000 C 
ATOM      2  O   UNL     1       5.087   6.873  15.782  0.00  0.00    +0.000 OA
ATOM      3  N   UNL     1       3.871   7.288  17.676  0.00  0.00    +0.000 N 
ATOM      4  H   UNL     1       3.572   6.906  18.570  0.00  0.00    +0.000 HD
ENDROOT
BRANCH   1   5
ATOM      5  C   UNL     1       5.733   5.670  17.799  0.00  0.00    +0.000 C 
BRANCH   5   6
ATOM      6  N   UNL     1       4.883   5.045  18.815  0.00  0.00    +0.000 N 
ATOM      7  C   UNL     1       4.086   3.957  18.504  0.00  0.00    +0.000 C 
ATOM      8  O   UNL     1       4.123   3.390  17.419  0.00  0.00    +0.000 OA
ATOM      9  H   UNL     1       4.722   5.537  19.684  0.00  0.00    +0.000 HD
BRANCH   7  10
ATOM     10  C   UNL     1       3.155   3.498  19.559  0.00  0.00    +0.000 A 
ATOM     11  C   UNL     1       3.563   2.606  20.550  0.00  0.00    +0.000 A 
ATOM     12  F   UNL     1       4.821   2.131  20.572  0.00  0.00    +0.000 F 
ATOM     13  C   UNL     1       2.686   2.179  21.547  0.00  0.00    +0.000 A 
ATOM     14  C   UNL     1       1.374   2.648  21.561  0.00  0.00    +0.000 A 
ATOM     15  C   UNL     1       0.953   3.545  20.580  0.00  0.00    +0.000 A 
ATOM     16  C   UNL     1       1.841   3.968  19.590  0.00  0.00    +0.000 A 
ATOM     17  F   UNL     1       1.376   4.809  18.654  0.00  0.00    +0.000 F 
ENDBRANCH   7  10
ENDBRANCH   5   6
BRANCH   5  19
ATOM     18  C   UNL     1       7.926   5.534  19.110  0.00  0.00    +0.000 C 
ATOM     19  C   UNL     1       6.905   6.456  18.438  0.00  0.00    +0.000 C 
ATOM     20  C   UNL     1       7.619   7.322  17.391  0.00  0.00    +0.000 C 
ENDBRANCH   5  19
ENDBRANCH   1   5
BRANCH   3  21
ATOM     21  C   UNL     1       3.007   8.240  17.025  0.00  0.00    +0.000 C 
BRANCH  21  22
ATOM     22  C   UNL     1       2.276   9.123  18.009  0.00  0.00    +0.000 A 
ATOM     23  C   UNL     1       2.223  10.517  17.837  0.00  0.00    +0.000 A 
ATOM     24  C   UNL     1       1.482  11.320  18.714  0.00  0.00    +0.000 A 
ATOM     25  C   UNL     1       0.772  10.730  19.767  0.00  0.00    +0.000 A 
ATOM     26  C   UNL     1       0.887   9.356  19.993  0.00  0.00    +0.000 A 
ATOM     27  C   UNL     1       1.628   8.556  19.115  0.00  0.00    +0.000 A 
BRANCH  25  28
ATOM     28  S   UNL     1      -0.116  11.744  20.948  0.00  0.00    +0.000 S 
ATOM     29  O   UNL     1      -0.928  10.834  21.730  0.00  0.00    +0.000 OA
ATOM     30  O   UNL     1       0.867  12.592  21.586  0.00  0.00    +0.000 OA
BRANCH  28  31
ATOM     31  N   UNL     1      -1.165  12.734  20.078  0.00  0.00    +0.000 NA
ATOM     32  C   UNL     1      -2.164  13.583  20.766  0.00  0.00    +0.000 C 
ATOM     33  C   UNL     1      -3.511  12.860  20.853  0.00  0.00    +0.000 C 
ATOM     34  O   UNL     1      -3.969  12.390  19.576  0.00  0.00    +0.000 OA
ATOM     35  C   UNL     1      -2.996  11.605  18.870  0.00  0.00    +0.000 C 
ATOM     36  C   UNL     1      -1.656  12.327  18.743  0.00  0.00    +0.000 C 
ENDBRANCH  28  31
ENDBRANCH  25  28
ENDBRANCH  21  22
ENDBRANCH   3  21
TORSDOF 8
ENDMDL
MODEL 6
REMARK VINA RESULT:      -7.9      5.538     10.501
REMARK  Name = 
REMARK  10 active torsions:
REMARK  status: ('A' for Active; 'I' for Inactive)
REMARK    1  A    between atoms: C_1  and  C_2
REMARK    2  A    between atoms: C_2  and  C_3
REMARK    3  A    between atoms: C_2  and  C_4
REMARK    4  A    between atoms: C_4  and  N_5
REMARK    5  A    between atoms: C_4  and  C_16
REMARK    6  A    between atoms: C_6  and  C_8
REMARK    7  A    between atoms: N_18  and  C_19
REMARK    8  A    between atoms: C_19  and  C_20
REMARK    9  A    between atoms: C_23  and  S_24
REMARK   10  A    between atoms: S_24  and  N_27
REMARK                            x       y       z     vdW  Elec       q    Type
REMARK                         _______ _______ _______ _____ _____    ______ ____
ROOT
ATOM      1  C   UNL     1       1.913   4.863  20.427  0.00  0.00    +0.000 C 
ATOM      2  O   UNL     1       0.898   4.355  20.897  0.00  0.00    +0.000 OA
ATOM      3  N   UNL     1       2.127   6.228  20.430  0.00  0.00    +0.000 N 
ATOM      4  H   UNL     1       3.061   6.580  20.231  0.00  0.00    +0.000 HD
ENDROOT
BRANCH   1   5
ATOM      5  C   UNL     1       2.969   4.039  19.655  0.00  0.00    +0.000 C 
BRANCH   5   6
ATOM      6  N   UNL     1       3.925   4.974  19.058  0.00  0.00    +0.000 N 
ATOM      7  C   UNL     1       5.267   4.649  18.953  0.00  0.00    +0.000 C 
ATOM      8  O   UNL     1       5.711   3.546  19.239  0.00  0.00    +0.000 OA
ATOM      9  H   UNL     1       3.642   5.935  18.917  0.00  0.00    +0.000 HD
BRANCH   7  10
ATOM     10  C   UNL     1       6.169   5.721  18.476  0.00  0.00    +0.000 A 
ATOM     11  C   UNL     1       7.347   6.035  19.155  0.00  0.00    +0.000 A 
ATOM     12  F   UNL     1       7.694   5.374  20.272  0.00  0.00    +0.000 F 
ATOM     13  C   UNL     1       8.198   7.042  18.700  0.00  0.00    +0.000 A 
ATOM     14  C   UNL     1       7.877   7.751  17.544  0.00  0.00    +0.000 A 
ATOM     15  C   UNL     1       6.707   7.444  16.852  0.00  0.00    +0.000 A 
ATOM     16  C   UNL     1       5.863   6.432  17.315  0.00  0.00    +0.000 A 
ATOM     17  F   UNL     1       4.736   6.197  16.626  0.00  0.00    +0.000 F 
ENDBRANCH   7  10
ENDBRANCH   5   6
BRANCH   5  19
ATOM     18  C   UNL     1       2.281   3.829  17.200  0.00  0.00    +0.000 C 
ATOM     19  C   UNL     1       2.273   3.167  18.580  0.00  0.00    +0.000 C 
ATOM     20  C   UNL     1       2.935   1.786  18.482  0.00  0.00    +0.000 C 
ENDBRANCH   5  19
ENDBRANCH   1   5
BRANCH   3  21
ATOM     21  C   UNL     1       1.196   7.115  21.079  0.00  0.00    +0.000 C 
BRANCH  21  22
ATOM     22  C   UNL     1       1.223   8.509  20.495  0.00  0.00    +0.000 A 
ATOM     23  C   UNL     1       1.633   8.735  19.170  0.00  0.00    +0.000 A 
ATOM     24  C   UNL     1       1.585  10.020  18.615  0.00  0.00    +0.000 A 
ATOM     25  C   UNL     1       1.111  11.092  19.379  0.00  0.00    +0.000 A 
ATOM     26  C   UNL     1       0.781  10.890  20.722  0.00  0.00    +0.000 A 
ATOM     27  C   UNL     1       0.829   9.604  21.275  0.00  0.00    +0.000 A 
BRANCH  25  28
ATOM     28  S   UNL     1       1.117  12.758  18.717  0.00  0.00    +0.000 S 
ATOM     29  O   UNL     1       2.208  12.809  17.765  0.00  0.00    +0.000 OA
ATOM     30  O   UNL     1      -0.240  13.042  18.302  0.00  0.00    +0.000 OA
BRANCH  28  31
ATOM     31  N   UNL     1       1.501  13.804  19.980  0.00  0.00    +0.000 NA
ATOM     32  C   UNL     1       0.881  15.145  20.079  0.00  0.00    +0.000 C 
ATOM     33  C   UNL     1       1.779  16.198  19.425  0.00  0.00    +0.000 C 
ATOM     34  O   UNL     1       3.123  16.171  19.930  0.00  0.00    +0.000 OA
ATOM     35  C   UNL     1       3.725  14.868  19.890  0.00  0.00    +0.000 C 
ATOM     36  C   UNL     1       2.858  13.811  20.569  0.00  0.00    +0.000 C 
ENDBRANCH  28  31
ENDBRANCH  25  28
ENDBRANCH  21  22
ENDBRANCH   3  21
TORSDOF 8
ENDMDL
MODEL 7
REMARK VINA RESULT:      -7.9      3.352      4.031
REMARK  Name = 
REMARK  10 active torsions:
REMARK  status: ('A' for Active; 'I' for Inactive)
REMARK    1  A    between atoms: C_1  and  C_2
REMARK    2  A    between atoms: C_2  and  C_3
REMARK    3  A    between atoms: C_2  and  C_4
REMARK    4  A    between atoms: C_4  and  N_5
REMARK    5  A    between atoms: C_4  and  C_16
REMARK    6  A    between atoms: C_6  and  C_8
REMARK    7  A    between atoms: N_18  and  C_19
REMARK    8  A    between atoms: C_19  and  C_20
REMARK    9  A    between atoms: C_23  and  S_24
REMARK   10  A    between atoms: S_24  and  N_27
REMARK                            x       y       z     vdW  Elec       q    Type
REMARK                         _______ _______ _______ _____ _____    ______ ____
ROOT
ATOM      1  C   UNL     1       0.530  10.251  21.573  0.00  0.00    +0.000 C 
ATOM      2  O   UNL     1       0.854  10.204  22.758  0.00  0.00    +0.000 OA
ATOM      3  N   UNL     1       0.474   9.125  20.775  0.00  0.00    +0.000 N 
ATOM      4  H   UNL     1      -0.001   9.181  19.878  0.00  0.00    +0.000 HD
ENDROOT
BRANCH   1   5
ATOM      5  C   UNL     1       0.303  11.588  20.830  0.00  0.00    +0.000 C 
BRANCH   5   6
ATOM      6  N   UNL     1      -0.981  12.139  21.269  0.00  0.00    +0.000 N 
ATOM      7  C   UNL     1      -1.044  13.069  22.292  0.00  0.00    +0.000 C 
ATOM      8  O   UNL     1      -0.050  13.565  22.805  0.00  0.00    +0.000 OA
ATOM      9  H   UNL     1      -1.833  11.683  20.969  0.00  0.00    +0.000 HD
BRANCH   7  10
ATOM     10  C   UNL     1      -2.396  13.446  22.759  0.00  0.00    +0.000 A 
ATOM     11  C   UNL     1      -3.187  12.557  23.489  0.00  0.00    +0.000 A 
ATOM     12  F   UNL     1      -2.741  11.324  23.785  0.00  0.00    +0.000 F 
ATOM     13  C   UNL     1      -4.460  12.916  23.933  0.00  0.00    +0.000 A 
ATOM     14  C   UNL     1      -4.959  14.186  23.648  0.00  0.00    +0.000 A 
ATOM     15  C   UNL     1      -4.179  15.087  22.926  0.00  0.00    +0.000 A 
ATOM     16  C   UNL     1      -2.904  14.717  22.489  0.00  0.00    +0.000 A 
ATOM     17  F   UNL     1      -2.207  15.612  21.773  0.00  0.00    +0.000 F 
ENDBRANCH   7  10
ENDBRANCH   5   6
BRANCH   5  19
ATOM     18  C   UNL     1      -0.805  12.078  18.578  0.00  0.00    +0.000 C 
ATOM     19  C   UNL     1       0.332  11.351  19.300  0.00  0.00    +0.000 C 
ATOM     20  C   UNL     1       1.675  11.792  18.702  0.00  0.00    +0.000 C 
ENDBRANCH   5  19
ENDBRANCH   1   5
BRANCH   3  21
ATOM     21  C   UNL     1       0.707   7.817  21.335  0.00  0.00    +0.000 C 
BRANCH  21  22
ATOM     22  C   UNL     1       1.602   6.967  20.463  0.00  0.00    +0.000 A 
ATOM     23  C   UNL     1       2.245   7.507  19.335  0.00  0.00    +0.000 A 
ATOM     24  C   UNL     1       3.129   6.730  18.575  0.00  0.00    +0.000 A 
ATOM     25  C   UNL     1       3.390   5.407  18.947  0.00  0.00    +0.000 A 
ATOM     26  C   UNL     1       2.692   4.839  20.017  0.00  0.00    +0.000 A 
ATOM     27  C   UNL     1       1.809   5.617  20.775  0.00  0.00    +0.000 A 
BRANCH  25  28
ATOM     28  S   UNL     1       4.455   4.371  17.944  0.00  0.00    +0.000 S 
ATOM     29  O   UNL     1       5.610   4.067  18.764  0.00  0.00    +0.000 OA
ATOM     30  O   UNL     1       3.623   3.310  17.418  0.00  0.00    +0.000 OA
BRANCH  28  31
ATOM     31  N   UNL     1       4.989   5.301  16.646  0.00  0.00    +0.000 NA
ATOM     32  C   UNL     1       5.395   4.671  15.369  0.00  0.00    +0.000 C 
ATOM     33  C   UNL     1       6.909   4.438  15.346  0.00  0.00    +0.000 C 
ATOM     34  O   UNL     1       7.656   5.629  15.639  0.00  0.00    +0.000 OA
ATOM     35  C   UNL     1       7.243   6.283  16.848  0.00  0.00    +0.000 C 
ATOM     36  C   UNL     1       5.740   6.555  16.872  0.00  0.00    +0.000 C 
ENDBRANCH  28  31
ENDBRANCH  25  28
ENDBRANCH  21  22
ENDBRANCH   3  21
TORSDOF 8
ENDMDL
MODEL 8
REMARK VINA RESULT:      -7.9      4.192     10.157
REMARK  Name = 
REMARK  10 active torsions:
REMARK  status: ('A' for Active; 'I' for Inactive)
REMARK    1  A    between atoms: C_1  and  C_2
REMARK    2  A    between atoms: C_2  and  C_3
REMARK    3  A    between atoms: C_2  and  C_4
REMARK    4  A    between atoms: C_4  and  N_5
REMARK    5  A    between atoms: C_4  and  C_16
REMARK    6  A    between atoms: C_6  and  C_8
REMARK    7  A    between atoms: N_18  and  C_19
REMARK    8  A    between atoms: C_19  and  C_20
REMARK    9  A    between atoms: C_23  and  S_24
REMARK   10  A    between atoms: S_24  and  N_27
REMARK                            x       y       z     vdW  Elec       q    Type
REMARK                         _______ _______ _______ _____ _____    ______ ____
ROOT
ATOM      1  C   UNL     1       4.818   6.394  16.687  0.00  0.00    +0.000 C 
ATOM      2  O   UNL     1       5.113   6.871  15.594  0.00  0.00    +0.000 OA
ATOM      3  N   UNL     1       3.807   6.913  17.473  0.00  0.00    +0.000 N 
ATOM      4  H   UNL     1       3.460   6.362  18.255  0.00  0.00    +0.000 HD
ENDROOT
BRANCH   1   5
ATOM      5  C   UNL     1       5.647   5.270  17.350  0.00  0.00    +0.000 C 
BRANCH   5   6
ATOM      6  N   UNL     1       4.868   4.732  18.468  0.00  0.00    +0.000 N 
ATOM      7  C   UNL     1       3.940   3.725  18.268  0.00  0.00    +0.000 C 
ATOM      8  O   UNL     1       3.794   3.154  17.195  0.00  0.00    +0.000 OA
ATOM      9  H   UNL     1       4.859   5.240  19.342  0.00  0.00    +0.000 HD
BRANCH   7  10
ATOM     10  C   UNL     1       3.102   3.360  19.431  0.00  0.00    +0.000 A 
ATOM     11  C   UNL     1       3.599   2.566  20.465  0.00  0.00    +0.000 A 
ATOM     12  F   UNL     1       4.860   2.103  20.430  0.00  0.00    +0.000 F 
ATOM     13  C   UNL     1       2.809   2.227  21.563  0.00  0.00    +0.000 A 
ATOM     14  C   UNL     1       1.496   2.688  21.640  0.00  0.00    +0.000 A 
ATOM     15  C   UNL     1       0.987   3.487  20.617  0.00  0.00    +0.000 A 
ATOM     16  C   UNL     1       1.788   3.822  19.524  0.00  0.00    +0.000 A 
ATOM     17  F   UNL     1       1.240   4.570  18.555  0.00  0.00    +0.000 F 
ENDBRANCH   7  10
ENDBRANCH   5   6
BRANCH   5  19
ATOM     18  C   UNL     1       7.174   7.317  17.493  0.00  0.00    +0.000 C 
ATOM     19  C   UNL     1       7.012   5.831  17.821  0.00  0.00    +0.000 C 
ATOM     20  C   UNL     1       7.199   5.623  19.330  0.00  0.00    +0.000 C 
ENDBRANCH   5  19
ENDBRANCH   1   5
BRANCH   3  21
ATOM     21  C   UNL     1       2.984   7.993  16.991  0.00  0.00    +0.000 C 
BRANCH  21  22
ATOM     22  C   UNL     1       2.355   8.785  18.113  0.00  0.00    +0.000 A 
ATOM     23  C   UNL     1       2.133  10.168  17.993  0.00  0.00    +0.000 A 
ATOM     24  C   UNL     1       1.484  10.880  19.010  0.00  0.00    +0.000 A 
ATOM     25  C   UNL     1       1.035  10.209  20.154  0.00  0.00    +0.000 A 
ATOM     26  C   UNL     1       1.326   8.852  20.316  0.00  0.00    +0.000 A 
ATOM     27  C   UNL     1       1.976   8.142  19.299  0.00  0.00    +0.000 A 
BRANCH  25  28
ATOM     28  S   UNL     1       0.274  11.113  21.501  0.00  0.00    +0.000 S 
ATOM     29  O   UNL     1       0.242  10.204  22.629  0.00  0.00    +0.000 OA
ATOM     30  O   UNL     1       0.968  12.380  21.593  0.00  0.00    +0.000 OA
BRANCH  28  31
ATOM     31  N   UNL     1      -1.321  11.428  21.063  0.00  0.00    +0.000 NA
ATOM     32  C   UNL     1      -1.674  11.803  19.674  0.00  0.00    +0.000 C 
ATOM     33  C   UNL     1      -1.722  13.327  19.528  0.00  0.00    +0.000 C 
ATOM     34  O   UNL     1      -2.572  13.950  20.503  0.00  0.00    +0.000 OA
ATOM     35  C   UNL     1      -2.279  13.560  21.853  0.00  0.00    +0.000 C 
ATOM     36  C   UNL     1      -2.262  12.043  22.024  0.00  0.00    +0.000 C 
ENDBRANCH  28  31
ENDBRANCH  25  28
ENDBRANCH  21  22
ENDBRANCH   3  21
TORSDOF 8
ENDMDL
MODEL 9
REMARK VINA RESULT:      -7.9      3.281      5.500
REMARK  Name = 
REMARK  10 active torsions:
REMARK  status: ('A' for Active; 'I' for Inactive)
REMARK    1  A    between atoms: C_1  and  C_2
REMARK    2  A    between atoms: C_2  and  C_3
REMARK    3  A    between atoms: C_2  and  C_4
REMARK    4  A    between atoms: C_4  and  N_5
REMARK    5  A    between atoms: C_4  and  C_16
REMARK    6  A    between atoms: C_6  and  C_8
REMARK    7  A    between atoms: N_18  and  C_19
REMARK    8  A    between atoms: C_19  and  C_20
REMARK    9  A    between atoms: C_23  and  S_24
REMARK   10  A    between atoms: S_24  and  N_27
REMARK                            x       y       z     vdW  Elec       q    Type
REMARK                         _______ _______ _______ _____ _____    ______ ____
ROOT
ATOM      1  C   UNL     1      -0.443  10.617  21.279  0.00  0.00    +0.000 C 
ATOM      2  O   UNL     1      -0.525  10.682  22.503  0.00  0.00    +0.000 OA
ATOM      3  N   UNL     1       0.261   9.618  20.635  0.00  0.00    +0.000 N 
ATOM      4  H   UNL     1       0.121   9.482  19.637  0.00  0.00    +0.000 HD
ENDROOT
BRANCH   1   5
ATOM      5  C   UNL     1      -0.989  11.729  20.353  0.00  0.00    +0.000 C 
BRANCH   5   6
ATOM      6  N   UNL     1       0.088  12.694  20.120  0.00  0.00    +0.000 N 
ATOM      7  C   UNL     1       0.269  13.271  18.875  0.00  0.00    +0.000 C 
ATOM      8  O   UNL     1      -0.507  13.105  17.943  0.00  0.00    +0.000 OA
ATOM      9  H   UNL     1       0.824  12.777  20.809  0.00  0.00    +0.000 HD
BRANCH   7  10
ATOM     10  C   UNL     1       1.474  14.113  18.706  0.00  0.00    +0.000 A 
ATOM     11  C   UNL     1       1.459  15.473  19.017  0.00  0.00    +0.000 A 
ATOM     12  F   UNL     1       0.342  16.062  19.476  0.00  0.00    +0.000 F 
ATOM     13  C   UNL     1       2.598  16.264  18.862  0.00  0.00    +0.000 A 
ATOM     14  C   UNL     1       3.779  15.692  18.391  0.00  0.00    +0.000 A 
ATOM     15  C   UNL     1       3.810  14.333  18.082  0.00  0.00    +0.000 A 
ATOM     16  C   UNL     1       2.665  13.551  18.244  0.00  0.00    +0.000 A 
ATOM     17  F   UNL     1       2.742  12.256  17.905  0.00  0.00    +0.000 F 
ENDBRANCH   7  10
ENDBRANCH   5   6
BRANCH   5  19
ATOM     18  C   UNL     1      -1.894  13.761  21.616  0.00  0.00    +0.000 C 
ATOM     19  C   UNL     1      -2.225  12.397  21.006  0.00  0.00    +0.000 C 
ATOM     20  C   UNL     1      -3.362  12.560  19.988  0.00  0.00    +0.000 C 
ENDBRANCH   5  19
ENDBRANCH   1   5
BRANCH   3  21
ATOM     21  C   UNL     1       0.858   8.542  21.385  0.00  0.00    +0.000 C 
BRANCH  21  22
ATOM     22  C   UNL     1       1.587   7.557  20.501  0.00  0.00    +0.000 A 
ATOM     23  C   UNL     1       2.127   7.950  19.264  0.00  0.00    +0.000 A 
ATOM     24  C   UNL     1       2.863   7.047  18.485  0.00  0.00    +0.000 A 
ATOM     25  C   UNL     1       3.080   5.744  18.946  0.00  0.00    +0.000 A 
ATOM     26  C   UNL     1       2.477   5.323  20.135  0.00  0.00    +0.000 A 
ATOM     27  C   UNL     1       1.741   6.226  20.911  0.00  0.00    +0.000 A 
BRANCH  25  28
ATOM     28  S   UNL     1       3.950   4.550  17.931  0.00  0.00    +0.000 S 
ATOM     29  O   UNL     1       4.616   3.649  18.849  0.00  0.00    +0.000 OA
ATOM     30  O   UNL     1       2.991   4.049  16.969  0.00  0.00    +0.000 OA
BRANCH  28  31
ATOM     31  N   UNL     1       5.145   5.381  17.084  0.00  0.00    +0.000 NA
ATOM     32  C   UNL     1       5.439   5.066  15.668  0.00  0.00    +0.000 C 
ATOM     33  C   UNL     1       6.590   4.060  15.572  0.00  0.00    +0.000 C 
ATOM     34  O   UNL     1       7.754   4.481  16.299  0.00  0.00    +0.000 OA
ATOM     35  C   UNL     1       7.482   4.840  17.662  0.00  0.00    +0.000 C 
ATOM     36  C   UNL     1       6.359   5.869  17.773  0.00  0.00    +0.000 C 
ENDBRANCH  28  31
ENDBRANCH  25  28
ENDBRANCH  21  22
ENDBRANCH   3  21
TORSDOF 8
ENDMDL
