MODEL 1
REMARK VINA RESULT:      -8.5      0.000      0.000
REMARK  Name = 
REMARK  8 active torsions:
REMARK  status: ('A' for Active; 'I' for Inactive)
REMARK    1  A    between atoms: C_1  and  O_2
REMARK    2  A    between atoms: O_2  and  C_3
REMARK    3  A    between atoms: C_3  and  C_5
REMARK    4  A    between atoms: C_5  and  C_6
REMARK    5  A    between atoms: C_10  and  O_11
REMARK    6  A    between atoms: O_11  and  C_12
REMARK    7  A    between atoms: C_24  and  C_25
REMARK    8  A    between atoms: N_27  and  O_28
REMARK                            x       y       z     vdW  Elec       q    Type
REMARK                         _______ _______ _______ _____ _____    ______ ____
ROOT
ATOM      1  C   UNL     1       3.260   5.751  18.198  0.00  0.00    +0.000 A 
ATOM      2  C   UNL     1       2.810   5.460  19.499  0.00  0.00    +0.000 A 
ATOM      3  C   UNL     1       2.250   6.444  20.310  0.00  0.00    +0.000 A 
ATOM      4  C   UNL     1       2.067   7.732  19.815  0.00  0.00    +0.000 A 
ATOM      5  C   UNL     1       2.424   8.033  18.502  0.00  0.00    +0.000 A 
ATOM      6  C   UNL     1       3.051   7.060  17.718  0.00  0.00    +0.000 A 
ENDROOT
BRANCH   1   7
ATOM      7  C   UNL     1       3.954   4.699  17.334  0.00  0.00    +0.000 C 
ATOM      8  C   UNL     1       4.712   5.218  16.116  0.00  0.00    +0.000 C 
ATOM      9  C   UNL     1       5.490   4.628  17.253  0.00  0.00    +0.000 C 
BRANCH   9  10
ATOM     10  C   UNL     1       6.333   5.449  18.151  0.00  0.00    +0.000 C 
ATOM     11  O   UNL     1       6.541   6.642  17.957  0.00  0.00    +0.000 OA
ATOM     12  N   UNL     1       6.817   4.774  19.244  0.00  0.00    +0.000 N 
ATOM     13  H   UNL     1       6.499   3.853  19.525  0.00  0.00    +0.000 HD
BRANCH  12  14
ATOM     14  O   UNL     1       7.457   5.560  20.228  0.00  0.00    +0.000 OA
ATOM     15  H   UNL     1       8.077   6.103  19.693  0.00  0.00    +0.000 HD
ENDBRANCH  12  14
ENDBRANCH   9  10
BRANCH   7  16
ATOM     16  C   UNL     1       3.288   3.360  17.304  0.00  0.00    +0.000 C 
ATOM     17  O   UNL     1       2.169   3.216  16.837  0.00  0.00    +0.000 OA
BRANCH  16  19
ATOM     18  C   UNL     1       3.587   1.925  19.119  0.00  0.00    +0.000 C 
ATOM     19  O   UNL     1       4.058   2.375  17.848  0.00  0.00    +0.000 OA
ENDBRANCH  16  19
ENDBRANCH   7  16
ENDBRANCH   1   7
BRANCH   5  20
ATOM     20  O   UNL     1       2.188   9.331  18.104  0.00  0.00    +0.000 OA
BRANCH  20  21
ATOM     21  C   UNL     1       0.961   9.910  18.332  0.00  0.00    +0.000 A 
ATOM     22  C   UNL     1       0.934  10.917  19.295  0.00  0.00    +0.000 A 
ATOM     23  C   UNL     1      -0.258  11.583  19.580  0.00  0.00    +0.000 A 
ATOM     24  C   UNL     1      -1.440  11.250  18.902  0.00  0.00    +0.000 A 
ATOM     25  C   UNL     1      -2.626  11.972  19.111  0.00  0.00    +0.000 A 
ATOM     26  C   UNL     1      -3.793  11.639  18.422  0.00  0.00    +0.000 A 
ATOM     27  C   UNL     1      -3.800  10.555  17.549  0.00  0.00    +0.000 A 
ATOM     28  C   UNL     1      -2.630   9.825  17.334  0.00  0.00    +0.000 A 
ATOM     29  C   UNL     1      -1.434  10.177  17.981  0.00  0.00    +0.000 A 
ATOM     30  C   UNL     1      -0.228   9.501  17.720  0.00  0.00    +0.000 A 
ENDBRANCH  20  21
ENDBRANCH   5  20
TORSDOF 7
ENDMDL
MODEL 2
REMARK VINA RESULT:      -8.4      0.857      1.174
REMARK  Name = 
REMARK  8 active torsions:
REMARK  status: ('A' for Active; 'I' for Inactive)
REMARK    1  A    between atoms: C_1  and  O_2
REMARK    2  A    between atoms: O_2  and  C_3
REMARK    3  A    between atoms: C_3  and  C_5
REMARK    4  A    between atoms: C_5  and  C_6
REMARK    5  A    between atoms: C_10  and  O_11
REMARK    6  A    between atoms: O_11  and  C_12
REMARK    7  A    between atoms: C_24  and  C_25
REMARK    8  A    between atoms: N_27  and  O_28
REMARK                            x       y       z     vdW  Elec       q    Type
REMARK                         _______ _______ _______ _____ _____    ______ ____
ROOT
ATOM      1  C   UNL     1       3.118   5.489  18.643  0.00  0.00    +0.000 A 
ATOM      2  C   UNL     1       2.639   5.343  19.958  0.00  0.00    +0.000 A 
ATOM      3  C   UNL     1       2.094   6.418  20.655  0.00  0.00    +0.000 A 
ATOM      4  C   UNL     1       1.953   7.654  20.028  0.00  0.00    +0.000 A 
ATOM      5  C   UNL     1       2.338   7.811  18.699  0.00  0.00    +0.000 A 
ATOM      6  C   UNL     1       2.951   6.748  18.029  0.00  0.00    +0.000 A 
ENDROOT
BRANCH   1   7
ATOM      7  C   UNL     1       3.796   4.338  17.902  0.00  0.00    +0.000 C 
ATOM      8  C   UNL     1       4.511   4.698  16.603  0.00  0.00    +0.000 C 
ATOM      9  C   UNL     1       5.330   4.267  17.784  0.00  0.00    +0.000 C 
BRANCH   9  10
ATOM     10  C   UNL     1       6.190   5.204  18.540  0.00  0.00    +0.000 C 
ATOM     11  O   UNL     1       6.363   5.115  19.751  0.00  0.00    +0.000 OA
ATOM     12  N   UNL     1       6.816   6.147  17.763  0.00  0.00    +0.000 N 
ATOM     13  H   UNL     1       6.843   6.117  16.751  0.00  0.00    +0.000 HD
BRANCH  12  14
ATOM     14  O   UNL     1       7.797   6.934  18.409  0.00  0.00    +0.000 OA
ATOM     15  H   UNL     1       8.552   6.310  18.483  0.00  0.00    +0.000 HD
ENDBRANCH  12  14
ENDBRANCH   9  10
BRANCH   7  16
ATOM     16  C   UNL     1       3.144   3.002  18.069  0.00  0.00    +0.000 C 
ATOM     17  O   UNL     1       3.748   2.055  18.550  0.00  0.00    +0.000 OA
BRANCH  16  19
ATOM     18  C   UNL     1       0.941   2.427  18.574  0.00  0.00    +0.000 C 
ATOM     19  O   UNL     1       1.854   2.984  17.628  0.00  0.00    +0.000 OA
ENDBRANCH  16  19
ENDBRANCH   7  16
ENDBRANCH   1   7
BRANCH   5  20
ATOM     20  O   UNL     1       2.144   9.067  18.167  0.00  0.00    +0.000 OA
BRANCH  20  21
ATOM     21  C   UNL     1       0.936   9.705  18.329  0.00  0.00    +0.000 A 
ATOM     22  C   UNL     1       0.902  10.703  19.302  0.00  0.00    +0.000 A 
ATOM     23  C   UNL     1      -0.270  11.425  19.525  0.00  0.00    +0.000 A 
ATOM     24  C   UNL     1      -1.425  11.160  18.774  0.00  0.00    +0.000 A 
ATOM     25  C   UNL     1      -2.584  11.938  18.922  0.00  0.00    +0.000 A 
ATOM     26  C   UNL     1      -3.723  11.671  18.161  0.00  0.00    +0.000 A 
ATOM     27  C   UNL     1      -3.732  10.598  17.276  0.00  0.00    +0.000 A 
ATOM     28  C   UNL     1      -2.589   9.811  17.121  0.00  0.00    +0.000 A 
ATOM     29  C   UNL     1      -1.417  10.096  17.842  0.00  0.00    +0.000 A 
ATOM     30  C   UNL     1      -0.233   9.363  17.644  0.00  0.00    +0.000 A 
ENDBRANCH  20  21
ENDBRANCH   5  20
TORSDOF 7
ENDMDL
MODEL 3
REMARK VINA RESULT:      -8.4      1.509      2.963
REMARK  Name = 
REMARK  8 active torsions:
REMARK  status: ('A' for Active; 'I' for Inactive)
REMARK    1  A    between atoms: C_1  and  O_2
REMARK    2  A    between atoms: O_2  and  C_3
REMARK    3  A    between atoms: C_3  and  C_5
REMARK    4  A    between atoms: C_5  and  C_6
REMARK    5  A    between atoms: C_10  and  O_11
REMARK    6  A    between atoms: O_11  and  C_12
REMARK    7  A    between atoms: C_24  and  C_25
REMARK    8  A    between atoms: N_27  and  O_28
REMARK                            x       y       z     vdW  Elec       q    Type
REMARK                         _______ _______ _______ _____ _____    ______ ____
ROOT
ATOM      1  C   UNL     1       3.276   5.733  18.897  0.00  0.00    +0.000 A 
ATOM      2  C   UNL     1       2.657   5.551  20.147  0.00  0.00    +0.000 A 
ATOM      3  C   UNL     1       1.929   6.572  20.752  0.00  0.00    +0.000 A 
ATOM      4  C   UNL     1       1.745   7.782  20.087  0.00  0.00    +0.000 A 
ATOM      5  C   UNL     1       2.273   7.966  18.811  0.00  0.00    +0.000 A 
ATOM      6  C   UNL     1       3.064   6.963  18.242  0.00  0.00    +0.000 A 
ENDROOT
BRANCH   1   7
ATOM      7  C   UNL     1       4.149   4.648  18.267  0.00  0.00    +0.000 C 
ATOM      8  C   UNL     1       4.324   3.367  19.076  0.00  0.00    +0.000 C 
ATOM      9  C   UNL     1       3.539   3.313  17.800  0.00  0.00    +0.000 C 
BRANCH   9  10
ATOM     10  C   UNL     1       2.071   3.120  17.777  0.00  0.00    +0.000 C 
ATOM     11  O   UNL     1       1.320   3.835  17.122  0.00  0.00    +0.000 OA
ATOM     12  N   UNL     1       1.632   2.045  18.508  0.00  0.00    +0.000 N 
ATOM     13  H   UNL     1       2.245   1.334  18.891  0.00  0.00    +0.000 HD
BRANCH  12  14
ATOM     14  O   UNL     1       0.269   1.704  18.355  0.00  0.00    +0.000 OA
ATOM     15  H   UNL     1       0.136   1.043  19.070  0.00  0.00    +0.000 HD
ENDBRANCH  12  14
ENDBRANCH   9  10
BRANCH   7  16
ATOM     16  C   UNL     1       5.247   5.148  17.383  0.00  0.00    +0.000 C 
ATOM     17  O   UNL     1       5.080   5.295  16.182  0.00  0.00    +0.000 OA
BRANCH  16  19
ATOM     18  C   UNL     1       7.514   4.638  17.589  0.00  0.00    +0.000 C 
ATOM     19  O   UNL     1       6.401   5.399  18.064  0.00  0.00    +0.000 OA
ENDBRANCH  16  19
ENDBRANCH   7  16
ENDBRANCH   1   7
BRANCH   5  20
ATOM     20  O   UNL     1       2.024   9.192  18.235  0.00  0.00    +0.000 OA
BRANCH  20  21
ATOM     21  C   UNL     1       0.806   9.805  18.418  0.00  0.00    +0.000 A 
ATOM     22  C   UNL     1       0.766  10.795  19.398  0.00  0.00    +0.000 A 
ATOM     23  C   UNL     1      -0.417  11.493  19.642  0.00  0.00    +0.000 A 
ATOM     24  C   UNL     1      -1.577  11.210  18.905  0.00  0.00    +0.000 A 
ATOM     25  C   UNL     1      -2.748  11.964  19.075  0.00  0.00    +0.000 A 
ATOM     26  C   UNL     1      -3.892  11.681  18.327  0.00  0.00    +0.000 A 
ATOM     27  C   UNL     1      -3.892  10.614  17.434  0.00  0.00    +0.000 A 
ATOM     28  C   UNL     1      -2.736   9.851  17.257  0.00  0.00    +0.000 A 
ATOM     29  C   UNL     1      -1.561  10.154  17.964  0.00  0.00    +0.000 A 
ATOM     30  C   UNL     1      -0.366   9.445  17.745  0.00  0.00    +0.000 A 
ENDBRANCH  20  21
ENDBRANCH   5  20
TORSDOF 7
ENDMDL
MODEL 4
REMARK VINA RESULT:      -8.2      2.553      4.327
REMARK  Name = 
REMARK  8 active torsions:
REMARK  status: ('A' for Active; 'I' for Inactive)
REMARK    1  A    between atoms: C_1  and  O_2
REMARK    2  A    between atoms: O_2  and  C_3
REMARK    3  A    between atoms: C_3  and  C_5
REMARK    4  A    between atoms: C_5  and  C_6
REMARK    5  A    between atoms: C_10  and  O_11
REMARK    6  A    between atoms: O_11  and  C_12
REMARK    7  A    between atoms: C_24  and  C_25
REMARK    8  A    between atoms: N_27  and  O_28
REMARK                            x       y       z     vdW  Elec       q    Type
REMARK                         _______ _______ _______ _____ _____    ______ ____
ROOT
ATOM      1  C   UNL     1       5.192   5.746  17.543  0.00  0.00    +0.000 A 
ATOM      2  C   UNL     1       4.430   4.572  17.684  0.00  0.00    +0.000 A 
ATOM      3  C   UNL     1       3.064   4.621  17.947  0.00  0.00    +0.000 A 
ATOM      4  C   UNL     1       2.412   5.850  18.011  0.00  0.00    +0.000 A 
ATOM      5  C   UNL     1       3.120   7.029  17.792  0.00  0.00    +0.000 A 
ATOM      6  C   UNL     1       4.504   6.975  17.600  0.00  0.00    +0.000 A 
ENDROOT
BRANCH   1   7
ATOM      7  C   UNL     1       6.706   5.702  17.339  0.00  0.00    +0.000 C 
ATOM      8  C   UNL     1       7.333   4.316  17.229  0.00  0.00    +0.000 C 
ATOM      9  C   UNL     1       7.312   5.198  16.017  0.00  0.00    +0.000 C 
BRANCH   9  10
ATOM     10  C   UNL     1       6.450   4.922  14.846  0.00  0.00    +0.000 C 
ATOM     11  O   UNL     1       5.804   5.797  14.278  0.00  0.00    +0.000 OA
ATOM     12  N   UNL     1       6.474   3.617  14.423  0.00  0.00    +0.000 N 
ATOM     13  H   UNL     1       7.143   2.929  14.750  0.00  0.00    +0.000 HD
BRANCH  12  14
ATOM     14  O   UNL     1       5.827   3.349  13.196  0.00  0.00    +0.000 OA
ATOM     15  H   UNL     1       4.908   3.649  13.372  0.00  0.00    +0.000 HD
ENDBRANCH  12  14
ENDBRANCH   9  10
BRANCH   7  16
ATOM     16  C   UNL     1       7.464   6.836  17.954  0.00  0.00    +0.000 C 
ATOM     17  O   UNL     1       8.100   6.690  18.987  0.00  0.00    +0.000 OA
BRANCH  16  19
ATOM     18  C   UNL     1       8.073   9.083  17.822  0.00  0.00    +0.000 C 
ATOM     19  O   UNL     1       7.349   7.995  17.246  0.00  0.00    +0.000 OA
ENDBRANCH  16  19
ENDBRANCH   7  16
ENDBRANCH   1   7
BRANCH   5  20
ATOM     20  O   UNL     1       2.381   8.189  17.863  0.00  0.00    +0.000 OA
BRANCH  20  21
ATOM     21  C   UNL     1       1.743   8.530  19.033  0.00  0.00    +0.000 A 
ATOM     22  C   UNL     1       1.954   7.672  20.111  0.00  0.00    +0.000 A 
ATOM     23  C   UNL     1       1.370   7.944  21.349  0.00  0.00    +0.000 A 
ATOM     24  C   UNL     1       0.568   9.081  21.524  0.00  0.00    +0.000 A 
ATOM     25  C   UNL     1       0.049   9.418  22.784  0.00  0.00    +0.000 A 
ATOM     26  C   UNL     1      -0.738  10.559  22.948  0.00  0.00    +0.000 A 
ATOM     27  C   UNL     1      -1.051  11.352  21.848  0.00  0.00    +0.000 A 
ATOM     28  C   UNL     1      -0.547  11.027  20.588  0.00  0.00    +0.000 A 
ATOM     29  C   UNL     1       0.288   9.911  20.413  0.00  0.00    +0.000 A 
ATOM     30  C   UNL     1       0.867   9.611  19.167  0.00  0.00    +0.000 A 
ENDBRANCH  20  21
ENDBRANCH   5  20
TORSDOF 7
ENDMDL
MODEL 5
REMARK VINA RESULT:      -8.2      2.541      3.722
REMARK  Name = 
REMARK  8 active torsions:
REMARK  status: ('A' for Active; 'I' for Inactive)
REMARK    1  A    between atoms: C_1  and  O_2
REMARK    2  A    between atoms: O_2  and  C_3
REMARK    3  A    between atoms: C_3  and  C_5
REMARK    4  A    between atoms: C_5  and  C_6
REMARK    5  A    between atoms: C_10  and  O_11
REMARK    6  A    between atoms: O_11  and  C_12
REMARK    7  A    between atoms: C_24  and  C_25
REMARK    8  A    between atoms: N_27  and  O_28
REMARK                            x       y       z     vdW  Elec       q    Type
REMARK                         _______ _______ _______ _____ _____    ______ ____
ROOT
ATOM      1  C   UNL     1       4.902   5.292  17.452  0.00  0.00    +0.000 A 
ATOM      2  C   UNL     1       4.590   3.977  17.062  0.00  0.00    +0.000 A 
ATOM      3  C   UNL     1       3.641   3.223  17.748  0.00  0.00    +0.000 A 
ATOM      4  C   UNL     1       2.931   3.792  18.802  0.00  0.00    +0.000 A 
ATOM      5  C   UNL     1       3.155   5.120  19.160  0.00  0.00    +0.000 A 
ATOM      6  C   UNL     1       4.160   5.846  18.515  0.00  0.00    +0.000 A 
ENDROOT
BRANCH   1   7
ATOM      7  C   UNL     1       6.003   6.096  16.760  0.00  0.00    +0.000 C 
ATOM      8  C   UNL     1       6.521   7.318  17.511  0.00  0.00    +0.000 C 
ATOM      9  C   UNL     1       7.431   6.140  17.336  0.00  0.00    +0.000 C 
BRANCH   9  10
ATOM     10  C   UNL     1       7.820   5.260  18.461  0.00  0.00    +0.000 C 
ATOM     11  O   UNL     1       8.190   4.102  18.299  0.00  0.00    +0.000 OA
ATOM     12  N   UNL     1       7.779   5.867  19.691  0.00  0.00    +0.000 N 
ATOM     13  H   UNL     1       7.669   6.866  19.825  0.00  0.00    +0.000 HD
BRANCH  12  14
ATOM     14  O   UNL     1       8.330   5.133  20.765  0.00  0.00    +0.000 OA
ATOM     15  H   UNL     1       9.271   5.042  20.498  0.00  0.00    +0.000 HD
ENDBRANCH  12  14
ENDBRANCH   9  10
BRANCH   7  16
ATOM     16  C   UNL     1       5.958   6.081  15.265  0.00  0.00    +0.000 C 
ATOM     17  O   UNL     1       5.138   6.742  14.647  0.00  0.00    +0.000 OA
BRANCH  16  19
ATOM     18  C   UNL     1       6.350   4.155  14.009  0.00  0.00    +0.000 C 
ATOM     19  O   UNL     1       6.903   5.266  14.716  0.00  0.00    +0.000 OA
ENDBRANCH  16  19
ENDBRANCH   7  16
ENDBRANCH   1   7
BRANCH   5  20
ATOM     20  O   UNL     1       2.392   5.591  20.205  0.00  0.00    +0.000 OA
BRANCH  20  21
ATOM     21  C   UNL     1       1.905   6.878  20.178  0.00  0.00    +0.000 A 
ATOM     22  C   UNL     1       1.120   7.253  21.266  0.00  0.00    +0.000 A 
ATOM     23  C   UNL     1       0.599   8.545  21.344  0.00  0.00    +0.000 A 
ATOM     24  C   UNL     1       0.861   9.481  20.332  0.00  0.00    +0.000 A 
ATOM     25  C   UNL     1       0.422  10.809  20.439  0.00  0.00    +0.000 A 
ATOM     26  C   UNL     1       0.698  11.734  19.431  0.00  0.00    +0.000 A 
ATOM     27  C   UNL     1       1.378  11.331  18.285  0.00  0.00    +0.000 A 
ATOM     28  C   UNL     1       1.816  10.012  18.161  0.00  0.00    +0.000 A 
ATOM     29  C   UNL     1       1.591   9.081  19.188  0.00  0.00    +0.000 A 
ATOM     30  C   UNL     1       2.091   7.768  19.116  0.00  0.00    +0.000 A 
ENDBRANCH  20  21
ENDBRANCH   5  20
TORSDOF 7
ENDMDL
MODEL 6
REMARK VINA RESULT:      -8.1      2.236      3.266
REMARK  Name = 
REMARK  8 active torsions:
REMARK  status: ('A' for Active; 'I' for Inactive)
REMARK    1  A    between atoms: C_1  and  O_2
REMARK    2  A    between atoms: O_2  and  C_3
REMARK    3  A    between atoms: C_3  and  C_5
REMARK    4  A    between atoms: C_5  and  C_6
REMARK    5  A    between atoms: C_10  and  O_11
REMARK    6  A    between atoms: O_11  and  C_12
REMARK    7  A    between atoms: C_24  and  C_25
REMARK    8  A    between atoms: N_27  and  O_28
REMARK                            x       y       z     vdW  Elec       q    Type
REMARK                         _______ _______ _______ _____ _____    ______ ____
ROOT
ATOM      1  C   UNL     1       4.531   5.589  17.456  0.00  0.00    +0.000 A 
ATOM      2  C   UNL     1       3.836   4.427  17.073  0.00  0.00    +0.000 A 
ATOM      3  C   UNL     1       2.671   4.030  17.725  0.00  0.00    +0.000 A 
ATOM      4  C   UNL     1       2.136   4.824  18.737  0.00  0.00    +0.000 A 
ATOM      5  C   UNL     1       2.752   6.025  19.083  0.00  0.00    +0.000 A 
ATOM      6  C   UNL     1       3.959   6.380  18.474  0.00  0.00    +0.000 A 
ENDROOT
BRANCH   1   7
ATOM      7  C   UNL     1       5.855   5.985  16.804  0.00  0.00    +0.000 C 
ATOM      8  C   UNL     1       6.540   7.227  17.365  0.00  0.00    +0.000 C 
ATOM      9  C   UNL     1       7.180   5.889  17.583  0.00  0.00    +0.000 C 
BRANCH   9  10
ATOM     10  C   UNL     1       7.232   5.237  18.910  0.00  0.00    +0.000 C 
ATOM     11  O   UNL     1       6.599   4.221  19.174  0.00  0.00    +0.000 OA
ATOM     12  N   UNL     1       8.085   5.839  19.801  0.00  0.00    +0.000 N 
ATOM     13  H   UNL     1       8.758   6.553  19.545  0.00  0.00    +0.000 HD
BRANCH  12  14
ATOM     14  O   UNL     1       8.318   5.142  21.008  0.00  0.00    +0.000 OA
ATOM     15  H   UNL     1       8.823   5.798  21.537  0.00  0.00    +0.000 HD
ENDBRANCH  12  14
ENDBRANCH   9  10
BRANCH   7  16
ATOM     16  C   UNL     1       5.982   5.632  15.356  0.00  0.00    +0.000 C 
ATOM     17  O   UNL     1       5.557   6.372  14.481  0.00  0.00    +0.000 OA
BRANCH  16  19
ATOM     18  C   UNL     1       6.210   3.794  13.938  0.00  0.00    +0.000 C 
ATOM     19  O   UNL     1       6.598   4.433  15.156  0.00  0.00    +0.000 OA
ENDBRANCH  16  19
ENDBRANCH   7  16
ENDBRANCH   1   7
BRANCH   5  20
ATOM     20  O   UNL     1       2.136   6.743  20.084  0.00  0.00    +0.000 OA
BRANCH  20  21
ATOM     21  C   UNL     1       1.662   8.009  19.832  0.00  0.00    +0.000 A 
ATOM     22  C   UNL     1       1.863   8.487  18.539  0.00  0.00    +0.000 A 
ATOM     23  C   UNL     1       1.397   9.751  18.177  0.00  0.00    +0.000 A 
ATOM     24  C   UNL     1       0.719  10.554  19.106  0.00  0.00    +0.000 A 
ATOM     25  C   UNL     1       0.164  11.787  18.733  0.00  0.00    +0.000 A 
ATOM     26  C   UNL     1      -0.518  12.572  19.664  0.00  0.00    +0.000 A 
ATOM     27  C   UNL     1      -0.616  12.153  20.987  0.00  0.00    +0.000 A 
ATOM     28  C   UNL     1      -0.064  10.931  21.375  0.00  0.00    +0.000 A 
ATOM     29  C   UNL     1       0.582  10.105  20.441  0.00  0.00    +0.000 A 
ATOM     30  C   UNL     1       1.077   8.837  20.795  0.00  0.00    +0.000 A 
ENDBRANCH  20  21
ENDBRANCH   5  20
TORSDOF 7
ENDMDL
MODEL 7
REMARK VINA RESULT:      -8.1      2.731      4.286
REMARK  Name = 
REMARK  8 active torsions:
REMARK  status: ('A' for Active; 'I' for Inactive)
REMARK    1  A    between atoms: C_1  and  O_2
REMARK    2  A    between atoms: O_2  and  C_3
REMARK    3  A    between atoms: C_3  and  C_5
REMARK    4  A    between atoms: C_5  and  C_6
REMARK    5  A    between atoms: C_10  and  O_11
REMARK    6  A    between atoms: O_11  and  C_12
REMARK    7  A    between atoms: C_24  and  C_25
REMARK    8  A    between atoms: N_27  and  O_28
REMARK                            x       y       z     vdW  Elec       q    Type
REMARK                         _______ _______ _______ _____ _____    ______ ____
ROOT
ATOM      1  C   UNL     1       5.333   5.897  17.742  0.00  0.00    +0.000 A 
ATOM      2  C   UNL     1       4.643   4.833  18.350  0.00  0.00    +0.000 A 
ATOM      3  C   UNL     1       3.300   4.945  18.701  0.00  0.00    +0.000 A 
ATOM      4  C   UNL     1       2.595   6.105  18.390  0.00  0.00    +0.000 A 
ATOM      5  C   UNL     1       3.226   7.146  17.712  0.00  0.00    +0.000 A 
ATOM      6  C   UNL     1       4.592   7.055  17.429  0.00  0.00    +0.000 A 
ENDROOT
BRANCH   1   7
ATOM      7  C   UNL     1       6.827   5.814  17.433  0.00  0.00    +0.000 C 
ATOM      8  C   UNL     1       7.410   4.412  17.286  0.00  0.00    +0.000 C 
ATOM      9  C   UNL     1       7.326   5.290  16.074  0.00  0.00    +0.000 C 
BRANCH   9  10
ATOM     10  C   UNL     1       6.377   5.034  14.968  0.00  0.00    +0.000 C 
ATOM     11  O   UNL     1       5.661   5.909  14.493  0.00  0.00    +0.000 OA
ATOM     12  N   UNL     1       6.404   3.748  14.489  0.00  0.00    +0.000 N 
ATOM     13  H   UNL     1       7.118   3.070  14.730  0.00  0.00    +0.000 HD
BRANCH  12  14
ATOM     14  O   UNL     1       5.664   3.508  13.309  0.00  0.00    +0.000 OA
ATOM     15  H   UNL     1       6.368   3.450  12.626  0.00  0.00    +0.000 HD
ENDBRANCH  12  14
ENDBRANCH   9  10
BRANCH   7  16
ATOM     16  C   UNL     1       7.655   6.929  17.988  0.00  0.00    +0.000 C 
ATOM     17  O   UNL     1       8.274   6.803  19.034  0.00  0.00    +0.000 OA
BRANCH  16  19
ATOM     18  C   UNL     1       8.120   9.213  17.876  0.00  0.00    +0.000 C 
ATOM     19  O   UNL     1       7.622   8.049  17.212  0.00  0.00    +0.000 OA
ENDBRANCH  16  19
ENDBRANCH   7  16
ENDBRANCH   1   7
BRANCH   5  20
ATOM     20  O   UNL     1       2.439   8.243  17.439  0.00  0.00    +0.000 OA
BRANCH  20  21
ATOM     21  C   UNL     1       1.844   8.937  18.468  0.00  0.00    +0.000 A 
ATOM     22  C   UNL     1       1.569  10.280  18.216  0.00  0.00    +0.000 A 
ATOM     23  C   UNL     1       0.944  11.063  19.186  0.00  0.00    +0.000 A 
ATOM     24  C   UNL     1       0.583  10.510  20.424  0.00  0.00    +0.000 A 
ATOM     25  C   UNL     1      -0.127  11.258  21.375  0.00  0.00    +0.000 A 
ATOM     26  C   UNL     1      -0.491  10.694  22.599  0.00  0.00    +0.000 A 
ATOM     27  C   UNL     1      -0.112   9.390  22.902  0.00  0.00    +0.000 A 
ATOM     28  C   UNL     1       0.599   8.634  21.969  0.00  0.00    +0.000 A 
ATOM     29  C   UNL     1       0.930   9.170  20.713  0.00  0.00    +0.000 A 
ATOM     30  C   UNL     1       1.579   8.399  19.731  0.00  0.00    +0.000 A 
ENDBRANCH  20  21
ENDBRANCH   5  20
TORSDOF 7
ENDMDL
MODEL 8
REMARK VINA RESULT:      -8.0      1.895      3.692
REMARK  Name = 
REMARK  8 active torsions:
REMARK  status: ('A' for Active; 'I' for Inactive)
REMARK    1  A    between atoms: C_1  and  O_2
REMARK    2  A    between atoms: O_2  and  C_3
REMARK    3  A    between atoms: C_3  and  C_5
REMARK    4  A    between atoms: C_5  and  C_6
REMARK    5  A    between atoms: C_10  and  O_11
REMARK    6  A    between atoms: O_11  and  C_12
REMARK    7  A    between atoms: C_24  and  C_25
REMARK    8  A    between atoms: N_27  and  O_28
REMARK                            x       y       z     vdW  Elec       q    Type
REMARK                         _______ _______ _______ _____ _____    ______ ____
ROOT
ATOM      1  C   UNL     1       3.579   5.372  18.920  0.00  0.00    +0.000 A 
ATOM      2  C   UNL     1       2.876   5.457  20.136  0.00  0.00    +0.000 A 
ATOM      3  C   UNL     1       2.128   6.584  20.465  0.00  0.00    +0.000 A 
ATOM      4  C   UNL     1       2.010   7.630  19.553  0.00  0.00    +0.000 A 
ATOM      5  C   UNL     1       2.624   7.543  18.306  0.00  0.00    +0.000 A 
ATOM      6  C   UNL     1       3.433   6.441  18.012  0.00  0.00    +0.000 A 
ENDROOT
BRANCH   1   7
ATOM      7  C   UNL     1       4.472   4.177  18.589  0.00  0.00    +0.000 C 
ATOM      8  C   UNL     1       4.366   2.975  19.523  0.00  0.00    +0.000 C 
ATOM      9  C   UNL     1       3.865   2.843  18.117  0.00  0.00    +0.000 C 
BRANCH   9  10
ATOM     10  C   UNL     1       2.425   2.741  17.791  0.00  0.00    +0.000 C 
ATOM     11  O   UNL     1       1.937   3.239  16.782  0.00  0.00    +0.000 OA
ATOM     12  N   UNL     1       1.695   2.001  18.687  0.00  0.00    +0.000 N 
ATOM     13  H   UNL     1       2.108   1.423  19.411  0.00  0.00    +0.000 HD
BRANCH  12  14
ATOM     14  O   UNL     1       0.363   1.710  18.315  0.00  0.00    +0.000 OA
ATOM     15  H   UNL     1      -0.009   1.332  19.143  0.00  0.00    +0.000 HD
ENDBRANCH  12  14
ENDBRANCH   9  10
BRANCH   7  16
ATOM     16  C   UNL     1       5.769   4.516  17.926  0.00  0.00    +0.000 C 
ATOM     17  O   UNL     1       5.834   4.722  16.723  0.00  0.00    +0.000 OA
BRANCH  16  19
ATOM     18  C   UNL     1       7.451   5.832  18.863  0.00  0.00    +0.000 C 
ATOM     19  O   UNL     1       6.815   4.554  18.799  0.00  0.00    +0.000 OA
ENDBRANCH  16  19
ENDBRANCH   7  16
ENDBRANCH   1   7
BRANCH   5  20
ATOM     20  O   UNL     1       2.436   8.623  17.473  0.00  0.00    +0.000 OA
BRANCH  20  21
ATOM     21  C   UNL     1       1.668   9.687  17.887  0.00  0.00    +0.000 A 
ATOM     22  C   UNL     1       0.290   9.476  17.890  0.00  0.00    +0.000 A 
ATOM     23  C   UNL     1      -0.573  10.486  18.317  0.00  0.00    +0.000 A 
ATOM     24  C   UNL     1      -0.067  11.721  18.749  0.00  0.00    +0.000 A 
ATOM     25  C   UNL     1      -0.914  12.712  19.267  0.00  0.00    +0.000 A 
ATOM     26  C   UNL     1      -0.398  13.933  19.705  0.00  0.00    +0.000 A 
ATOM     27  C   UNL     1       0.964  14.192  19.590  0.00  0.00    +0.000 A 
ATOM     28  C   UNL     1       1.820  13.218  19.072  0.00  0.00    +0.000 A 
ATOM     29  C   UNL     1       1.324  11.966  18.673  0.00  0.00    +0.000 A 
ATOM     30  C   UNL     1       2.179  10.945  18.220  0.00  0.00    +0.000 A 
ENDBRANCH  20  21
ENDBRANCH   5  20
TORSDOF 7
ENDMDL
MODEL 9
REMARK VINA RESULT:      -7.9      2.053      3.331
REMARK  Name = 
REMARK  8 active torsions:
REMARK  status: ('A' for Active; 'I' for Inactive)
REMARK    1  A    between atoms: C_1  and  O_2
REMARK    2  A    between atoms: O_2  and  C_3
REMARK    3  A    between atoms: C_3  and  C_5
REMARK    4  A    between atoms: C_5  and  C_6
REMARK    5  A    between atoms: C_10  and  O_11
REMARK    6  A    between atoms: O_11  and  C_12
REMARK    7  A    between atoms: C_24  and  C_25
REMARK    8  A    between atoms: N_27  and  O_28
REMARK                            x       y       z     vdW  Elec       q    Type
REMARK                         _______ _______ _______ _____ _____    ______ ____
ROOT
ATOM      1  C   UNL     1       4.720   5.656  17.202  0.00  0.00    +0.000 A 
ATOM      2  C   UNL     1       3.898   4.719  17.855  0.00  0.00    +0.000 A 
ATOM      3  C   UNL     1       2.679   5.090  18.417  0.00  0.00    +0.000 A 
ATOM      4  C   UNL     1       2.220   6.398  18.282  0.00  0.00    +0.000 A 
ATOM      5  C   UNL     1       2.969   7.331  17.568  0.00  0.00    +0.000 A 
ATOM      6  C   UNL     1       4.224   6.970  17.069  0.00  0.00    +0.000 A 
ENDROOT
BRANCH   1   7
ATOM      7  C   UNL     1       6.096   5.277  16.658  0.00  0.00    +0.000 C 
ATOM      8  C   UNL     1       7.174   6.354  16.736  0.00  0.00    +0.000 C 
ATOM      9  C   UNL     1       7.307   5.135  17.599  0.00  0.00    +0.000 C 
BRANCH   9  10
ATOM     10  C   UNL     1       7.132   5.177  19.068  0.00  0.00    +0.000 C 
ATOM     11  O   UNL     1       6.062   4.929  19.615  0.00  0.00    +0.000 OA
ATOM     12  N   UNL     1       8.278   5.468  19.765  0.00  0.00    +0.000 N 
ATOM     13  H   UNL     1       9.203   5.481  19.351  0.00  0.00    +0.000 HD
BRANCH  12  14
ATOM     14  O   UNL     1       8.206   5.323  21.169  0.00  0.00    +0.000 OA
ATOM     15  H   UNL     1       8.991   4.766  21.364  0.00  0.00    +0.000 HD
ENDBRANCH  12  14
ENDBRANCH   9  10
BRANCH   7  16
ATOM     16  C   UNL     1       6.088   4.287  15.537  0.00  0.00    +0.000 C 
ATOM     17  O   UNL     1       5.781   3.119  15.722  0.00  0.00    +0.000 OA
BRANCH  16  19
ATOM     18  C   UNL     1       6.368   3.920  13.251  0.00  0.00    +0.000 C 
ATOM     19  O   UNL     1       6.455   4.835  14.344  0.00  0.00    +0.000 OA
ENDBRANCH  16  19
ENDBRANCH   7  16
ENDBRANCH   1   7
BRANCH   5  20
ATOM     20  O   UNL     1       2.422   8.591  17.480  0.00  0.00    +0.000 OA
BRANCH  20  21
ATOM     21  C   UNL     1       1.671   9.091  18.519  0.00  0.00    +0.000 A 
ATOM     22  C   UNL     1       0.711  10.041  18.173  0.00  0.00    +0.000 A 
ATOM     23  C   UNL     1      -0.117  10.590  19.152  0.00  0.00    +0.000 A 
ATOM     24  C   UNL     1       0.002  10.192  20.492  0.00  0.00    +0.000 A 
ATOM     25  C   UNL     1      -0.883  10.665  21.472  0.00  0.00    +0.000 A 
ATOM     26  C   UNL     1      -0.762  10.253  22.800  0.00  0.00    +0.000 A 
ATOM     27  C   UNL     1       0.271   9.398  23.171  0.00  0.00    +0.000 A 
ATOM     28  C   UNL     1       1.163   8.922  22.208  0.00  0.00    +0.000 A 
ATOM     29  C   UNL     1       1.025   9.287  20.859  0.00  0.00    +0.000 A 
ATOM     30  C   UNL     1       1.867   8.759  19.863  0.00  0.00    +0.000 A 
ENDBRANCH  20  21
ENDBRANCH   5  20
TORSDOF 7
ENDMDL
