MODEL 1
REMARK VINA RESULT:      -6.8      0.000      0.000
REMARK  Name = 
REMARK  17 active torsions:
REMARK  status: ('A' for Active; 'I' for Inactive)
REMARK    1  A    between atoms: C_1  and  C_2
REMARK    2  A    between atoms: C_2  and  C_3
REMARK    3  A    between atoms: C_3  and  C_4
REMARK    4  A    between atoms: C_4  and  C_5
REMARK    5  A    between atoms: C_5  and  C_6
REMARK    6  A    between atoms: C_6  and  C_7
REMARK    7  A    between atoms: C_7  and  C_8
REMARK    8  A    between atoms: C_8  and  C_9
REMARK    9  A    between atoms: C_9  and  C_10
REMARK   10  A    between atoms: C_10  and  C_11
REMARK   11  A    between atoms: C_11  and  C_12
REMARK   12  A    between atoms: C_12  and  C_13
REMARK   13  A    between atoms: C_13  and  C_14
REMARK   14  A    between atoms: C_14  and  O_16
REMARK   15  A    between atoms: O_16  and  C_17
REMARK   16  A    between atoms: C_17  and  C_18
REMARK   17  A    between atoms: C_17  and  C_24
REMARK                            x       y       z     vdW  Elec       q    Type
REMARK                         _______ _______ _______ _____ _____    ______ ____
ROOT
ATOM      1  C   UNL     1       4.204   3.564  17.280  0.00  0.00    +0.000 C 
ATOM      2  O   UNL     1       4.854   3.361  18.297  0.00  0.00    +0.000 OA
ENDROOT
BRANCH   1   3
ATOM      3  O   UNL     1       4.624   4.281  16.207  0.00  0.00    +0.000 OA
BRANCH   3   4
ATOM      4  C   UNL     1       6.051   4.403  16.065  0.00  0.00    +0.000 C 
BRANCH   4   5
ATOM      5  C   UNL     1       6.366   4.300  14.580  0.00  0.00    +0.000 A 
ATOM      6  C   UNL     1       7.450   4.995  14.016  0.00  0.00    +0.000 A 
ATOM      7  C   UNL     1       7.733   4.890  12.653  0.00  0.00    +0.000 A 
ATOM      8  C   UNL     1       6.931   4.099  11.834  0.00  0.00    +0.000 A 
ATOM      9  C   UNL     1       5.843   3.416  12.374  0.00  0.00    +0.000 A 
ATOM     10  C   UNL     1       5.561   3.516  13.738  0.00  0.00    +0.000 A 
ENDBRANCH   4   5
BRANCH   4  11
ATOM     11  C   UNL     1       6.451   5.706  16.680  0.00  0.00    +0.000 A 
ATOM     12  C   UNL     1       5.906   6.975  16.706  0.00  0.00    +0.000 A 
ATOM     13  N   UNL     1       6.729   7.831  17.391  0.00  0.00    +0.000 NA
ATOM     14  C   UNL     1       7.743   7.070  17.741  0.00  0.00    +0.000 A 
ATOM     15  O   UNL     1       7.651   5.771  17.345  0.00  0.00    +0.000 OA
ENDBRANCH   4  11
ENDBRANCH   3   4
ENDBRANCH   1   3
BRANCH   1  16
ATOM     16  C   UNL     1       2.802   3.049  17.035  0.00  0.00    +0.000 C 
BRANCH  16  17
ATOM     17  C   UNL     1       2.407   2.085  18.147  0.00  0.00    +0.000 C 
BRANCH  17  18
ATOM     18  C   UNL     1       0.994   2.318  18.680  0.00  0.00    +0.000 C 
BRANCH  18  19
ATOM     19  C   UNL     1       1.013   2.909  20.094  0.00  0.00    +0.000 C 
BRANCH  19  20
ATOM     20  C   UNL     1       1.019   4.436  20.071  0.00  0.00    +0.000 C 
BRANCH  20  21
ATOM     21  C   UNL     1       2.108   5.014  20.958  0.00  0.00    +0.000 C 
BRANCH  21  22
ATOM     22  C   UNL     1       3.183   5.655  20.087  0.00  0.00    +0.000 C 
BRANCH  22  23
ATOM     23  C   UNL     1       2.568   6.240  18.827  0.00  0.00    +0.000 C 
BRANCH  23  24
ATOM     24  C   UNL     1       2.168   7.691  19.053  0.00  0.00    +0.000 C 
BRANCH  24  25
ATOM     25  C   UNL     1       2.512   8.532  17.830  0.00  0.00    +0.000 C 
BRANCH  25  26
ATOM     26  C   UNL     1       1.814   9.885  17.897  0.00  0.00    +0.000 C 
BRANCH  26  28
ATOM     27  C   UNL     1      -0.646  10.100  18.316  0.00  0.00    +0.000 C 
ATOM     28  C   UNL     1       0.714   9.879  18.952  0.00  0.00    +0.000 C 
ENDBRANCH  26  28
ENDBRANCH  25  26
ENDBRANCH  24  25
ENDBRANCH  23  24
ENDBRANCH  22  23
ENDBRANCH  21  22
ENDBRANCH  20  21
ENDBRANCH  19  20
ENDBRANCH  18  19
ENDBRANCH  17  18
ENDBRANCH  16  17
ENDBRANCH   1  16
TORSDOF 16
ENDMDL
MODEL 2
REMARK VINA RESULT:      -6.8      4.810      8.398
REMARK  Name = 
REMARK  17 active torsions:
REMARK  status: ('A' for Active; 'I' for Inactive)
REMARK    1  A    between atoms: C_1  and  C_2
REMARK    2  A    between atoms: C_2  and  C_3
REMARK    3  A    between atoms: C_3  and  C_4
REMARK    4  A    between atoms: C_4  and  C_5
REMARK    5  A    between atoms: C_5  and  C_6
REMARK    6  A    between atoms: C_6  and  C_7
REMARK    7  A    between atoms: C_7  and  C_8
REMARK    8  A    between atoms: C_8  and  C_9
REMARK    9  A    between atoms: C_9  and  C_10
REMARK   10  A    between atoms: C_10  and  C_11
REMARK   11  A    between atoms: C_11  and  C_12
REMARK   12  A    between atoms: C_12  and  C_13
REMARK   13  A    between atoms: C_13  and  C_14
REMARK   14  A    between atoms: C_14  and  O_16
REMARK   15  A    between atoms: O_16  and  C_17
REMARK   16  A    between atoms: C_17  and  C_18
REMARK   17  A    between atoms: C_17  and  C_24
REMARK                            x       y       z     vdW  Elec       q    Type
REMARK                         _______ _______ _______ _____ _____    ______ ____
ROOT
ATOM      1  C   UNL     1       7.952   7.654  17.978  0.00  0.00    +0.000 C 
ATOM      2  O   UNL     1       8.444   6.975  18.869  0.00  0.00    +0.000 OA
ENDROOT
BRANCH   1   3
ATOM      3  O   UNL     1       7.189   7.183  16.959  0.00  0.00    +0.000 OA
BRANCH   3   4
ATOM      4  C   UNL     1       6.632   5.871  17.159  0.00  0.00    +0.000 C 
BRANCH   4   5
ATOM      5  C   UNL     1       5.277   6.054  17.825  0.00  0.00    +0.000 A 
ATOM      6  C   UNL     1       4.935   5.342  18.988  0.00  0.00    +0.000 A 
ATOM      7  C   UNL     1       3.690   5.520  19.593  0.00  0.00    +0.000 A 
ATOM      8  C   UNL     1       2.766   6.404  19.040  0.00  0.00    +0.000 A 
ATOM      9  C   UNL     1       3.083   7.106  17.879  0.00  0.00    +0.000 A 
ATOM     10  C   UNL     1       4.329   6.933  17.274  0.00  0.00    +0.000 A 
ENDBRANCH   4   5
BRANCH   4  11
ATOM     11  C   UNL     1       6.565   5.206  15.822  0.00  0.00    +0.000 A 
ATOM     12  C   UNL     1       5.822   4.171  15.289  0.00  0.00    +0.000 A 
ATOM     13  N   UNL     1       6.204   3.930  13.994  0.00  0.00    +0.000 NA
ATOM     14  C   UNL     1       7.166   4.803  13.789  0.00  0.00    +0.000 A 
ATOM     15  O   UNL     1       7.445   5.611  14.848  0.00  0.00    +0.000 OA
ENDBRANCH   4  11
ENDBRANCH   3   4
ENDBRANCH   1   3
BRANCH   1  16
ATOM     16  C   UNL     1       8.111   9.154  17.848  0.00  0.00    +0.000 C 
BRANCH  16  17
ATOM     17  C   UNL     1       8.955   9.684  19.000  0.00  0.00    +0.000 C 
BRANCH  17  18
ATOM     18  C   UNL     1       9.315  11.162  18.862  0.00  0.00    +0.000 C 
BRANCH  18  19
ATOM     19  C   UNL     1      10.233  11.411  17.660  0.00  0.00    +0.000 C 
BRANCH  19  20
ATOM     20  C   UNL     1      11.681  11.639  18.089  0.00  0.00    +0.000 C 
BRANCH  20  21
ATOM     21  C   UNL     1      11.786  12.029  19.552  0.00  0.00    +0.000 C 
BRANCH  21  22
ATOM     22  C   UNL     1      12.326  13.451  19.661  0.00  0.00    +0.000 C 
BRANCH  22  23
ATOM     23  C   UNL     1      11.195  14.460  19.546  0.00  0.00    +0.000 C 
BRANCH  23  24
ATOM     24  C   UNL     1      10.646  14.803  20.924  0.00  0.00    +0.000 C 
BRANCH  24  25
ATOM     25  C   UNL     1       9.123  14.814  20.900  0.00  0.00    +0.000 C 
BRANCH  25  26
ATOM     26  C   UNL     1       8.563  14.079  22.112  0.00  0.00    +0.000 C 
BRANCH  26  28
ATOM     27  C   UNL     1       8.254  11.613  22.423  0.00  0.00    +0.000 C 
ATOM     28  C   UNL     1       9.264  12.740  22.309  0.00  0.00    +0.000 C 
ENDBRANCH  26  28
ENDBRANCH  25  26
ENDBRANCH  24  25
ENDBRANCH  23  24
ENDBRANCH  22  23
ENDBRANCH  21  22
ENDBRANCH  20  21
ENDBRANCH  19  20
ENDBRANCH  18  19
ENDBRANCH  17  18
ENDBRANCH  16  17
ENDBRANCH   1  16
TORSDOF 16
ENDMDL
MODEL 3
REMARK VINA RESULT:      -6.2      4.256      7.546
REMARK  Name = 
REMARK  17 active torsions:
REMARK  status: ('A' for Active; 'I' for Inactive)
REMARK    1  A    between atoms: C_1  and  C_2
REMARK    2  A    between atoms: C_2  and  C_3
REMARK    3  A    between atoms: C_3  and  C_4
REMARK    4  A    between atoms: C_4  and  C_5
REMARK    5  A    between atoms: C_5  and  C_6
REMARK    6  A    between atoms: C_6  and  C_7
REMARK    7  A    between atoms: C_7  and  C_8
REMARK    8  A    between atoms: C_8  and  C_9
REMARK    9  A    between atoms: C_9  and  C_10
REMARK   10  A    between atoms: C_10  and  C_11
REMARK   11  A    between atoms: C_11  and  C_12
REMARK   12  A    between atoms: C_12  and  C_13
REMARK   13  A    between atoms: C_13  and  C_14
REMARK   14  A    between atoms: C_14  and  O_16
REMARK   15  A    between atoms: O_16  and  C_17
REMARK   16  A    between atoms: C_17  and  C_18
REMARK   17  A    between atoms: C_17  and  C_24
REMARK                            x       y       z     vdW  Elec       q    Type
REMARK                         _______ _______ _______ _____ _____    ______ ____
ROOT
ATOM      1  C   UNL     1       7.453   4.843  18.182  0.00  0.00    +0.000 C 
ATOM      2  O   UNL     1       8.218   4.196  17.480  0.00  0.00    +0.000 OA
ENDROOT
BRANCH   1   3
ATOM      3  O   UNL     1       6.246   4.416  18.632  0.00  0.00    +0.000 OA
BRANCH   3   4
ATOM      4  C   UNL     1       5.306   4.034  17.611  0.00  0.00    +0.000 C 
BRANCH   4   5
ATOM      5  C   UNL     1       4.038   3.575  18.315  0.00  0.00    +0.000 A 
ATOM      6  C   UNL     1       3.071   2.805  17.645  0.00  0.00    +0.000 A 
ATOM      7  C   UNL     1       1.913   2.385  18.302  0.00  0.00    +0.000 A 
ATOM      8  C   UNL     1       1.700   2.738  19.632  0.00  0.00    +0.000 A 
ATOM      9  C   UNL     1       2.641   3.514  20.306  0.00  0.00    +0.000 A 
ATOM     10  C   UNL     1       3.802   3.931  19.653  0.00  0.00    +0.000 A 
ENDBRANCH   4   5
BRANCH   4  11
ATOM     11  C   UNL     1       5.109   5.218  16.720  0.00  0.00    +0.000 A 
ATOM     12  C   UNL     1       5.481   5.533  15.427  0.00  0.00    +0.000 A 
ATOM     13  N   UNL     1       5.073   6.803  15.111  0.00  0.00    +0.000 NA
ATOM     14  C   UNL     1       4.487   7.221  16.212  0.00  0.00    +0.000 A 
ATOM     15  O   UNL     1       4.470   6.320  17.232  0.00  0.00    +0.000 OA
ENDBRANCH   4  11
ENDBRANCH   3   4
ENDBRANCH   1   3
BRANCH   1  16
ATOM     16  C   UNL     1       7.717   6.249  18.678  0.00  0.00    +0.000 C 
BRANCH  16  17
ATOM     17  C   UNL     1       7.895   7.187  17.492  0.00  0.00    +0.000 C 
BRANCH  17  18
ATOM     18  C   UNL     1       7.734   8.663  17.853  0.00  0.00    +0.000 C 
BRANCH  18  19
ATOM     19  C   UNL     1       8.842   9.138  18.799  0.00  0.00    +0.000 C 
BRANCH  19  20
ATOM     20  C   UNL     1       9.180  10.612  18.583  0.00  0.00    +0.000 C 
BRANCH  20  21
ATOM     21  C   UNL     1      10.224  11.106  19.569  0.00  0.00    +0.000 C 
BRANCH  21  22
ATOM     22  C   UNL     1       9.527  11.711  20.784  0.00  0.00    +0.000 C 
BRANCH  22  23
ATOM     23  C   UNL     1      10.238  12.979  21.228  0.00  0.00    +0.000 C 
BRANCH  23  24
ATOM     24  C   UNL     1      11.175  13.474  20.135  0.00  0.00    +0.000 C 
BRANCH  24  25
ATOM     25  C   UNL     1      10.875  14.930  19.801  0.00  0.00    +0.000 C 
BRANCH  25  26
ATOM     26  C   UNL     1       9.377  15.202  19.889  0.00  0.00    +0.000 C 
BRANCH  26  28
ATOM     27  C   UNL     1       8.093  14.054  18.071  0.00  0.00    +0.000 C 
ATOM     28  C   UNL     1       8.766  15.345  18.501  0.00  0.00    +0.000 C 
ENDBRANCH  26  28
ENDBRANCH  25  26
ENDBRANCH  24  25
ENDBRANCH  23  24
ENDBRANCH  22  23
ENDBRANCH  21  22
ENDBRANCH  20  21
ENDBRANCH  19  20
ENDBRANCH  18  19
ENDBRANCH  17  18
ENDBRANCH  16  17
ENDBRANCH   1  16
TORSDOF 16
ENDMDL
MODEL 4
REMARK VINA RESULT:      -6.2      0.609      1.213
REMARK  Name = 
REMARK  17 active torsions:
REMARK  status: ('A' for Active; 'I' for Inactive)
REMARK    1  A    between atoms: C_1  and  C_2
REMARK    2  A    between atoms: C_2  and  C_3
REMARK    3  A    between atoms: C_3  and  C_4
REMARK    4  A    between atoms: C_4  and  C_5
REMARK    5  A    between atoms: C_5  and  C_6
REMARK    6  A    between atoms: C_6  and  C_7
REMARK    7  A    between atoms: C_7  and  C_8
REMARK    8  A    between atoms: C_8  and  C_9
REMARK    9  A    between atoms: C_9  and  C_10
REMARK   10  A    between atoms: C_10  and  C_11
REMARK   11  A    between atoms: C_11  and  C_12
REMARK   12  A    between atoms: C_12  and  C_13
REMARK   13  A    between atoms: C_13  and  C_14
REMARK   14  A    between atoms: C_14  and  O_16
REMARK   15  A    between atoms: O_16  and  C_17
REMARK   16  A    between atoms: C_17  and  C_18
REMARK   17  A    between atoms: C_17  and  C_24
REMARK                            x       y       z     vdW  Elec       q    Type
REMARK                         _______ _______ _______ _____ _____    ______ ____
ROOT
ATOM      1  C   UNL     1       4.775   3.390  17.806  0.00  0.00    +0.000 C 
ATOM      2  O   UNL     1       5.216   3.641  18.919  0.00  0.00    +0.000 OA
ENDROOT
BRANCH   1   3
ATOM      3  O   UNL     1       4.969   4.144  16.694  0.00  0.00    +0.000 OA
BRANCH   3   4
ATOM      4  C   UNL     1       6.343   4.413  16.361  0.00  0.00    +0.000 C 
BRANCH   4   5
ATOM      5  C   UNL     1       6.469   4.305  14.849  0.00  0.00    +0.000 A 
ATOM      6  C   UNL     1       5.593   3.499  14.101  0.00  0.00    +0.000 A 
ATOM      7  C   UNL     1       5.715   3.411  12.714  0.00  0.00    +0.000 A 
ATOM      8  C   UNL     1       6.719   4.117  12.056  0.00  0.00    +0.000 A 
ATOM      9  C   UNL     1       7.606   4.907  12.783  0.00  0.00    +0.000 A 
ATOM     10  C   UNL     1       7.483   5.002  14.171  0.00  0.00    +0.000 A 
ENDBRANCH   4   5
BRANCH   4  11
ATOM     11  C   UNL     1       6.676   5.767  16.902  0.00  0.00    +0.000 A 
ATOM     12  C   UNL     1       6.106   7.021  16.797  0.00  0.00    +0.000 A 
ATOM     13  N   UNL     1       6.865   7.945  17.468  0.00  0.00    +0.000 NA
ATOM     14  C   UNL     1       7.867   7.237  17.940  0.00  0.00    +0.000 A 
ATOM     15  O   UNL     1       7.826   5.910  17.638  0.00  0.00    +0.000 OA
ENDBRANCH   4  11
ENDBRANCH   3   4
ENDBRANCH   1   3
BRANCH   1  16
ATOM     16  C   UNL     1       3.923   2.186  17.466  0.00  0.00    +0.000 C 
BRANCH  16  17
ATOM     17  C   UNL     1       2.459   2.495  17.748  0.00  0.00    +0.000 C 
BRANCH  17  18
ATOM     18  C   UNL     1       2.030   2.165  19.177  0.00  0.00    +0.000 C 
BRANCH  18  19
ATOM     19  C   UNL     1       0.693   2.824  19.532  0.00  0.00    +0.000 C 
BRANCH  19  20
ATOM     20  C   UNL     1       0.884   4.227  20.103  0.00  0.00    +0.000 C 
BRANCH  20  21
ATOM     21  C   UNL     1       2.275   4.420  20.683  0.00  0.00    +0.000 C 
BRANCH  21  22
ATOM     22  C   UNL     1       2.815   5.782  20.261  0.00  0.00    +0.000 C 
BRANCH  22  23
ATOM     23  C   UNL     1       2.543   6.029  18.786  0.00  0.00    +0.000 C 
BRANCH  23  24
ATOM     24  C   UNL     1       2.052   7.453  18.567  0.00  0.00    +0.000 C 
BRANCH  24  25
ATOM     25  C   UNL     1       1.892   8.169  19.901  0.00  0.00    +0.000 C 
BRANCH  25  26
ATOM     26  C   UNL     1       0.923   9.339  19.768  0.00  0.00    +0.000 C 
BRANCH  26  28
ATOM     27  C   UNL     1      -0.698  10.242  18.086  0.00  0.00    +0.000 C 
ATOM     28  C   UNL     1       0.703   9.700  18.304  0.00  0.00    +0.000 C 
ENDBRANCH  26  28
ENDBRANCH  25  26
ENDBRANCH  24  25
ENDBRANCH  23  24
ENDBRANCH  22  23
ENDBRANCH  21  22
ENDBRANCH  20  21
ENDBRANCH  19  20
ENDBRANCH  18  19
ENDBRANCH  17  18
ENDBRANCH  16  17
ENDBRANCH   1  16
TORSDOF 16
ENDMDL
MODEL 5
REMARK VINA RESULT:      -6.1      2.966      6.040
REMARK  Name = 
REMARK  17 active torsions:
REMARK  status: ('A' for Active; 'I' for Inactive)
REMARK    1  A    between atoms: C_1  and  C_2
REMARK    2  A    between atoms: C_2  and  C_3
REMARK    3  A    between atoms: C_3  and  C_4
REMARK    4  A    between atoms: C_4  and  C_5
REMARK    5  A    between atoms: C_5  and  C_6
REMARK    6  A    between atoms: C_6  and  C_7
REMARK    7  A    between atoms: C_7  and  C_8
REMARK    8  A    between atoms: C_8  and  C_9
REMARK    9  A    between atoms: C_9  and  C_10
REMARK   10  A    between atoms: C_10  and  C_11
REMARK   11  A    between atoms: C_11  and  C_12
REMARK   12  A    between atoms: C_12  and  C_13
REMARK   13  A    between atoms: C_13  and  C_14
REMARK   14  A    between atoms: C_14  and  O_16
REMARK   15  A    between atoms: O_16  and  C_17
REMARK   16  A    between atoms: C_17  and  C_18
REMARK   17  A    between atoms: C_17  and  C_24
REMARK                            x       y       z     vdW  Elec       q    Type
REMARK                         _______ _______ _______ _____ _____    ______ ____
ROOT
ATOM      1  C   UNL     1       2.570   6.968  19.243  0.00  0.00    +0.000 C 
ATOM      2  O   UNL     1       1.959   6.880  20.300  0.00  0.00    +0.000 OA
ENDROOT
BRANCH   1   3
ATOM      3  O   UNL     1       3.608   6.179  18.867  0.00  0.00    +0.000 OA
BRANCH   3   4
ATOM      4  C   UNL     1       3.353   5.315  17.745  0.00  0.00    +0.000 C 
BRANCH   4   5
ATOM      5  C   UNL     1       4.682   5.085  17.042  0.00  0.00    +0.000 A 
ATOM      6  C   UNL     1       4.807   4.136  16.012  0.00  0.00    +0.000 A 
ATOM      7  C   UNL     1       6.030   3.935  15.370  0.00  0.00    +0.000 A 
ATOM      8  C   UNL     1       7.147   4.673  15.755  0.00  0.00    +0.000 A 
ATOM      9  C   UNL     1       7.045   5.607  16.784  0.00  0.00    +0.000 A 
ATOM     10  C   UNL     1       5.822   5.812  17.425  0.00  0.00    +0.000 A 
ENDBRANCH   4   5
BRANCH   4  11
ATOM     11  C   UNL     1       2.726   4.067  18.277  0.00  0.00    +0.000 A 
ATOM     12  C   UNL     1       3.144   3.051  19.114  0.00  0.00    +0.000 A 
ATOM     13  N   UNL     1       2.163   2.101  19.235  0.00  0.00    +0.000 NA
ATOM     14  C   UNL     1       1.198   2.554  18.466  0.00  0.00    +0.000 A 
ATOM     15  O   UNL     1       1.462   3.739  17.849  0.00  0.00    +0.000 OA
ENDBRANCH   4  11
ENDBRANCH   3   4
ENDBRANCH   1   3
BRANCH   1  16
ATOM     16  C   UNL     1       2.278   7.984  18.159  0.00  0.00    +0.000 C 
BRANCH  16  17
ATOM     17  C   UNL     1       1.479   9.142  18.741  0.00  0.00    +0.000 C 
BRANCH  17  18
ATOM     18  C   UNL     1       1.843  10.498  18.137  0.00  0.00    +0.000 C 
BRANCH  18  19
ATOM     19  C   UNL     1       1.156  11.649  18.878  0.00  0.00    +0.000 C 
BRANCH  19  20
ATOM     20  C   UNL     1      -0.054  11.169  19.677  0.00  0.00    +0.000 C 
BRANCH  20  21
ATOM     21  C   UNL     1      -1.309  11.954  19.336  0.00  0.00    +0.000 C 
BRANCH  21  22
ATOM     22  C   UNL     1      -1.733  11.635  17.907  0.00  0.00    +0.000 C 
BRANCH  22  23
ATOM     23  C   UNL     1      -1.916  10.137  17.728  0.00  0.00    +0.000 C 
BRANCH  23  24
ATOM     24  C   UNL     1      -3.289   9.834  17.145  0.00  0.00    +0.000 C 
BRANCH  24  25
ATOM     25  C   UNL     1      -4.108  11.113  17.027  0.00  0.00    +0.000 C 
BRANCH  25  26
ATOM     26  C   UNL     1      -5.292  11.081  17.986  0.00  0.00    +0.000 C 
BRANCH  26  28
ATOM     27  C   UNL     1      -5.926  12.017  20.221  0.00  0.00    +0.000 C 
ATOM     28  C   UNL     1      -5.314  12.325  18.867  0.00  0.00    +0.000 C 
ENDBRANCH  26  28
ENDBRANCH  25  26
ENDBRANCH  24  25
ENDBRANCH  23  24
ENDBRANCH  22  23
ENDBRANCH  21  22
ENDBRANCH  20  21
ENDBRANCH  19  20
ENDBRANCH  18  19
ENDBRANCH  17  18
ENDBRANCH  16  17
ENDBRANCH   1  16
TORSDOF 16
ENDMDL
MODEL 6
REMARK VINA RESULT:      -6.1      4.896      8.378
REMARK  Name = 
REMARK  17 active torsions:
REMARK  status: ('A' for Active; 'I' for Inactive)
REMARK    1  A    between atoms: C_1  and  C_2
REMARK    2  A    between atoms: C_2  and  C_3
REMARK    3  A    between atoms: C_3  and  C_4
REMARK    4  A    between atoms: C_4  and  C_5
REMARK    5  A    between atoms: C_5  and  C_6
REMARK    6  A    between atoms: C_6  and  C_7
REMARK    7  A    between atoms: C_7  and  C_8
REMARK    8  A    between atoms: C_8  and  C_9
REMARK    9  A    between atoms: C_9  and  C_10
REMARK   10  A    between atoms: C_10  and  C_11
REMARK   11  A    between atoms: C_11  and  C_12
REMARK   12  A    between atoms: C_12  and  C_13
REMARK   13  A    between atoms: C_13  and  C_14
REMARK   14  A    between atoms: C_14  and  O_16
REMARK   15  A    between atoms: O_16  and  C_17
REMARK   16  A    between atoms: C_17  and  C_18
REMARK   17  A    between atoms: C_17  and  C_24
REMARK                            x       y       z     vdW  Elec       q    Type
REMARK                         _______ _______ _______ _____ _____    ______ ____
ROOT
ATOM      1  C   UNL     1       7.429   5.846  19.433  0.00  0.00    +0.000 C 
ATOM      2  O   UNL     1       7.806   5.194  20.398  0.00  0.00    +0.000 OA
ENDROOT
BRANCH   1   3
ATOM      3  O   UNL     1       6.173   5.838  18.920  0.00  0.00    +0.000 OA
BRANCH   3   4
ATOM      4  C   UNL     1       5.706   4.561  18.447  0.00  0.00    +0.000 C 
BRANCH   4   5
ATOM      5  C   UNL     1       4.326   4.336  19.045  0.00  0.00    +0.000 A 
ATOM      6  C   UNL     1       3.492   5.418  19.380  0.00  0.00    +0.000 A 
ATOM      7  C   UNL     1       2.225   5.201  19.924  0.00  0.00    +0.000 A 
ATOM      8  C   UNL     1       1.778   3.901  20.151  0.00  0.00    +0.000 A 
ATOM      9  C   UNL     1       2.597   2.818  19.839  0.00  0.00    +0.000 A 
ATOM     10  C   UNL     1       3.863   3.033  19.291  0.00  0.00    +0.000 A 
ENDBRANCH   4   5
BRANCH   4  11
ATOM     11  C   UNL     1       5.719   4.607  16.953  0.00  0.00    +0.000 A 
ATOM     12  C   UNL     1       4.984   5.281  15.996  0.00  0.00    +0.000 A 
ATOM     13  N   UNL     1       5.388   4.911  14.740  0.00  0.00    +0.000 NA
ATOM     14  C   UNL     1       6.332   4.024  14.967  0.00  0.00    +0.000 A 
ATOM     15  O   UNL     1       6.590   3.784  16.283  0.00  0.00    +0.000 OA
ENDBRANCH   4  11
ENDBRANCH   3   4
ENDBRANCH   1   3
BRANCH   1  16
ATOM     16  C   UNL     1       8.305   6.784  18.630  0.00  0.00    +0.000 C 
BRANCH  16  17
ATOM     17  C   UNL     1       7.432   7.739  17.825  0.00  0.00    +0.000 C 
BRANCH  17  18
ATOM     18  C   UNL     1       8.056   9.122  17.637  0.00  0.00    +0.000 C 
BRANCH  18  19
ATOM     19  C   UNL     1       8.859   9.552  18.868  0.00  0.00    +0.000 C 
BRANCH  19  20
ATOM     20  C   UNL     1       9.319  11.005  18.767  0.00  0.00    +0.000 C 
BRANCH  20  21
ATOM     21  C   UNL     1      10.828  11.133  18.882  0.00  0.00    +0.000 C 
BRANCH  21  22
ATOM     22  C   UNL     1      11.174  11.978  20.104  0.00  0.00    +0.000 C 
BRANCH  22  23
ATOM     23  C   UNL     1      11.419  13.422  19.699  0.00  0.00    +0.000 C 
BRANCH  23  24
ATOM     24  C   UNL     1      12.199  13.484  18.393  0.00  0.00    +0.000 C 
BRANCH  24  25
ATOM     25  C   UNL     1      11.430  14.292  17.355  0.00  0.00    +0.000 C 
BRANCH  25  26
ATOM     26  C   UNL     1      10.854  15.557  17.982  0.00  0.00    +0.000 C 
BRANCH  26  28
ATOM     27  C   UNL     1      11.324  17.950  17.412  0.00  0.00    +0.000 C 
ATOM     28  C   UNL     1      11.891  16.674  18.006  0.00  0.00    +0.000 C 
ENDBRANCH  26  28
ENDBRANCH  25  26
ENDBRANCH  24  25
ENDBRANCH  23  24
ENDBRANCH  22  23
ENDBRANCH  21  22
ENDBRANCH  20  21
ENDBRANCH  19  20
ENDBRANCH  18  19
ENDBRANCH  17  18
ENDBRANCH  16  17
ENDBRANCH   1  16
TORSDOF 16
ENDMDL
MODEL 7
REMARK VINA RESULT:      -6.1      1.816      4.079
REMARK  Name = 
REMARK  17 active torsions:
REMARK  status: ('A' for Active; 'I' for Inactive)
REMARK    1  A    between atoms: C_1  and  C_2
REMARK    2  A    between atoms: C_2  and  C_3
REMARK    3  A    between atoms: C_3  and  C_4
REMARK    4  A    between atoms: C_4  and  C_5
REMARK    5  A    between atoms: C_5  and  C_6
REMARK    6  A    between atoms: C_6  and  C_7
REMARK    7  A    between atoms: C_7  and  C_8
REMARK    8  A    between atoms: C_8  and  C_9
REMARK    9  A    between atoms: C_9  and  C_10
REMARK   10  A    between atoms: C_10  and  C_11
REMARK   11  A    between atoms: C_11  and  C_12
REMARK   12  A    between atoms: C_12  and  C_13
REMARK   13  A    between atoms: C_13  and  C_14
REMARK   14  A    between atoms: C_14  and  O_16
REMARK   15  A    between atoms: O_16  and  C_17
REMARK   16  A    between atoms: C_17  and  C_18
REMARK   17  A    between atoms: C_17  and  C_24
REMARK                            x       y       z     vdW  Elec       q    Type
REMARK                         _______ _______ _______ _____ _____    ______ ____
ROOT
ATOM      1  C   UNL     1       3.802   3.154  17.452  0.00  0.00    +0.000 C 
ATOM      2  O   UNL     1       3.456   1.995  17.640  0.00  0.00    +0.000 OA
ENDROOT
BRANCH   1   3
ATOM      3  O   UNL     1       5.081   3.576  17.282  0.00  0.00    +0.000 OA
BRANCH   3   4
ATOM      4  C   UNL     1       5.235   4.792  16.528  0.00  0.00    +0.000 C 
BRANCH   4   5
ATOM      5  C   UNL     1       6.243   5.657  17.270  0.00  0.00    +0.000 A 
ATOM      6  C   UNL     1       6.475   6.991  16.892  0.00  0.00    +0.000 A 
ATOM      7  C   UNL     1       7.399   7.778  17.582  0.00  0.00    +0.000 A 
ATOM      8  C   UNL     1       8.111   7.240  18.652  0.00  0.00    +0.000 A 
ATOM      9  C   UNL     1       7.905   5.915  19.029  0.00  0.00    +0.000 A 
ATOM     10  C   UNL     1       6.978   5.127  18.343  0.00  0.00    +0.000 A 
ENDBRANCH   4   5
BRANCH   4  11
ATOM     11  C   UNL     1       5.666   4.410  15.148  0.00  0.00    +0.000 A 
ATOM     12  C   UNL     1       6.872   4.402  14.475  0.00  0.00    +0.000 A 
ATOM     13  N   UNL     1       6.689   3.992  13.179  0.00  0.00    +0.000 NA
ATOM     14  C   UNL     1       5.394   3.782  13.101  0.00  0.00    +0.000 A 
ATOM     15  O   UNL     1       4.703   4.015  14.252  0.00  0.00    +0.000 OA
ENDBRANCH   4  11
ENDBRANCH   3   4
ENDBRANCH   1   3
BRANCH   1  16
ATOM     16  C   UNL     1       2.858   4.335  17.376  0.00  0.00    +0.000 C 
BRANCH  16  17
ATOM     17  C   UNL     1       2.099   4.472  18.690  0.00  0.00    +0.000 C 
BRANCH  17  18
ATOM     18  C   UNL     1       2.852   5.278  19.747  0.00  0.00    +0.000 C 
BRANCH  18  19
ATOM     19  C   UNL     1       1.916   6.217  20.515  0.00  0.00    +0.000 C 
BRANCH  19  20
ATOM     20  C   UNL     1       2.007   7.653  20.003  0.00  0.00    +0.000 C 
BRANCH  20  21
ATOM     21  C   UNL     1       2.643   7.728  18.626  0.00  0.00    +0.000 C 
BRANCH  21  22
ATOM     22  C   UNL     1       1.830   8.668  17.743  0.00  0.00    +0.000 C 
BRANCH  22  23
ATOM     23  C   UNL     1       1.449   9.923  18.511  0.00  0.00    +0.000 C 
BRANCH  23  24
ATOM     24  C   UNL     1      -0.026  10.241  18.313  0.00  0.00    +0.000 C 
BRANCH  24  25
ATOM     25  C   UNL     1      -0.781  10.091  19.627  0.00  0.00    +0.000 C 
BRANCH  25  26
ATOM     26  C   UNL     1      -0.367  11.181  20.609  0.00  0.00    +0.000 C 
BRANCH  26  28
ATOM     27  C   UNL     1      -0.505   9.170  22.096  0.00  0.00    +0.000 C 
ATOM     28  C   UNL     1       0.035  10.581  21.951  0.00  0.00    +0.000 C 
ENDBRANCH  26  28
ENDBRANCH  25  26
ENDBRANCH  24  25
ENDBRANCH  23  24
ENDBRANCH  22  23
ENDBRANCH  21  22
ENDBRANCH  20  21
ENDBRANCH  19  20
ENDBRANCH  18  19
ENDBRANCH  17  18
ENDBRANCH  16  17
ENDBRANCH   1  16
TORSDOF 16
ENDMDL
MODEL 8
REMARK VINA RESULT:      -6.1      3.871      8.637
REMARK  Name = 
REMARK  17 active torsions:
REMARK  status: ('A' for Active; 'I' for Inactive)
REMARK    1  A    between atoms: C_1  and  C_2
REMARK    2  A    between atoms: C_2  and  C_3
REMARK    3  A    between atoms: C_3  and  C_4
REMARK    4  A    between atoms: C_4  and  C_5
REMARK    5  A    between atoms: C_5  and  C_6
REMARK    6  A    between atoms: C_6  and  C_7
REMARK    7  A    between atoms: C_7  and  C_8
REMARK    8  A    between atoms: C_8  and  C_9
REMARK    9  A    between atoms: C_9  and  C_10
REMARK   10  A    between atoms: C_10  and  C_11
REMARK   11  A    between atoms: C_11  and  C_12
REMARK   12  A    between atoms: C_12  and  C_13
REMARK   13  A    between atoms: C_13  and  C_14
REMARK   14  A    between atoms: C_14  and  O_16
REMARK   15  A    between atoms: O_16  and  C_17
REMARK   16  A    between atoms: C_17  and  C_18
REMARK   17  A    between atoms: C_17  and  C_24
REMARK                            x       y       z     vdW  Elec       q    Type
REMARK                         _______ _______ _______ _____ _____    ______ ____
ROOT
ATOM      1  C   UNL     1       1.898  10.151  18.342  0.00  0.00    +0.000 C 
ATOM      2  O   UNL     1       2.302  11.201  17.860  0.00  0.00    +0.000 OA
ENDROOT
BRANCH   1   3
ATOM      3  O   UNL     1       0.993  10.043  19.348  0.00  0.00    +0.000 OA
BRANCH   3   4
ATOM      4  C   UNL     1       0.098  11.161  19.497  0.00  0.00    +0.000 C 
BRANCH   4   5
ATOM      5  C   UNL     1      -1.085  10.916  18.573  0.00  0.00    +0.000 A 
ATOM      6  C   UNL     1      -1.804   9.709  18.615  0.00  0.00    +0.000 A 
ATOM      7  C   UNL     1      -2.891   9.496  17.765  0.00  0.00    +0.000 A 
ATOM      8  C   UNL     1      -3.268  10.482  16.856  0.00  0.00    +0.000 A 
ATOM      9  C   UNL     1      -2.557  11.678  16.790  0.00  0.00    +0.000 A 
ATOM     10  C   UNL     1      -1.471  11.895  17.641  0.00  0.00    +0.000 A 
ENDBRANCH   4   5
BRANCH   4  11
ATOM     11  C   UNL     1      -0.271  11.247  20.943  0.00  0.00    +0.000 A 
ATOM     12  C   UNL     1      -0.001  10.483  22.061  0.00  0.00    +0.000 A 
ATOM     13  N   UNL     1      -0.644  10.999  23.156  0.00  0.00    +0.000 NA
ATOM     14  C   UNL     1      -1.290  12.038  22.673  0.00  0.00    +0.000 A 
ATOM     15  O   UNL     1      -1.117  12.254  21.340  0.00  0.00    +0.000 OA
ENDBRANCH   4  11
ENDBRANCH   3   4
ENDBRANCH   1   3
BRANCH   1  16
ATOM     16  C   UNL     1       2.341   8.772  17.902  0.00  0.00    +0.000 C 
BRANCH  16  17
ATOM     17  C   UNL     1       2.040   7.760  19.000  0.00  0.00    +0.000 C 
BRANCH  17  18
ATOM     18  C   UNL     1       2.987   6.560  18.998  0.00  0.00    +0.000 C 
BRANCH  18  19
ATOM     19  C   UNL     1       3.668   6.380  17.638  0.00  0.00    +0.000 C 
BRANCH  19  20
ATOM     20  C   UNL     1       5.143   6.010  17.786  0.00  0.00    +0.000 C 
BRANCH  20  21
ATOM     21  C   UNL     1       5.436   4.617  17.255  0.00  0.00    +0.000 C 
BRANCH  21  22
ATOM     22  C   UNL     1       4.123   3.909  16.938  0.00  0.00    +0.000 C 
BRANCH  22  23
ATOM     23  C   UNL     1       3.842   2.824  17.965  0.00  0.00    +0.000 C 
BRANCH  23  24
ATOM     24  C   UNL     1       2.489   2.179  17.701  0.00  0.00    +0.000 C 
BRANCH  24  25
ATOM     25  C   UNL     1       1.673   2.118  18.986  0.00  0.00    +0.000 C 
BRANCH  25  26
ATOM     26  C   UNL     1       0.996   3.457  19.254  0.00  0.00    +0.000 C 
BRANCH  26  28
ATOM     27  C   UNL     1       1.710   2.713  21.537  0.00  0.00    +0.000 C 
ATOM     28  C   UNL     1       1.143   3.858  20.717  0.00  0.00    +0.000 C 
ENDBRANCH  26  28
ENDBRANCH  25  26
ENDBRANCH  24  25
ENDBRANCH  23  24
ENDBRANCH  22  23
ENDBRANCH  21  22
ENDBRANCH  20  21
ENDBRANCH  19  20
ENDBRANCH  18  19
ENDBRANCH  17  18
ENDBRANCH  16  17
ENDBRANCH   1  16
TORSDOF 16
ENDMDL
MODEL 9
REMARK VINA RESULT:      -6.1      2.639      4.967
REMARK  Name = 
REMARK  17 active torsions:
REMARK  status: ('A' for Active; 'I' for Inactive)
REMARK    1  A    between atoms: C_1  and  C_2
REMARK    2  A    between atoms: C_2  and  C_3
REMARK    3  A    between atoms: C_3  and  C_4
REMARK    4  A    between atoms: C_4  and  C_5
REMARK    5  A    between atoms: C_5  and  C_6
REMARK    6  A    between atoms: C_6  and  C_7
REMARK    7  A    between atoms: C_7  and  C_8
REMARK    8  A    between atoms: C_8  and  C_9
REMARK    9  A    between atoms: C_9  and  C_10
REMARK   10  A    between atoms: C_10  and  C_11
REMARK   11  A    between atoms: C_11  and  C_12
REMARK   12  A    between atoms: C_12  and  C_13
REMARK   13  A    between atoms: C_13  and  C_14
REMARK   14  A    between atoms: C_14  and  O_16
REMARK   15  A    between atoms: O_16  and  C_17
REMARK   16  A    between atoms: C_17  and  C_18
REMARK   17  A    between atoms: C_17  and  C_24
REMARK                            x       y       z     vdW  Elec       q    Type
REMARK                         _______ _______ _______ _____ _____    ______ ____
ROOT
ATOM      1  C   UNL     1       1.847   4.766  17.934  0.00  0.00    +0.000 C 
ATOM      2  O   UNL     1       0.950   4.186  17.335  0.00  0.00    +0.000 OA
ENDROOT
BRANCH   1   3
ATOM      3  O   UNL     1       3.099   4.983  17.457  0.00  0.00    +0.000 OA
BRANCH   3   4
ATOM      4  C   UNL     1       3.804   3.809  17.014  0.00  0.00    +0.000 C 
BRANCH   4   5
ATOM      5  C   UNL     1       5.055   4.282  16.290  0.00  0.00    +0.000 A 
ATOM      6  C   UNL     1       5.932   5.209  16.880  0.00  0.00    +0.000 A 
ATOM      7  C   UNL     1       7.080   5.633  16.208  0.00  0.00    +0.000 A 
ATOM      8  C   UNL     1       7.362   5.146  14.934  0.00  0.00    +0.000 A 
ATOM      9  C   UNL     1       6.495   4.239  14.328  0.00  0.00    +0.000 A 
ATOM     10  C   UNL     1       5.349   3.809  15.000  0.00  0.00    +0.000 A 
ENDBRANCH   4   5
BRANCH   4  11
ATOM     11  C   UNL     1       4.084   2.975  18.223  0.00  0.00    +0.000 A 
ATOM     12  C   UNL     1       4.685   3.207  19.445  0.00  0.00    +0.000 A 
ATOM     13  N   UNL     1       4.722   2.052  20.183  0.00  0.00    +0.000 NA
ATOM     14  C   UNL     1       4.165   1.162  19.391  0.00  0.00    +0.000 A 
ATOM     15  O   UNL     1       3.754   1.642  18.185  0.00  0.00    +0.000 OA
ENDBRANCH   4  11
ENDBRANCH   3   4
ENDBRANCH   1   3
BRANCH   1  16
ATOM     16  C   UNL     1       1.720   5.347  19.326  0.00  0.00    +0.000 C 
BRANCH  16  17
ATOM     17  C   UNL     1       2.689   6.510  19.487  0.00  0.00    +0.000 C 
BRANCH  17  18
ATOM     18  C   UNL     1       2.007   7.877  19.481  0.00  0.00    +0.000 C 
BRANCH  18  19
ATOM     19  C   UNL     1       2.090   8.544  18.104  0.00  0.00    +0.000 C 
BRANCH  19  20
ATOM     20  C   UNL     1       1.001   9.599  17.917  0.00  0.00    +0.000 C 
BRANCH  20  21
ATOM     21  C   UNL     1       0.256   9.883  19.209  0.00  0.00    +0.000 C 
BRANCH  21  22
ATOM     22  C   UNL     1      -1.175  10.300  18.889  0.00  0.00    +0.000 C 
BRANCH  22  23
ATOM     23  C   UNL     1      -1.504   9.997  17.436  0.00  0.00    +0.000 C 
BRANCH  23  24
ATOM     24  C   UNL     1      -2.313  11.134  16.825  0.00  0.00    +0.000 C 
BRANCH  24  25
ATOM     25  C   UNL     1      -3.630  10.607  16.270  0.00  0.00    +0.000 C 
BRANCH  25  26
ATOM     26  C   UNL     1      -4.801  11.427  16.800  0.00  0.00    +0.000 C 
BRANCH  26  28
ATOM     27  C   UNL     1      -6.708  11.170  18.403  0.00  0.00    +0.000 C 
ATOM     28  C   UNL     1      -5.224  10.941  18.182  0.00  0.00    +0.000 C 
ENDBRANCH  26  28
ENDBRANCH  25  26
ENDBRANCH  24  25
ENDBRANCH  23  24
ENDBRANCH  22  23
ENDBRANCH  21  22
ENDBRANCH  20  21
ENDBRANCH  19  20
ENDBRANCH  18  19
ENDBRANCH  17  18
ENDBRANCH  16  17
ENDBRANCH   1  16
TORSDOF 16
ENDMDL
