MODEL 1
REMARK VINA RESULT:      -7.2      0.000      0.000
REMARK  Name = 
REMARK  4 active torsions:
REMARK  status: ('A' for Active; 'I' for Inactive)
REMARK    1  A    between atoms: C_2  and  C_4
REMARK    2  A    between atoms: C_5  and  C_6
REMARK    3  A    between atoms: C_7  and  C_8
REMARK    4  A    between atoms: C_15  and  C_16
REMARK                            x       y       z     vdW  Elec       q    Type
REMARK                         _______ _______ _______ _____ _____    ______ ____
ROOT
ATOM      1  C   UNL     1       4.233   3.332  18.492  0.00  0.00    +0.000 C 
ATOM      2  C   UNL     1       3.888   2.592  19.581  0.00  0.00    +0.000 C 
ATOM      3  N   UNL     1       2.524   2.454  20.026  0.00  0.00    +0.000 N 
ATOM      4  C   UNL     1       2.233   3.075  21.239  0.00  0.00    +0.000 C 
ATOM      5  O   UNL     1       1.837   2.723  22.331  0.00  0.00    +0.000 OA
ATOM      6  C   UNL     1       2.011   4.335  20.480  0.00  0.00    +0.000 C 
ATOM      7  C   UNL     1       2.329   5.597  20.764  0.00  0.00    +0.000 C 
ATOM      8  C   UNL     1       1.480   3.359  19.443  0.00  0.00    +0.000 C 
ATOM      9  S   UNL     1       1.651   3.419  17.701  0.00  0.00    +0.000 S 
ATOM     10  O   UNL     1       1.493   2.099  17.117  0.00  0.00    +0.000 OA
ATOM     11  O   UNL     1       0.821   4.497  17.176  0.00  0.00    +0.000 OA
ATOM     12  C   UNL     1       3.302   3.918  17.467  0.00  0.00    +0.000 C 
ENDROOT
BRANCH   7  13
ATOM     13  C   UNL     1       2.221   6.783  19.922  0.00  0.00    +0.000 A 
ATOM     14  C   UNL     1       2.837   6.842  18.678  0.00  0.00    +0.000 A 
ATOM     15  C   UNL     1       2.702   7.994  17.913  0.00  0.00    +0.000 A 
ATOM     16  C   UNL     1       1.916   9.032  18.390  0.00  0.00    +0.000 A 
ATOM     17  C   UNL     1       1.317   8.882  19.633  0.00  0.00    +0.000 A 
ATOM     18  N   UNL     1       1.467   7.798  20.433  0.00  0.00    +0.000 NA
ENDBRANCH   7  13
BRANCH   2  19
ATOM     19  C   UNL     1       5.014   2.011  20.595  0.00  0.00    +0.000 C 
ATOM     20  O   UNL     1       5.369   0.814  20.427  0.00  0.00    +0.000 OA
ATOM     21  O   UNL     1       5.482   2.866  21.396  0.00  0.00    +0.000 OA
ENDBRANCH   2  19
BRANCH   1  23
ATOM     22  C   UNL     1       5.941   4.261  17.038  0.00  0.00    +0.000 C 
ATOM     23  C   UNL     1       5.591   3.837  18.257  0.00  0.00    +0.000 C 
BRANCH  22  25
ATOM     24  O   UNL     1       8.243   4.255  17.226  0.00  0.00    +0.000 OA
ATOM     25  C   UNL     1       7.257   4.847  16.676  0.00  0.00    +0.000 C 
ATOM     26  O   UNL     1       7.327   5.943  16.069  0.00  0.00    +0.000 OA
ENDBRANCH  22  25
ENDBRANCH   1  23
TORSDOF 4
ENDMDL
MODEL 2
REMARK VINA RESULT:      -6.9      0.541      1.135
REMARK  Name = 
REMARK  4 active torsions:
REMARK  status: ('A' for Active; 'I' for Inactive)
REMARK    1  A    between atoms: C_2  and  C_4
REMARK    2  A    between atoms: C_5  and  C_6
REMARK    3  A    between atoms: C_7  and  C_8
REMARK    4  A    between atoms: C_15  and  C_16
REMARK                            x       y       z     vdW  Elec       q    Type
REMARK                         _______ _______ _______ _____ _____    ______ ____
ROOT
ATOM      1  C   UNL     1       4.211   3.349  18.498  0.00  0.00    +0.000 C 
ATOM      2  C   UNL     1       3.867   2.575  19.563  0.00  0.00    +0.000 C 
ATOM      3  N   UNL     1       2.500   2.406  19.989  0.00  0.00    +0.000 N 
ATOM      4  C   UNL     1       2.188   2.990  21.216  0.00  0.00    +0.000 C 
ATOM      5  O   UNL     1       1.786   2.602  22.294  0.00  0.00    +0.000 OA
ATOM      6  C   UNL     1       1.955   4.266  20.489  0.00  0.00    +0.000 C 
ATOM      7  C   UNL     1       2.252   5.524  20.811  0.00  0.00    +0.000 C 
ATOM      8  C   UNL     1       1.448   3.311  19.420  0.00  0.00    +0.000 C 
ATOM      9  S   UNL     1       1.636   3.421  17.683  0.00  0.00    +0.000 S 
ATOM     10  O   UNL     1       1.504   2.115  17.062  0.00  0.00    +0.000 OA
ATOM     11  O   UNL     1       0.796   4.500  17.178  0.00  0.00    +0.000 OA
ATOM     12  C   UNL     1       3.282   3.949  17.480  0.00  0.00    +0.000 C 
ENDROOT
BRANCH   7  13
ATOM     13  C   UNL     1       2.136   6.731  19.999  0.00  0.00    +0.000 A 
ATOM     14  C   UNL     1       1.416   7.832  20.443  0.00  0.00    +0.000 A 
ATOM     15  C   UNL     1       1.338   8.959  19.634  0.00  0.00    +0.000 A 
ATOM     16  C   UNL     1       2.022   8.970  18.428  0.00  0.00    +0.000 A 
ATOM     17  C   UNL     1       2.738   7.836  18.069  0.00  0.00    +0.000 A 
ATOM     18  N   UNL     1       2.794   6.698  18.805  0.00  0.00    +0.000 NA
ENDBRANCH   7  13
BRANCH   2  19
ATOM     19  C   UNL     1       4.990   1.983  20.573  0.00  0.00    +0.000 C 
ATOM     20  O   UNL     1       5.383   2.745  21.496  0.00  0.00    +0.000 OA
ATOM     21  O   UNL     1       5.282   0.773  20.373  0.00  0.00    +0.000 OA
ENDBRANCH   2  19
BRANCH   1  23
ATOM     22  C   UNL     1       5.957   4.239  17.064  0.00  0.00    +0.000 C 
ATOM     23  C   UNL     1       5.564   3.879  18.291  0.00  0.00    +0.000 C 
BRANCH  22  25
ATOM     24  O   UNL     1       8.259   4.236  17.257  0.00  0.00    +0.000 OA
ATOM     25  C   UNL     1       7.271   4.842  16.724  0.00  0.00    +0.000 C 
ATOM     26  O   UNL     1       7.338   5.957  16.152  0.00  0.00    +0.000 OA
ENDBRANCH  22  25
ENDBRANCH   1  23
TORSDOF 4
ENDMDL
MODEL 3
REMARK VINA RESULT:      -6.8      6.543      9.900
REMARK  Name = 
REMARK  4 active torsions:
REMARK  status: ('A' for Active; 'I' for Inactive)
REMARK    1  A    between atoms: C_2  and  C_4
REMARK    2  A    between atoms: C_5  and  C_6
REMARK    3  A    between atoms: C_7  and  C_8
REMARK    4  A    between atoms: C_15  and  C_16
REMARK                            x       y       z     vdW  Elec       q    Type
REMARK                         _______ _______ _______ _____ _____    ______ ____
ROOT
ATOM      1  C   UNL     1      -0.823  11.789  21.474  0.00  0.00    +0.000 C 
ATOM      2  C   UNL     1       0.181  10.871  21.430  0.00  0.00    +0.000 C 
ATOM      3  N   UNL     1       1.047  10.723  20.288  0.00  0.00    +0.000 N 
ATOM      4  C   UNL     1       0.888   9.535  19.576  0.00  0.00    +0.000 C 
ATOM      5  O   UNL     1       1.587   8.586  19.289  0.00  0.00    +0.000 OA
ATOM      6  C   UNL     1      -0.219  10.193  18.831  0.00  0.00    +0.000 C 
ATOM      7  C   UNL     1      -1.396   9.725  18.419  0.00  0.00    +0.000 C 
ATOM      8  C   UNL     1       0.677  11.408  19.006  0.00  0.00    +0.000 C 
ATOM      9  S   UNL     1       0.215  13.066  19.330  0.00  0.00    +0.000 S 
ATOM     10  O   UNL     1       1.308  13.799  19.945  0.00  0.00    +0.000 OA
ATOM     11  O   UNL     1      -0.396  13.635  18.135  0.00  0.00    +0.000 OA
ATOM     12  C   UNL     1      -1.060  12.915  20.505  0.00  0.00    +0.000 C 
ENDROOT
BRANCH   7  13
ATOM     13  C   UNL     1      -2.513  10.449  17.820  0.00  0.00    +0.000 A 
ATOM     14  C   UNL     1      -2.783  10.360  16.461  0.00  0.00    +0.000 A 
ATOM     15  C   UNL     1      -3.861  11.067  15.941  0.00  0.00    +0.000 A 
ATOM     16  C   UNL     1      -4.664  11.800  16.800  0.00  0.00    +0.000 A 
ATOM     17  C   UNL     1      -4.337  11.817  18.149  0.00  0.00    +0.000 A 
ATOM     18  N   UNL     1      -3.265  11.186  18.688  0.00  0.00    +0.000 NA
ENDBRANCH   7  13
BRANCH   2  19
ATOM     19  C   UNL     1       0.316   9.717  22.562  0.00  0.00    +0.000 C 
ATOM     20  O   UNL     1      -0.645   8.910  22.669  0.00  0.00    +0.000 OA
ATOM     21  O   UNL     1       1.428   9.701  23.156  0.00  0.00    +0.000 OA
ENDBRANCH   2  19
BRANCH   1  23
ATOM     22  C   UNL     1      -2.874  12.674  22.426  0.00  0.00    +0.000 C 
ATOM     23  C   UNL     1      -1.961  11.698  22.397  0.00  0.00    +0.000 C 
BRANCH  22  25
ATOM     24  O   UNL     1      -4.897  13.636  22.987  0.00  0.00    +0.000 OA
ATOM     25  C   UNL     1      -4.100  12.681  23.265  0.00  0.00    +0.000 C 
ATOM     26  O   UNL     1      -4.192  11.940  24.274  0.00  0.00    +0.000 OA
ENDBRANCH  22  25
ENDBRANCH   1  23
TORSDOF 4
ENDMDL
MODEL 4
REMARK VINA RESULT:      -6.7      6.555      9.920
REMARK  Name = 
REMARK  4 active torsions:
REMARK  status: ('A' for Active; 'I' for Inactive)
REMARK    1  A    between atoms: C_2  and  C_4
REMARK    2  A    between atoms: C_5  and  C_6
REMARK    3  A    between atoms: C_7  and  C_8
REMARK    4  A    between atoms: C_15  and  C_16
REMARK                            x       y       z     vdW  Elec       q    Type
REMARK                         _______ _______ _______ _____ _____    ______ ____
ROOT
ATOM      1  C   UNL     1      -0.852  11.812  21.447  0.00  0.00    +0.000 C 
ATOM      2  C   UNL     1       0.154  10.896  21.413  0.00  0.00    +0.000 C 
ATOM      3  N   UNL     1       1.019  10.735  20.271  0.00  0.00    +0.000 N 
ATOM      4  C   UNL     1       0.860   9.538  19.574  0.00  0.00    +0.000 C 
ATOM      5  O   UNL     1       1.560   8.587  19.297  0.00  0.00    +0.000 OA
ATOM      6  C   UNL     1      -0.250  10.184  18.824  0.00  0.00    +0.000 C 
ATOM      7  C   UNL     1      -1.427   9.710  18.420  0.00  0.00    +0.000 C 
ATOM      8  C   UNL     1       0.644  11.404  18.982  0.00  0.00    +0.000 C 
ATOM      9  S   UNL     1       0.180  13.064  19.286  0.00  0.00    +0.000 S 
ATOM     10  O   UNL     1       1.272  13.807  19.890  0.00  0.00    +0.000 OA
ATOM     11  O   UNL     1      -0.435  13.617  18.086  0.00  0.00    +0.000 OA
ATOM     12  C   UNL     1      -1.093  12.925  20.466  0.00  0.00    +0.000 C 
ENDROOT
BRANCH   7  13
ATOM     13  C   UNL     1      -2.546  10.423  17.814  0.00  0.00    +0.000 A 
ATOM     14  C   UNL     1      -3.416  11.185  18.583  0.00  0.00    +0.000 A 
ATOM     15  C   UNL     1      -4.464  11.848  17.958  0.00  0.00    +0.000 A 
ATOM     16  C   UNL     1      -4.584  11.770  16.579  0.00  0.00    +0.000 A 
ATOM     17  C   UNL     1      -3.659  11.005  15.883  0.00  0.00    +0.000 A 
ATOM     18  N   UNL     1      -2.654  10.300  16.460  0.00  0.00    +0.000 NA
ENDBRANCH   7  13
BRANCH   2  19
ATOM     19  C   UNL     1       0.294   9.755  22.559  0.00  0.00    +0.000 C 
ATOM     20  O   UNL     1      -0.662   8.943  22.673  0.00  0.00    +0.000 OA
ATOM     21  O   UNL     1       1.404   9.754  23.156  0.00  0.00    +0.000 OA
ENDBRANCH   2  19
BRANCH   1  23
ATOM     22  C   UNL     1      -2.956  12.650  22.323  0.00  0.00    +0.000 C 
ATOM     23  C   UNL     1      -1.987  11.729  22.374  0.00  0.00    +0.000 C 
BRANCH  22  25
ATOM     24  O   UNL     1      -4.085  11.935  24.206  0.00  0.00    +0.000 OA
ATOM     25  C   UNL     1      -4.184  12.654  23.158  0.00  0.00    +0.000 C 
ATOM     26  O   UNL     1      -5.254  13.147  22.725  0.00  0.00    +0.000 OA
ENDBRANCH  22  25
ENDBRANCH   1  23
TORSDOF 4
ENDMDL
MODEL 5
REMARK VINA RESULT:      -6.4      7.633     10.837
REMARK  Name = 
REMARK  4 active torsions:
REMARK  status: ('A' for Active; 'I' for Inactive)
REMARK    1  A    between atoms: C_2  and  C_4
REMARK    2  A    between atoms: C_5  and  C_6
REMARK    3  A    between atoms: C_7  and  C_8
REMARK    4  A    between atoms: C_15  and  C_16
REMARK                            x       y       z     vdW  Elec       q    Type
REMARK                         _______ _______ _______ _____ _____    ______ ____
ROOT
ATOM      1  C   UNL     1      -2.491  12.935  20.121  0.00  0.00    +0.000 C 
ATOM      2  C   UNL     1      -3.229  13.450  21.141  0.00  0.00    +0.000 C 
ATOM      3  N   UNL     1      -2.635  13.931  22.363  0.00  0.00    +0.000 N 
ATOM      4  C   UNL     1      -2.909  13.164  23.495  0.00  0.00    +0.000 C 
ATOM      5  O   UNL     1      -3.450  13.344  24.566  0.00  0.00    +0.000 OA
ATOM      6  C   UNL     1      -1.766  12.291  23.113  0.00  0.00    +0.000 C 
ATOM      7  C   UNL     1      -1.617  10.969  23.169  0.00  0.00    +0.000 C 
ATOM      8  C   UNL     1      -1.195  13.618  22.639  0.00  0.00    +0.000 C 
ATOM      9  S   UNL     1      -0.233  13.942  21.212  0.00  0.00    +0.000 S 
ATOM     10  O   UNL     1      -0.334  15.338  20.823  0.00  0.00    +0.000 OA
ATOM     11  O   UNL     1       1.101  13.384  21.397  0.00  0.00    +0.000 OA
ATOM     12  C   UNL     1      -0.995  12.982  19.976  0.00  0.00    +0.000 C 
ENDROOT
BRANCH   7  13
ATOM     13  C   UNL     1      -0.533  10.144  22.646  0.00  0.00    +0.000 A 
ATOM     14  C   UNL     1      -0.504   9.751  21.315  0.00  0.00    +0.000 A 
ATOM     15  C   UNL     1       0.553   8.968  20.866  0.00  0.00    +0.000 A 
ATOM     16  C   UNL     1       1.573   8.643  21.747  0.00  0.00    +0.000 A 
ATOM     17  C   UNL     1       1.477   9.095  23.056  0.00  0.00    +0.000 A 
ATOM     18  N   UNL     1       0.437   9.815  23.546  0.00  0.00    +0.000 NA
ENDBRANCH   7  13
BRANCH   2  19
ATOM     19  C   UNL     1      -4.848  13.333  21.152  0.00  0.00    +0.000 C 
ATOM     20  O   UNL     1      -5.338  12.262  21.597  0.00  0.00    +0.000 OA
ATOM     21  O   UNL     1      -5.446  14.383  20.791  0.00  0.00    +0.000 OA
ENDBRANCH   2  19
BRANCH   1  23
ATOM     22  C   UNL     1      -2.248  11.549  18.142  0.00  0.00    +0.000 C 
ATOM     23  C   UNL     1      -3.051  12.071  19.075  0.00  0.00    +0.000 C 
BRANCH  22  25
ATOM     24  O   UNL     1      -2.561  11.112  15.896  0.00  0.00    +0.000 OA
ATOM     25  C   UNL     1      -2.670  10.616  17.066  0.00  0.00    +0.000 C 
ATOM     26  O   UNL     1      -3.272   9.549  17.340  0.00  0.00    +0.000 OA
ENDBRANCH  22  25
ENDBRANCH   1  23
TORSDOF 4
ENDMDL
MODEL 6
REMARK VINA RESULT:      -6.3      6.880     10.203
REMARK  Name = 
REMARK  4 active torsions:
REMARK  status: ('A' for Active; 'I' for Inactive)
REMARK    1  A    between atoms: C_2  and  C_4
REMARK    2  A    between atoms: C_5  and  C_6
REMARK    3  A    between atoms: C_7  and  C_8
REMARK    4  A    between atoms: C_15  and  C_16
REMARK                            x       y       z     vdW  Elec       q    Type
REMARK                         _______ _______ _______ _____ _____    ______ ____
ROOT
ATOM      1  C   UNL     1      -1.300  12.295  21.315  0.00  0.00    +0.000 C 
ATOM      2  C   UNL     1      -0.317  11.386  21.562  0.00  0.00    +0.000 C 
ATOM      3  N   UNL     1       0.704  11.066  20.597  0.00  0.00    +0.000 N 
ATOM      4  C   UNL     1       0.629   9.780  20.062  0.00  0.00    +0.000 C 
ATOM      5  O   UNL     1       1.345   8.801  20.032  0.00  0.00    +0.000 OA
ATOM      6  C   UNL     1      -0.346  10.307  19.070  0.00  0.00    +0.000 C 
ATOM      7  C   UNL     1      -1.459   9.775  18.568  0.00  0.00    +0.000 C 
ATOM      8  C   UNL     1       0.537  11.540  19.184  0.00  0.00    +0.000 C 
ATOM      9  S   UNL     1       0.063  13.225  19.175  0.00  0.00    +0.000 S 
ATOM     10  O   UNL     1       1.067  14.051  19.822  0.00  0.00    +0.000 OA
ATOM     11  O   UNL     1      -0.358  13.597  17.829  0.00  0.00    +0.000 OA
ATOM     12  C   UNL     1      -1.373  13.253  20.159  0.00  0.00    +0.000 C 
ENDROOT
BRANCH   7  13
ATOM     13  C   UNL     1      -2.463  10.390  17.706  0.00  0.00    +0.000 A 
ATOM     14  C   UNL     1      -2.410  10.253  16.326  0.00  0.00    +0.000 A 
ATOM     15  C   UNL     1      -3.393  10.856  15.550  0.00  0.00    +0.000 A 
ATOM     16  C   UNL     1      -4.425  11.536  16.179  0.00  0.00    +0.000 A 
ATOM     17  C   UNL     1      -4.415  11.606  17.565  0.00  0.00    +0.000 A 
ATOM     18  N   UNL     1      -3.447  11.078  18.354  0.00  0.00    +0.000 NA
ENDBRANCH   7  13
BRANCH   2  19
ATOM     19  C   UNL     1      -0.369  10.424  22.867  0.00  0.00    +0.000 C 
ATOM     20  O   UNL     1       0.723   9.926  23.251  0.00  0.00    +0.000 OA
ATOM     21  O   UNL     1      -1.502  10.353  23.415  0.00  0.00    +0.000 OA
ENDBRANCH   2  19
BRANCH   1  23
ATOM     22  C   UNL     1      -3.657  12.852  21.490  0.00  0.00    +0.000 C 
ATOM     23  C   UNL     1      -2.561  12.343  22.064  0.00  0.00    +0.000 C 
BRANCH  22  25
ATOM     24  O   UNL     1      -5.081  12.275  23.214  0.00  0.00    +0.000 OA
ATOM     25  C   UNL     1      -5.005  12.908  22.110  0.00  0.00    +0.000 C 
ATOM     26  O   UNL     1      -5.988  13.354  21.470  0.00  0.00    +0.000 OA
ENDBRANCH  22  25
ENDBRANCH   1  23
TORSDOF 4
ENDMDL
MODEL 7
REMARK VINA RESULT:      -6.3      6.908     10.270
REMARK  Name = 
REMARK  4 active torsions:
REMARK  status: ('A' for Active; 'I' for Inactive)
REMARK    1  A    between atoms: C_2  and  C_4
REMARK    2  A    between atoms: C_5  and  C_6
REMARK    3  A    between atoms: C_7  and  C_8
REMARK    4  A    between atoms: C_15  and  C_16
REMARK                            x       y       z     vdW  Elec       q    Type
REMARK                         _______ _______ _______ _____ _____    ______ ____
ROOT
ATOM      1  C   UNL     1      -1.332  12.319  21.292  0.00  0.00    +0.000 C 
ATOM      2  C   UNL     1      -0.341  11.421  21.547  0.00  0.00    +0.000 C 
ATOM      3  N   UNL     1       0.684  11.103  20.586  0.00  0.00    +0.000 N 
ATOM      4  C   UNL     1       0.622   9.813  20.060  0.00  0.00    +0.000 C 
ATOM      5  O   UNL     1       1.346   8.840  20.038  0.00  0.00    +0.000 OA
ATOM      6  C   UNL     1      -0.356  10.325  19.063  0.00  0.00    +0.000 C 
ATOM      7  C   UNL     1      -1.463   9.779  18.562  0.00  0.00    +0.000 C 
ATOM      8  C   UNL     1       0.515  11.566  19.169  0.00  0.00    +0.000 C 
ATOM      9  S   UNL     1       0.026  13.247  19.147  0.00  0.00    +0.000 S 
ATOM     10  O   UNL     1       1.021  14.086  19.790  0.00  0.00    +0.000 OA
ATOM     11  O   UNL     1      -0.396  13.605  17.798  0.00  0.00    +0.000 OA
ATOM     12  C   UNL     1      -1.412  13.269  20.129  0.00  0.00    +0.000 C 
ENDROOT
BRANCH   7  13
ATOM     13  C   UNL     1      -2.472  10.379  17.695  0.00  0.00    +0.000 A 
ATOM     14  C   UNL     1      -3.559  11.064  18.221  0.00  0.00    +0.000 A 
ATOM     15  C   UNL     1      -4.490  11.620  17.351  0.00  0.00    +0.000 A 
ATOM     16  C   UNL     1      -4.281  11.517  15.985  0.00  0.00    +0.000 A 
ATOM     17  C   UNL     1      -3.156  10.834  15.543  0.00  0.00    +0.000 A 
ATOM     18  N   UNL     1      -2.254  10.232  16.357  0.00  0.00    +0.000 NA
ENDBRANCH   7  13
BRANCH   2  19
ATOM     19  C   UNL     1      -0.387  10.468  22.859  0.00  0.00    +0.000 C 
ATOM     20  O   UNL     1       0.706   9.967  23.237  0.00  0.00    +0.000 OA
ATOM     21  O   UNL     1      -1.516  10.406  23.418  0.00  0.00    +0.000 OA
ENDBRANCH   2  19
BRANCH   1  23
ATOM     22  C   UNL     1      -3.713  12.775  21.432  0.00  0.00    +0.000 C 
ATOM     23  C   UNL     1      -2.595  12.361  22.038  0.00  0.00    +0.000 C 
BRANCH  22  25
ATOM     24  O   UNL     1      -5.902  12.039  21.477  0.00  0.00    +0.000 OA
ATOM     25  C   UNL     1      -5.063  12.812  22.049  0.00  0.00    +0.000 C 
ATOM     26  O   UNL     1      -5.359  13.688  22.897  0.00  0.00    +0.000 OA
ENDBRANCH  22  25
ENDBRANCH   1  23
TORSDOF 4
ENDMDL
MODEL 8
REMARK VINA RESULT:      -6.1      9.795     12.540
REMARK  Name = 
REMARK  4 active torsions:
REMARK  status: ('A' for Active; 'I' for Inactive)
REMARK    1  A    between atoms: C_2  and  C_4
REMARK    2  A    between atoms: C_5  and  C_6
REMARK    3  A    between atoms: C_7  and  C_8
REMARK    4  A    between atoms: C_15  and  C_16
REMARK                            x       y       z     vdW  Elec       q    Type
REMARK                         _______ _______ _______ _____ _____    ______ ____
ROOT
ATOM      1  C   UNL     1       8.873  14.409  18.113  0.00  0.00    +0.000 C 
ATOM      2  C   UNL     1       9.995  15.168  18.238  0.00  0.00    +0.000 C 
ATOM      3  N   UNL     1      11.161  14.717  18.957  0.00  0.00    +0.000 N 
ATOM      4  C   UNL     1      11.424  15.400  20.144  0.00  0.00    +0.000 C 
ATOM      5  O   UNL     1      12.333  16.072  20.585  0.00  0.00    +0.000 OA
ATOM      6  C   UNL     1      10.472  14.480  20.821  0.00  0.00    +0.000 C 
ATOM      7  C   UNL     1       9.561  14.703  21.768  0.00  0.00    +0.000 C 
ATOM      8  C   UNL     1      11.050  13.494  19.818  0.00  0.00    +0.000 C 
ATOM      9  S   UNL     1      10.226  12.222  18.941  0.00  0.00    +0.000 S 
ATOM     10  O   UNL     1      10.952  11.870  17.734  0.00  0.00    +0.000 OA
ATOM     11  O   UNL     1       9.884  11.148  19.866  0.00  0.00    +0.000 OA
ATOM     12  C   UNL     1       8.720  12.957  18.470  0.00  0.00    +0.000 C 
ENDROOT
BRANCH   7  13
ATOM     13  C   UNL     1       8.548  13.798  22.299  0.00  0.00    +0.000 A 
ATOM     14  C   UNL     1       7.203  14.144  22.303  0.00  0.00    +0.000 A 
ATOM     15  C   UNL     1       6.277  13.245  22.817  0.00  0.00    +0.000 A 
ATOM     16  C   UNL     1       6.715  12.008  23.266  0.00  0.00    +0.000 A 
ATOM     17  C   UNL     1       8.074  11.733  23.205  0.00  0.00    +0.000 A 
ATOM     18  N   UNL     1       9.015  12.603  22.761  0.00  0.00    +0.000 NA
ENDBRANCH   7  13
BRANCH   2  19
ATOM     19  C   UNL     1      10.011  16.729  17.795  0.00  0.00    +0.000 C 
ATOM     20  O   UNL     1       9.460  17.548  18.577  0.00  0.00    +0.000 OA
ATOM     21  O   UNL     1      10.665  16.963  16.742  0.00  0.00    +0.000 OA
ENDBRANCH   2  19
BRANCH   1  23
ATOM     22  C   UNL     1       6.705  15.299  18.751  0.00  0.00    +0.000 C 
ATOM     23  C   UNL     1       7.557  14.965  17.776  0.00  0.00    +0.000 C 
BRANCH  22  25
ATOM     24  O   UNL     1       4.541  15.160  17.957  0.00  0.00    +0.000 OA
ATOM     25  C   UNL     1       5.371  15.922  18.553  0.00  0.00    +0.000 C 
ATOM     26  O   UNL     1       5.196  17.146  18.766  0.00  0.00    +0.000 OA
ENDBRANCH  22  25
ENDBRANCH   1  23
TORSDOF 4
ENDMDL
MODEL 9
REMARK VINA RESULT:      -6.1      5.594      8.209
REMARK  Name = 
REMARK  4 active torsions:
REMARK  status: ('A' for Active; 'I' for Inactive)
REMARK    1  A    between atoms: C_2  and  C_4
REMARK    2  A    between atoms: C_5  and  C_6
REMARK    3  A    between atoms: C_7  and  C_8
REMARK    4  A    between atoms: C_15  and  C_16
REMARK                            x       y       z     vdW  Elec       q    Type
REMARK                         _______ _______ _______ _____ _____    ______ ____
ROOT
ATOM      1  C   UNL     1       0.216  10.188  19.921  0.00  0.00    +0.000 C 
ATOM      2  C   UNL     1      -0.413  10.359  21.115  0.00  0.00    +0.000 C 
ATOM      3  N   UNL     1      -1.244  11.503  21.398  0.00  0.00    +0.000 N 
ATOM      4  C   UNL     1      -0.731  12.386  22.346  0.00  0.00    +0.000 C 
ATOM      5  O   UNL     1      -1.077  12.806  23.431  0.00  0.00    +0.000 OA
ATOM      6  C   UNL     1       0.037  13.034  21.248  0.00  0.00    +0.000 C 
ATOM      7  C   UNL     1       1.275  13.522  21.215  0.00  0.00    +0.000 C 
ATOM      8  C   UNL     1      -1.210  12.671  20.458  0.00  0.00    +0.000 C 
ATOM      9  S   UNL     1      -1.326  12.106  18.804  0.00  0.00    +0.000 S 
ATOM     10  O   UNL     1      -2.564  11.378  18.589  0.00  0.00    +0.000 OA
ATOM     11  O   UNL     1      -1.021  13.208  17.900  0.00  0.00    +0.000 OA
ATOM     12  C   UNL     1      -0.007  10.979  18.662  0.00  0.00    +0.000 C 
ENDROOT
BRANCH   7  13
ATOM     13  C   UNL     1       2.037  14.016  20.073  0.00  0.00    +0.000 A 
ATOM     14  C   UNL     1       2.562  13.147  19.126  0.00  0.00    +0.000 A 
ATOM     15  C   UNL     1       3.277  13.668  18.055  0.00  0.00    +0.000 A 
ATOM     16  C   UNL     1       3.406  15.043  17.936  0.00  0.00    +0.000 A 
ATOM     17  C   UNL     1       2.831  15.843  18.915  0.00  0.00    +0.000 A 
ATOM     18  N   UNL     1       2.172  15.372  20.002  0.00  0.00    +0.000 NA
ENDBRANCH   7  13
BRANCH   2  19
ATOM     19  C   UNL     1      -0.075   9.412  22.389  0.00  0.00    +0.000 C 
ATOM     20  O   UNL     1       0.798   9.832  23.194  0.00  0.00    +0.000 OA
ATOM     21  O   UNL     1      -0.802   8.386  22.480  0.00  0.00    +0.000 OA
ENDBRANCH   2  19
BRANCH   1  23
ATOM     22  C   UNL     1       1.551   8.678  18.566  0.00  0.00    +0.000 C 
ATOM     23  C   UNL     1       1.370   9.300  19.736  0.00  0.00    +0.000 C 
BRANCH  22  25
ATOM     24  O   UNL     1       3.293   8.142  17.149  0.00  0.00    +0.000 OA
ATOM     25  C   UNL     1       2.701   7.802  18.226  0.00  0.00    +0.000 C 
ATOM     26  O   UNL     1       2.893   6.725  18.841  0.00  0.00    +0.000 OA
ENDBRANCH  22  25
ENDBRANCH   1  23
TORSDOF 4
ENDMDL
