MODEL 1
REMARK VINA RESULT:      -6.7      0.000      0.000
REMARK  Name = 
REMARK  9 active torsions:
REMARK  status: ('A' for Active; 'I' for Inactive)
REMARK    1  A    between atoms: C_1  and  O_2
REMARK    2  A    between atoms: O_2  and  N_3
REMARK    3  A    between atoms: C_4  and  C_5
REMARK    4  A    between atoms: C_4  and  C_16
REMARK    5  A    between atoms: C_5  and  S_6
REMARK    6  A    between atoms: S_6  and  C_9
REMARK    7  A    between atoms: C_12  and  C_13
REMARK    8  A    between atoms: C_19  and  O_20
REMARK    9  A    between atoms: O_20  and  C_21
REMARK                            x       y       z     vdW  Elec       q    Type
REMARK                         _______ _______ _______ _____ _____    ______ ____
ROOT
ATOM      1  N   UNL     1       2.846   3.257  17.729  0.00  0.00    +0.000 NA
ATOM      2  C   UNL     1       3.458   4.278  18.276  0.00  0.00    +0.000 C 
ENDROOT
BRANCH   2   3
ATOM      3  C   UNL     1       2.815   5.496  18.980  0.00  0.00    +0.000 A 
ATOM      4  C   UNL     1       2.779   6.780  18.401  0.00  0.00    +0.000 A 
ATOM      5  C   UNL     1       2.207   7.893  19.034  0.00  0.00    +0.000 A 
ATOM      6  C   UNL     1       1.607   7.766  20.273  0.00  0.00    +0.000 A 
ATOM      7  C   UNL     1       1.604   6.510  20.876  0.00  0.00    +0.000 A 
ATOM      8  C   UNL     1       2.204   5.395  20.241  0.00  0.00    +0.000 A 
BRANCH   6   9
ATOM      9  O   UNL     1       1.125   8.930  20.802  0.00  0.00    +0.000 OA
ATOM     10  C   UNL     1       1.395   9.159  22.177  0.00  0.00    +0.000 C 
ENDBRANCH   6   9
ENDBRANCH   2   3
BRANCH   1  12
ATOM     11  C   UNL     1       0.949   2.321  18.654  0.00  0.00    +0.000 C 
ATOM     12  O   UNL     1       1.465   3.315  17.789  0.00  0.00    +0.000 OA
ENDBRANCH   1  12
BRANCH   2  13
ATOM     13  C   UNL     1       4.976   4.106  18.252  0.00  0.00    +0.000 C 
BRANCH  13  14
ATOM     14  S   UNL     1       5.806   4.859  16.895  0.00  0.00    +0.000 S 
ATOM     15  O   UNL     1       6.717   3.860  16.343  0.00  0.00    +0.000 OA
ATOM     16  O   UNL     1       4.793   5.450  16.037  0.00  0.00    +0.000 OA
BRANCH  14  17
ATOM     17  C   UNL     1       6.794   6.210  17.488  0.00  0.00    +0.000 A 
ATOM     18  C   UNL     1       7.668   6.006  18.562  0.00  0.00    +0.000 A 
ATOM     19  C   UNL     1       8.404   7.079  19.069  0.00  0.00    +0.000 A 
ATOM     20  C   UNL     1       8.289   8.351  18.498  0.00  0.00    +0.000 A 
ATOM     21  C   UNL     1       9.053   9.517  19.050  0.00  0.00    +0.000 C 
ATOM     22  C   UNL     1       7.438   8.534  17.398  0.00  0.00    +0.000 A 
ATOM     23  C   UNL     1       6.703   7.464  16.879  0.00  0.00    +0.000 A 
ENDBRANCH  14  17
ENDBRANCH  13  14
ENDBRANCH   2  13
TORSDOF 6
ENDMDL
MODEL 2
REMARK VINA RESULT:      -6.5      2.371      3.547
REMARK  Name = 
REMARK  9 active torsions:
REMARK  status: ('A' for Active; 'I' for Inactive)
REMARK    1  A    between atoms: C_1  and  O_2
REMARK    2  A    between atoms: O_2  and  N_3
REMARK    3  A    between atoms: C_4  and  C_5
REMARK    4  A    between atoms: C_4  and  C_16
REMARK    5  A    between atoms: C_5  and  S_6
REMARK    6  A    between atoms: S_6  and  C_9
REMARK    7  A    between atoms: C_12  and  C_13
REMARK    8  A    between atoms: C_19  and  O_20
REMARK    9  A    between atoms: O_20  and  C_21
REMARK                            x       y       z     vdW  Elec       q    Type
REMARK                         _______ _______ _______ _____ _____    ______ ____
ROOT
ATOM      1  N   UNL     1       3.010   3.226  18.081  0.00  0.00    +0.000 NA
ATOM      2  C   UNL     1       3.595   4.296  18.559  0.00  0.00    +0.000 C 
ENDROOT
BRANCH   2   3
ATOM      3  C   UNL     1       2.957   5.680  18.827  0.00  0.00    +0.000 A 
ATOM      4  C   UNL     1       2.464   6.060  20.091  0.00  0.00    +0.000 A 
ATOM      5  C   UNL     1       1.875   7.308  20.342  0.00  0.00    +0.000 A 
ATOM      6  C   UNL     1       1.784   8.257  19.342  0.00  0.00    +0.000 A 
ATOM      7  C   UNL     1       2.276   7.931  18.079  0.00  0.00    +0.000 A 
ATOM      8  C   UNL     1       2.849   6.660  17.826  0.00  0.00    +0.000 A 
BRANCH   6   9
ATOM      9  O   UNL     1       1.154   9.415  19.701  0.00  0.00    +0.000 OA
ATOM     10  C   UNL     1       0.812   9.548  21.072  0.00  0.00    +0.000 C 
ENDBRANCH   6   9
ENDBRANCH   2   3
BRANCH   1  12
ATOM     11  C   UNL     1       0.848   2.665  18.669  0.00  0.00    +0.000 C 
ATOM     12  O   UNL     1       1.670   3.391  17.775  0.00  0.00    +0.000 OA
ENDBRANCH   1  12
BRANCH   2  13
ATOM     13  C   UNL     1       5.044   4.018  18.955  0.00  0.00    +0.000 C 
BRANCH  13  14
ATOM     14  S   UNL     1       6.258   5.003  18.147  0.00  0.00    +0.000 S 
ATOM     15  O   UNL     1       5.855   6.397  18.313  0.00  0.00    +0.000 OA
ATOM     16  O   UNL     1       7.560   4.576  18.630  0.00  0.00    +0.000 OA
BRANCH  14  17
ATOM     17  C   UNL     1       6.240   4.647  16.408  0.00  0.00    +0.000 A 
ATOM     18  C   UNL     1       5.176   3.919  15.863  0.00  0.00    +0.000 A 
ATOM     19  C   UNL     1       5.186   3.587  14.507  0.00  0.00    +0.000 A 
ATOM     20  C   UNL     1       6.243   3.994  13.685  0.00  0.00    +0.000 A 
ATOM     21  C   UNL     1       6.279   3.621  12.233  0.00  0.00    +0.000 C 
ATOM     22  C   UNL     1       7.285   4.756  14.235  0.00  0.00    +0.000 A 
ATOM     23  C   UNL     1       7.278   5.099  15.590  0.00  0.00    +0.000 A 
ENDBRANCH  14  17
ENDBRANCH  13  14
ENDBRANCH   2  13
TORSDOF 6
ENDMDL
MODEL 3
REMARK VINA RESULT:      -6.4      2.472      6.353
REMARK  Name = 
REMARK  9 active torsions:
REMARK  status: ('A' for Active; 'I' for Inactive)
REMARK    1  A    between atoms: C_1  and  O_2
REMARK    2  A    between atoms: O_2  and  N_3
REMARK    3  A    between atoms: C_4  and  C_5
REMARK    4  A    between atoms: C_4  and  C_16
REMARK    5  A    between atoms: C_5  and  S_6
REMARK    6  A    between atoms: S_6  and  C_9
REMARK    7  A    between atoms: C_12  and  C_13
REMARK    8  A    between atoms: C_19  and  O_20
REMARK    9  A    between atoms: O_20  and  C_21
REMARK                            x       y       z     vdW  Elec       q    Type
REMARK                         _______ _______ _______ _____ _____    ______ ____
ROOT
ATOM      1  N   UNL     1       3.741   3.485  19.515  0.00  0.00    +0.000 NA
ATOM      2  C   UNL     1       4.191   4.597  18.990  0.00  0.00    +0.000 C 
ENDROOT
BRANCH   2   3
ATOM      3  C   UNL     1       5.159   4.750  17.792  0.00  0.00    +0.000 A 
ATOM      4  C   UNL     1       4.810   4.379  16.479  0.00  0.00    +0.000 A 
ATOM      5  C   UNL     1       5.683   4.505  15.387  0.00  0.00    +0.000 A 
ATOM      6  C   UNL     1       6.944   5.046  15.554  0.00  0.00    +0.000 A 
ATOM      7  C   UNL     1       7.325   5.444  16.834  0.00  0.00    +0.000 A 
ATOM      8  C   UNL     1       6.446   5.293  17.936  0.00  0.00    +0.000 A 
BRANCH   6   9
ATOM      9  O   UNL     1       7.712   5.076  14.425  0.00  0.00    +0.000 OA
ATOM     10  C   UNL     1       7.075   4.688  13.217  0.00  0.00    +0.000 C 
ENDBRANCH   6   9
ENDBRANCH   2   3
BRANCH   1  12
ATOM     11  C   UNL     1       3.162   1.562  18.375  0.00  0.00    +0.000 C 
ATOM     12  O   UNL     1       4.219   2.331  18.918  0.00  0.00    +0.000 OA
ENDBRANCH   1  12
BRANCH   2  13
ATOM     13  C   UNL     1       3.556   5.826  19.639  0.00  0.00    +0.000 C 
BRANCH  13  14
ATOM     14  S   UNL     1       2.666   6.886  18.553  0.00  0.00    +0.000 S 
ATOM     15  O   UNL     1       3.653   7.604  17.753  0.00  0.00    +0.000 OA
ATOM     16  O   UNL     1       1.658   6.080  17.886  0.00  0.00    +0.000 OA
BRANCH  14  17
ATOM     17  C   UNL     1       1.776   8.091  19.508  0.00  0.00    +0.000 A 
ATOM     18  C   UNL     1       1.426   9.313  18.922  0.00  0.00    +0.000 A 
ATOM     19  C   UNL     1       0.777  10.286  19.685  0.00  0.00    +0.000 A 
ATOM     20  C   UNL     1       0.458  10.039  21.026  0.00  0.00    +0.000 A 
ATOM     21  C   UNL     1      -0.214  11.086  21.864  0.00  0.00    +0.000 C 
ATOM     22  C   UNL     1       0.781   8.796  21.590  0.00  0.00    +0.000 A 
ATOM     23  C   UNL     1       1.423   7.814  20.831  0.00  0.00    +0.000 A 
ENDBRANCH  14  17
ENDBRANCH  13  14
ENDBRANCH   2  13
TORSDOF 6
ENDMDL
MODEL 4
REMARK VINA RESULT:      -6.4      1.175      1.915
REMARK  Name = 
REMARK  9 active torsions:
REMARK  status: ('A' for Active; 'I' for Inactive)
REMARK    1  A    between atoms: C_1  and  O_2
REMARK    2  A    between atoms: O_2  and  N_3
REMARK    3  A    between atoms: C_4  and  C_5
REMARK    4  A    between atoms: C_4  and  C_16
REMARK    5  A    between atoms: C_5  and  S_6
REMARK    6  A    between atoms: S_6  and  C_9
REMARK    7  A    between atoms: C_12  and  C_13
REMARK    8  A    between atoms: C_19  and  O_20
REMARK    9  A    between atoms: O_20  and  C_21
REMARK                            x       y       z     vdW  Elec       q    Type
REMARK                         _______ _______ _______ _____ _____    ______ ____
ROOT
ATOM      1  N   UNL     1       3.514   3.339  17.384  0.00  0.00    +0.000 NA
ATOM      2  C   UNL     1       3.906   4.589  17.421  0.00  0.00    +0.000 C 
ENDROOT
BRANCH   2   3
ATOM      3  C   UNL     1       3.247   5.761  18.186  0.00  0.00    +0.000 A 
ATOM      4  C   UNL     1       2.880   5.674  19.544  0.00  0.00    +0.000 A 
ATOM      5  C   UNL     1       2.274   6.728  20.244  0.00  0.00    +0.000 A 
ATOM      6  C   UNL     1       2.037   7.940  19.625  0.00  0.00    +0.000 A 
ATOM      7  C   UNL     1       2.401   8.077  18.286  0.00  0.00    +0.000 A 
ATOM      8  C   UNL     1       2.992   7.001  17.578  0.00  0.00    +0.000 A 
BRANCH   6   9
ATOM      9  O   UNL     1       1.405   8.870  20.400  0.00  0.00    +0.000 OA
ATOM     10  C   UNL     1       0.343   8.396  21.215  0.00  0.00    +0.000 C 
ENDBRANCH   6   9
ENDBRANCH   2   3
BRANCH   1  12
ATOM     11  C   UNL     1       2.594   2.072  19.080  0.00  0.00    +0.000 C 
ATOM     12  O   UNL     1       2.365   3.074  18.108  0.00  0.00    +0.000 OA
ENDBRANCH   1  12
BRANCH   2  13
ATOM     13  C   UNL     1       5.224   4.790  16.674  0.00  0.00    +0.000 C 
BRANCH  13  14
ATOM     14  S   UNL     1       6.675   4.755  17.668  0.00  0.00    +0.000 S 
ATOM     15  O   UNL     1       6.285   4.231  18.974  0.00  0.00    +0.000 OA
ATOM     16  O   UNL     1       7.709   4.074  16.908  0.00  0.00    +0.000 OA
BRANCH  14  17
ATOM     17  C   UNL     1       7.260   6.413  17.913  0.00  0.00    +0.000 A 
ATOM     18  C   UNL     1       6.755   7.447  17.115  0.00  0.00    +0.000 A 
ATOM     19  C   UNL     1       7.253   8.743  17.264  0.00  0.00    +0.000 A 
ATOM     20  C   UNL     1       8.239   9.018  18.219  0.00  0.00    +0.000 A 
ATOM     21  C   UNL     1       8.801  10.400  18.370  0.00  0.00    +0.000 C 
ATOM     22  C   UNL     1       8.709   7.981  19.037  0.00  0.00    +0.000 A 
ATOM     23  C   UNL     1       8.210   6.682  18.900  0.00  0.00    +0.000 A 
ENDBRANCH  14  17
ENDBRANCH  13  14
ENDBRANCH   2  13
TORSDOF 6
ENDMDL
MODEL 5
REMARK VINA RESULT:      -6.4      2.477      3.540
REMARK  Name = 
REMARK  9 active torsions:
REMARK  status: ('A' for Active; 'I' for Inactive)
REMARK    1  A    between atoms: C_1  and  O_2
REMARK    2  A    between atoms: O_2  and  N_3
REMARK    3  A    between atoms: C_4  and  C_5
REMARK    4  A    between atoms: C_4  and  C_16
REMARK    5  A    between atoms: C_5  and  S_6
REMARK    6  A    between atoms: S_6  and  C_9
REMARK    7  A    between atoms: C_12  and  C_13
REMARK    8  A    between atoms: C_19  and  O_20
REMARK    9  A    between atoms: O_20  and  C_21
REMARK                            x       y       z     vdW  Elec       q    Type
REMARK                         _______ _______ _______ _____ _____    ______ ____
ROOT
ATOM      1  N   UNL     1       3.162   3.245  17.974  0.00  0.00    +0.000 NA
ATOM      2  C   UNL     1       3.712   4.314  18.493  0.00  0.00    +0.000 C 
ENDROOT
BRANCH   2   3
ATOM      3  C   UNL     1       3.036   5.675  18.784  0.00  0.00    +0.000 A 
ATOM      4  C   UNL     1       2.841   6.657  17.792  0.00  0.00    +0.000 A 
ATOM      5  C   UNL     1       2.238   7.897  18.047  0.00  0.00    +0.000 A 
ATOM      6  C   UNL     1       1.766   8.204  19.309  0.00  0.00    +0.000 A 
ATOM      7  C   UNL     1       1.922   7.255  20.318  0.00  0.00    +0.000 A 
ATOM      8  C   UNL     1       2.552   6.013  20.059  0.00  0.00    +0.000 A 
BRANCH   6   9
ATOM      9  O   UNL     1       1.238   9.458  19.439  0.00  0.00    +0.000 OA
ATOM     10  C   UNL     1       1.547  10.382  18.406  0.00  0.00    +0.000 C 
ENDBRANCH   6   9
ENDBRANCH   2   3
BRANCH   1  12
ATOM     11  C   UNL     1       0.994   2.735  18.583  0.00  0.00    +0.000 C 
ATOM     12  O   UNL     1       1.826   3.387  17.643  0.00  0.00    +0.000 OA
ENDBRANCH   1  12
BRANCH   2  13
ATOM     13  C   UNL     1       5.158   4.058  18.914  0.00  0.00    +0.000 C 
BRANCH  13  14
ATOM     14  S   UNL     1       6.376   5.010  18.073  0.00  0.00    +0.000 S 
ATOM     15  O   UNL     1       6.014   6.414  18.246  0.00  0.00    +0.000 OA
ATOM     16  O   UNL     1       7.678   4.550  18.524  0.00  0.00    +0.000 OA
BRANCH  14  17
ATOM     17  C   UNL     1       6.304   4.652  16.335  0.00  0.00    +0.000 A 
ATOM     18  C   UNL     1       5.146   4.082  15.796  0.00  0.00    +0.000 A 
ATOM     19  C   UNL     1       5.105   3.745  14.441  0.00  0.00    +0.000 A 
ATOM     20  C   UNL     1       6.209   3.993  13.616  0.00  0.00    +0.000 A 
ATOM     21  C   UNL     1       6.188   3.611  12.166  0.00  0.00    +0.000 C 
ATOM     22  C   UNL     1       7.350   4.599  14.161  0.00  0.00    +0.000 A 
ATOM     23  C   UNL     1       7.396   4.946  15.515  0.00  0.00    +0.000 A 
ENDBRANCH  14  17
ENDBRANCH  13  14
ENDBRANCH   2  13
TORSDOF 6
ENDMDL
MODEL 6
REMARK VINA RESULT:      -6.4      2.463      3.512
REMARK  Name = 
REMARK  9 active torsions:
REMARK  status: ('A' for Active; 'I' for Inactive)
REMARK    1  A    between atoms: C_1  and  O_2
REMARK    2  A    between atoms: O_2  and  N_3
REMARK    3  A    between atoms: C_4  and  C_5
REMARK    4  A    between atoms: C_4  and  C_16
REMARK    5  A    between atoms: C_5  and  S_6
REMARK    6  A    between atoms: S_6  and  C_9
REMARK    7  A    between atoms: C_12  and  C_13
REMARK    8  A    between atoms: C_19  and  O_20
REMARK    9  A    between atoms: O_20  and  C_21
REMARK                            x       y       z     vdW  Elec       q    Type
REMARK                         _______ _______ _______ _____ _____    ______ ____
ROOT
ATOM      1  N   UNL     1       3.548   4.058  18.284  0.00  0.00    +0.000 NA
ATOM      2  C   UNL     1       3.937   5.225  18.732  0.00  0.00    +0.000 C 
ENDROOT
BRANCH   2   3
ATOM      3  C   UNL     1       3.118   6.537  18.783  0.00  0.00    +0.000 A 
ATOM      4  C   UNL     1       3.075   7.451  17.712  0.00  0.00    +0.000 A 
ATOM      5  C   UNL     1       2.343   8.647  17.751  0.00  0.00    +0.000 A 
ATOM      6  C   UNL     1       1.584   8.971  18.860  0.00  0.00    +0.000 A 
ATOM      7  C   UNL     1       1.583   8.087  19.937  0.00  0.00    +0.000 A 
ATOM      8  C   UNL     1       2.342   6.891  19.899  0.00  0.00    +0.000 A 
BRANCH   6   9
ATOM      9  O   UNL     1       0.952  10.181  18.793  0.00  0.00    +0.000 OA
ATOM     10  C   UNL     1      -0.367  10.234  19.315  0.00  0.00    +0.000 C 
ENDBRANCH   6   9
ENDBRANCH   2   3
BRANCH   1  12
ATOM     11  C   UNL     1       1.424   3.200  18.577  0.00  0.00    +0.000 C 
ATOM     12  O   UNL     1       2.255   4.032  17.790  0.00  0.00    +0.000 OA
ENDBRANCH   1  12
BRANCH   2  13
ATOM     13  C   UNL     1       5.337   5.159  19.339  0.00  0.00    +0.000 C 
BRANCH  13  14
ATOM     14  S   UNL     1       6.663   5.507  18.236  0.00  0.00    +0.000 S 
ATOM     15  O   UNL     1       6.842   6.955  18.227  0.00  0.00    +0.000 OA
ATOM     16  O   UNL     1       7.779   4.654  18.610  0.00  0.00    +0.000 OA
BRANCH  14  17
ATOM     17  C   UNL     1       6.203   5.017  16.592  0.00  0.00    +0.000 A 
ATOM     18  C   UNL     1       6.352   3.681  16.203  0.00  0.00    +0.000 A 
ATOM     19  C   UNL     1       6.046   3.302  14.894  0.00  0.00    +0.000 A 
ATOM     20  C   UNL     1       5.573   4.246  13.975  0.00  0.00    +0.000 A 
ATOM     21  C   UNL     1       5.267   3.858  12.560  0.00  0.00    +0.000 C 
ATOM     22  C   UNL     1       5.392   5.574  14.389  0.00  0.00    +0.000 A 
ATOM     23  C   UNL     1       5.689   5.960  15.699  0.00  0.00    +0.000 A 
ENDBRANCH  14  17
ENDBRANCH  13  14
ENDBRANCH   2  13
TORSDOF 6
ENDMDL
MODEL 7
REMARK VINA RESULT:      -6.4      2.496      3.658
REMARK  Name = 
REMARK  9 active torsions:
REMARK  status: ('A' for Active; 'I' for Inactive)
REMARK    1  A    between atoms: C_1  and  O_2
REMARK    2  A    between atoms: O_2  and  N_3
REMARK    3  A    between atoms: C_4  and  C_5
REMARK    4  A    between atoms: C_4  and  C_16
REMARK    5  A    between atoms: C_5  and  S_6
REMARK    6  A    between atoms: S_6  and  C_9
REMARK    7  A    between atoms: C_12  and  C_13
REMARK    8  A    between atoms: C_19  and  O_20
REMARK    9  A    between atoms: O_20  and  C_21
REMARK                            x       y       z     vdW  Elec       q    Type
REMARK                         _______ _______ _______ _____ _____    ______ ____
ROOT
ATOM      1  N   UNL     1       3.418   4.223  18.182  0.00  0.00    +0.000 NA
ATOM      2  C   UNL     1       3.818   5.363  18.686  0.00  0.00    +0.000 C 
ENDROOT
BRANCH   2   3
ATOM      3  C   UNL     1       3.009   6.677  18.808  0.00  0.00    +0.000 A 
ATOM      4  C   UNL     1       2.951   7.634  17.775  0.00  0.00    +0.000 A 
ATOM      5  C   UNL     1       2.229   8.832  17.878  0.00  0.00    +0.000 A 
ATOM      6  C   UNL     1       1.495   9.115  19.015  0.00  0.00    +0.000 A 
ATOM      7  C   UNL     1       1.509   8.188  20.055  0.00  0.00    +0.000 A 
ATOM      8  C   UNL     1       2.260   6.990  19.953  0.00  0.00    +0.000 A 
BRANCH   6   9
ATOM      9  O   UNL     1       0.871  10.331  19.009  0.00  0.00    +0.000 OA
ATOM     10  C   UNL     1       1.657  11.443  18.612  0.00  0.00    +0.000 C 
ENDBRANCH   6   9
ENDBRANCH   2   3
BRANCH   1  12
ATOM     11  C   UNL     1       1.297   3.339  18.417  0.00  0.00    +0.000 C 
ATOM     12  O   UNL     1       2.123   4.232  17.693  0.00  0.00    +0.000 OA
ENDBRANCH   1  12
BRANCH   2  13
ATOM     13  C   UNL     1       5.220   5.255  19.284  0.00  0.00    +0.000 C 
BRANCH  13  14
ATOM     14  S   UNL     1       6.538   5.750  18.227  0.00  0.00    +0.000 S 
ATOM     15  O   UNL     1       6.533   7.209  18.193  0.00  0.00    +0.000 OA
ATOM     16  O   UNL     1       7.735   5.051  18.665  0.00  0.00    +0.000 OA
BRANCH  14  17
ATOM     17  C   UNL     1       6.214   5.178  16.577  0.00  0.00    +0.000 A 
ATOM     18  C   UNL     1       5.522   6.005  15.685  0.00  0.00    +0.000 A 
ATOM     19  C   UNL     1       5.214   5.538  14.405  0.00  0.00    +0.000 A 
ATOM     20  C   UNL     1       5.610   4.256  14.004  0.00  0.00    +0.000 A 
ATOM     21  C   UNL     1       5.262   3.733  12.642  0.00  0.00    +0.000 C 
ATOM     22  C   UNL     1       6.335   3.452  14.895  0.00  0.00    +0.000 A 
ATOM     23  C   UNL     1       6.654   3.915  16.175  0.00  0.00    +0.000 A 
ENDBRANCH  14  17
ENDBRANCH  13  14
ENDBRANCH   2  13
TORSDOF 6
ENDMDL
MODEL 8
REMARK VINA RESULT:      -6.3      3.071      4.051
REMARK  Name = 
REMARK  9 active torsions:
REMARK  status: ('A' for Active; 'I' for Inactive)
REMARK    1  A    between atoms: C_1  and  O_2
REMARK    2  A    between atoms: O_2  and  N_3
REMARK    3  A    between atoms: C_4  and  C_5
REMARK    4  A    between atoms: C_4  and  C_16
REMARK    5  A    between atoms: C_5  and  S_6
REMARK    6  A    between atoms: S_6  and  C_9
REMARK    7  A    between atoms: C_12  and  C_13
REMARK    8  A    between atoms: C_19  and  O_20
REMARK    9  A    between atoms: O_20  and  C_21
REMARK                            x       y       z     vdW  Elec       q    Type
REMARK                         _______ _______ _______ _____ _____    ______ ____
ROOT
ATOM      1  N   UNL     1       3.674   3.693  16.889  0.00  0.00    +0.000 NA
ATOM      2  C   UNL     1       4.134   4.756  17.501  0.00  0.00    +0.000 C 
ENDROOT
BRANCH   2   3
ATOM      3  C   UNL     1       3.354   5.731  18.413  0.00  0.00    +0.000 A 
ATOM      4  C   UNL     1       2.962   7.018  17.994  0.00  0.00    +0.000 A 
ATOM      5  C   UNL     1       2.262   7.914  18.815  0.00  0.00    +0.000 A 
ATOM      6  C   UNL     1       1.886   7.549  20.094  0.00  0.00    +0.000 A 
ATOM      7  C   UNL     1       2.237   6.278  20.545  0.00  0.00    +0.000 A 
ATOM      8  C   UNL     1       2.964   5.386  19.717  0.00  0.00    +0.000 A 
BRANCH   6   9
ATOM      9  O   UNL     1       1.248   8.523  20.808  0.00  0.00    +0.000 OA
ATOM     10  C   UNL     1       0.751   9.626  20.066  0.00  0.00    +0.000 C 
ENDBRANCH   6   9
ENDBRANCH   2   3
BRANCH   1  12
ATOM     11  C   UNL     1       2.123   2.333  17.925  0.00  0.00    +0.000 C 
ATOM     12  O   UNL     1       2.325   3.454  17.087  0.00  0.00    +0.000 OA
ENDBRANCH   1  12
BRANCH   2  13
ATOM     13  C   UNL     1       5.643   4.908  17.310  0.00  0.00    +0.000 C 
BRANCH  13  14
ATOM     14  S   UNL     1       6.140   5.959  15.989  0.00  0.00    +0.000 S 
ATOM     15  O   UNL     1       5.045   6.894  15.752  0.00  0.00    +0.000 OA
ATOM     16  O   UNL     1       7.459   6.475  16.315  0.00  0.00    +0.000 OA
BRANCH  14  17
ATOM     17  C   UNL     1       6.344   4.993  14.513  0.00  0.00    +0.000 A 
ATOM     18  C   UNL     1       5.352   4.076  14.148  0.00  0.00    +0.000 A 
ATOM     19  C   UNL     1       5.533   3.272  13.020  0.00  0.00    +0.000 A 
ATOM     20  C   UNL     1       6.691   3.392  12.243  0.00  0.00    +0.000 A 
ATOM     21  C   UNL     1       6.910   2.517  11.045  0.00  0.00    +0.000 C 
ATOM     22  C   UNL     1       7.660   4.342  12.599  0.00  0.00    +0.000 A 
ATOM     23  C   UNL     1       7.483   5.155  13.722  0.00  0.00    +0.000 A 
ENDBRANCH  14  17
ENDBRANCH  13  14
ENDBRANCH   2  13
TORSDOF 6
ENDMDL
MODEL 9
REMARK VINA RESULT:      -6.3      2.822      6.240
REMARK  Name = 
REMARK  9 active torsions:
REMARK  status: ('A' for Active; 'I' for Inactive)
REMARK    1  A    between atoms: C_1  and  O_2
REMARK    2  A    between atoms: O_2  and  N_3
REMARK    3  A    between atoms: C_4  and  C_5
REMARK    4  A    between atoms: C_4  and  C_16
REMARK    5  A    between atoms: C_5  and  S_6
REMARK    6  A    between atoms: S_6  and  C_9
REMARK    7  A    between atoms: C_12  and  C_13
REMARK    8  A    between atoms: C_19  and  O_20
REMARK    9  A    between atoms: O_20  and  C_21
REMARK                            x       y       z     vdW  Elec       q    Type
REMARK                         _______ _______ _______ _____ _____    ______ ____
ROOT
ATOM      1  N   UNL     1       2.932   2.837  18.183  0.00  0.00    +0.000 NA
ATOM      2  C   UNL     1       3.299   3.992  17.686  0.00  0.00    +0.000 C 
ENDROOT
BRANCH   2   3
ATOM      3  C   UNL     1       4.534   4.291  16.803  0.00  0.00    +0.000 A 
ATOM      4  C   UNL     1       5.810   4.552  17.341  0.00  0.00    +0.000 A 
ATOM      5  C   UNL     1       6.934   4.832  16.550  0.00  0.00    +0.000 A 
ATOM      6  C   UNL     1       6.842   4.830  15.171  0.00  0.00    +0.000 A 
ATOM      7  C   UNL     1       5.602   4.559  14.595  0.00  0.00    +0.000 A 
ATOM      8  C   UNL     1       4.466   4.299  15.400  0.00  0.00    +0.000 A 
BRANCH   6   9
ATOM      9  O   UNL     1       7.995   5.159  14.516  0.00  0.00    +0.000 OA
ATOM     10  C   UNL     1       7.924   5.208  13.099  0.00  0.00    +0.000 C 
ENDBRANCH   6   9
ENDBRANCH   2   3
BRANCH   1  12
ATOM     11  C   UNL     1       4.395   1.272  19.045  0.00  0.00    +0.000 C 
ATOM     12  O   UNL     1       3.779   1.785  17.879  0.00  0.00    +0.000 OA
ENDBRANCH   1  12
BRANCH   2  13
ATOM     13  C   UNL     1       2.275   5.086  17.986  0.00  0.00    +0.000 C 
BRANCH  13  14
ATOM     14  S   UNL     1       2.452   5.888  19.543  0.00  0.00    +0.000 S 
ATOM     15  O   UNL     1       1.519   5.244  20.463  0.00  0.00    +0.000 OA
ATOM     16  O   UNL     1       3.868   5.909  19.865  0.00  0.00    +0.000 OA
BRANCH  14  17
ATOM     17  C   UNL     1       1.959   7.587  19.388  0.00  0.00    +0.000 A 
ATOM     18  C   UNL     1       1.429   8.255  20.498  0.00  0.00    +0.000 A 
ATOM     19  C   UNL     1       0.987   9.573  20.367  0.00  0.00    +0.000 A 
ATOM     20  C   UNL     1       1.089  10.236  19.138  0.00  0.00    +0.000 A 
ATOM     21  C   UNL     1       0.593  11.642  18.977  0.00  0.00    +0.000 C 
ATOM     22  C   UNL     1       1.657   9.567  18.043  0.00  0.00    +0.000 A 
ATOM     23  C   UNL     1       2.109   8.250  18.169  0.00  0.00    +0.000 A 
ENDBRANCH  14  17
ENDBRANCH  13  14
ENDBRANCH   2  13
TORSDOF 6
ENDMDL
