MODEL 1
REMARK VINA RESULT:      -8.7      0.000      0.000
REMARK  Name = 
REMARK  9 active torsions:
REMARK  status: ('A' for Active; 'I' for Inactive)
REMARK    1  A    between atoms: C_1  and  O_2
REMARK    2  A    between atoms: O_2  and  C_3
REMARK    3  A    between atoms: C_8  and  S_9
REMARK    4  A    between atoms: S_9  and  N_12
REMARK    5  A    between atoms: N_12  and  C_13
REMARK    6  A    between atoms: C_13  and  C_14
REMARK    7  A    between atoms: C_17  and  C_18
REMARK    8  A    between atoms: C_21  and  C_22
REMARK    9  A    between atoms: C_22  and  O_23
REMARK                            x       y       z     vdW  Elec       q    Type
REMARK                         _______ _______ _______ _____ _____    ______ ____
ROOT
ATOM      1  N   UNL     1       5.803   3.902  18.873  0.00  0.00    +0.000 NA
ATOM      2  H   UNL     1       6.210   3.035  19.220  0.00  0.00    +0.000 HD
ENDROOT
BRANCH   1   3
ATOM      3  S   UNL     1       4.140   3.737  18.778  0.00  0.00    +0.000 S 
ATOM      4  O   UNL     1       3.717   3.083  19.995  0.00  0.00    +0.000 OA
ATOM      5  O   UNL     1       3.791   3.247  17.467  0.00  0.00    +0.000 OA
BRANCH   3  11
ATOM      6  C   UNL     1       1.205   9.411  18.911  0.00  0.00    +0.000 A 
ATOM      7  C   UNL     1       1.042   9.055  20.250  0.00  0.00    +0.000 A 
ATOM      8  C   UNL     1       1.596   7.869  20.760  0.00  0.00    +0.000 A 
ATOM      9  C   UNL     1       2.306   7.048  19.876  0.00  0.00    +0.000 A 
ATOM     10  N   UNL     1       2.911   5.825  20.066  0.00  0.00    +0.000 N 
ATOM     11  C   UNL     1       3.436   5.350  18.884  0.00  0.00    +0.000 A 
ATOM     12  C   UNL     1       3.230   6.335  17.938  0.00  0.00    +0.000 A 
ATOM     13  C   UNL     1       2.494   7.388  18.539  0.00  0.00    +0.000 A 
ATOM     14  C   UNL     1       1.945   8.588  18.055  0.00  0.00    +0.000 A 
ATOM     15  H   UNL     1       2.909   5.298  20.933  0.00  0.00    +0.000 HD
BRANCH   6  17
ATOM     16  C   UNL     1      -0.655  10.860  18.586  0.00  0.00    +0.000 C 
ATOM     17  O   UNL     1       0.697  10.528  18.304  0.00  0.00    +0.000 OA
ENDBRANCH   6  17
ENDBRANCH   3  11
ENDBRANCH   1   3
BRANCH   1  18
ATOM     18  C   UNL     1       6.458   4.421  17.663  0.00  0.00    +0.000 C 
BRANCH  18  19
ATOM     19  C   UNL     1       7.012   5.810  17.872  0.00  0.00    +0.000 A 
ATOM     20  C   UNL     1       7.934   6.066  18.893  0.00  0.00    +0.000 A 
ATOM     21  C   UNL     1       8.454   7.351  19.079  0.00  0.00    +0.000 A 
ATOM     22  C   UNL     1       8.099   8.418  18.236  0.00  0.00    +0.000 A 
ATOM     23  C   UNL     1       7.193   8.138  17.198  0.00  0.00    +0.000 A 
ATOM     24  C   UNL     1       6.651   6.860  17.021  0.00  0.00    +0.000 A 
BRANCH  22  25
ATOM     25  C   UNL     1       8.659   9.776  18.432  0.00  0.00    +0.000 A 
ATOM     26  C   UNL     1       8.288  10.849  17.603  0.00  0.00    +0.000 A 
ATOM     27  C   UNL     1       8.818  12.131  17.781  0.00  0.00    +0.000 A 
ATOM     28  C   UNL     1       9.721  12.392  18.815  0.00  0.00    +0.000 A 
ATOM     29  C   UNL     1      10.116  11.332  19.638  0.00  0.00    +0.000 A 
ATOM     30  C   UNL     1       9.591  10.048  19.450  0.00  0.00    +0.000 A 
BRANCH  28  31
ATOM     31  C   UNL     1      10.294  13.776  18.973  0.00  0.00    +0.000 C 
BRANCH  31  32
ATOM     32  O   UNL     1      10.176  14.535  17.776  0.00  0.00    +0.000 OA
ATOM     33  H   UNL     1       9.231  14.738  17.669  0.00  0.00    +0.000 HD
ENDBRANCH  31  32
ENDBRANCH  28  31
ENDBRANCH  22  25
ENDBRANCH  18  19
ENDBRANCH   1  18
TORSDOF 8
ENDMDL
MODEL 2
REMARK VINA RESULT:      -8.4      0.935      1.687
REMARK  Name = 
REMARK  9 active torsions:
REMARK  status: ('A' for Active; 'I' for Inactive)
REMARK    1  A    between atoms: C_1  and  O_2
REMARK    2  A    between atoms: O_2  and  C_3
REMARK    3  A    between atoms: C_8  and  S_9
REMARK    4  A    between atoms: S_9  and  N_12
REMARK    5  A    between atoms: N_12  and  C_13
REMARK    6  A    between atoms: C_13  and  C_14
REMARK    7  A    between atoms: C_17  and  C_18
REMARK    8  A    between atoms: C_21  and  C_22
REMARK    9  A    between atoms: C_22  and  O_23
REMARK                            x       y       z     vdW  Elec       q    Type
REMARK                         _______ _______ _______ _____ _____    ______ ____
ROOT
ATOM      1  N   UNL     1       5.914   3.852  18.755  0.00  0.00    +0.000 NA
ATOM      2  H   UNL     1       6.462   3.056  19.077  0.00  0.00    +0.000 HD
ENDROOT
BRANCH   1   3
ATOM      3  S   UNL     1       4.291   3.444  18.746  0.00  0.00    +0.000 S 
ATOM      4  O   UNL     1       4.052   2.666  19.941  0.00  0.00    +0.000 OA
ATOM      5  O   UNL     1       3.929   2.982  17.429  0.00  0.00    +0.000 OA
BRANCH   3  11
ATOM      6  C   UNL     1       1.313   8.971  19.940  0.00  0.00    +0.000 A 
ATOM      7  C   UNL     1       1.646   9.191  18.603  0.00  0.00    +0.000 A 
ATOM      8  C   UNL     1       2.282   8.200  17.838  0.00  0.00    +0.000 A 
ATOM      9  C   UNL     1       2.584   6.985  18.466  0.00  0.00    +0.000 A 
ATOM     10  N   UNL     1       3.233   5.863  17.999  0.00  0.00    +0.000 N 
ATOM     11  C   UNL     1       3.367   4.925  18.999  0.00  0.00    +0.000 A 
ATOM     12  C   UNL     1       2.715   5.432  20.105  0.00  0.00    +0.000 A 
ATOM     13  C   UNL     1       2.249   6.735  19.794  0.00  0.00    +0.000 A 
ATOM     14  C   UNL     1       1.598   7.736  20.534  0.00  0.00    +0.000 A 
ATOM     15  H   UNL     1       3.632   5.760  17.072  0.00  0.00    +0.000 HD
BRANCH   6  17
ATOM     16  C   UNL     1       0.608   9.499  22.150  0.00  0.00    +0.000 C 
ATOM     17  O   UNL     1       0.712   9.866  20.782  0.00  0.00    +0.000 OA
ENDBRANCH   6  17
ENDBRANCH   3  11
ENDBRANCH   1   3
BRANCH   1  18
ATOM     18  C   UNL     1       6.422   4.455  17.513  0.00  0.00    +0.000 C 
BRANCH  18  19
ATOM     19  C   UNL     1       7.010   5.825  17.749  0.00  0.00    +0.000 A 
ATOM     20  C   UNL     1       6.598   6.922  16.985  0.00  0.00    +0.000 A 
ATOM     21  C   UNL     1       7.137   8.193  17.212  0.00  0.00    +0.000 A 
ATOM     22  C   UNL     1       8.081   8.421  18.228  0.00  0.00    +0.000 A 
ATOM     23  C   UNL     1       8.464   7.314  19.004  0.00  0.00    +0.000 A 
ATOM     24  C   UNL     1       7.947   6.036  18.767  0.00  0.00    +0.000 A 
BRANCH  22  25
ATOM     25  C   UNL     1       8.643   9.771  18.469  0.00  0.00    +0.000 A 
ATOM     26  C   UNL     1       8.396  10.837  17.587  0.00  0.00    +0.000 A 
ATOM     27  C   UNL     1       8.929  12.111  17.807  0.00  0.00    +0.000 A 
ATOM     28  C   UNL     1       9.710  12.372  18.935  0.00  0.00    +0.000 A 
ATOM     29  C   UNL     1       9.984  11.318  19.814  0.00  0.00    +0.000 A 
ATOM     30  C   UNL     1       9.456  10.042  19.585  0.00  0.00    +0.000 A 
BRANCH  28  31
ATOM     31  C   UNL     1      10.292  13.746  19.138  0.00  0.00    +0.000 C 
BRANCH  31  32
ATOM     32  O   UNL     1       9.304  14.681  19.555  0.00  0.00    +0.000 OA
ATOM     33  H   UNL     1       8.443  14.302  19.308  0.00  0.00    +0.000 HD
ENDBRANCH  31  32
ENDBRANCH  28  31
ENDBRANCH  22  25
ENDBRANCH  18  19
ENDBRANCH   1  18
TORSDOF 8
ENDMDL
MODEL 3
REMARK VINA RESULT:      -8.3      4.582      8.786
REMARK  Name = 
REMARK  9 active torsions:
REMARK  status: ('A' for Active; 'I' for Inactive)
REMARK    1  A    between atoms: C_1  and  O_2
REMARK    2  A    between atoms: O_2  and  C_3
REMARK    3  A    between atoms: C_8  and  S_9
REMARK    4  A    between atoms: S_9  and  N_12
REMARK    5  A    between atoms: N_12  and  C_13
REMARK    6  A    between atoms: C_13  and  C_14
REMARK    7  A    between atoms: C_17  and  C_18
REMARK    8  A    between atoms: C_21  and  C_22
REMARK    9  A    between atoms: C_22  and  O_23
REMARK                            x       y       z     vdW  Elec       q    Type
REMARK                         _______ _______ _______ _____ _____    ______ ____
ROOT
ATOM      1  N   UNL     1       4.360   5.895  18.341  0.00  0.00    +0.000 NA
ATOM      2  H   UNL     1       4.228   5.987  19.347  0.00  0.00    +0.000 HD
ENDROOT
BRANCH   1   3
ATOM      3  S   UNL     1       5.996   5.852  17.995  0.00  0.00    +0.000 S 
ATOM      4  O   UNL     1       6.592   4.912  18.918  0.00  0.00    +0.000 OA
ATOM      5  O   UNL     1       6.479   7.202  17.837  0.00  0.00    +0.000 OA
BRANCH   3  11
ATOM      6  C   UNL     1       6.270   3.312  12.138  0.00  0.00    +0.000 A 
ATOM      7  C   UNL     1       7.284   4.260  12.008  0.00  0.00    +0.000 A 
ATOM      8  C   UNL     1       7.672   5.066  13.091  0.00  0.00    +0.000 A 
ATOM      9  C   UNL     1       6.996   4.894  14.306  0.00  0.00    +0.000 A 
ATOM     10  N   UNL     1       7.118   5.555  15.508  0.00  0.00    +0.000 N 
ATOM     11  C   UNL     1       6.189   5.093  16.416  0.00  0.00    +0.000 A 
ATOM     12  C   UNL     1       5.517   4.057  15.798  0.00  0.00    +0.000 A 
ATOM     13  C   UNL     1       5.990   3.946  14.466  0.00  0.00    +0.000 A 
ATOM     14  C   UNL     1       5.632   3.139  13.372  0.00  0.00    +0.000 A 
ATOM     15  H   UNL     1       7.745   6.331  15.691  0.00  0.00    +0.000 HD
BRANCH   6  17
ATOM     16  C   UNL     1       6.340   1.176  11.091  0.00  0.00    +0.000 C 
ATOM     17  O   UNL     1       5.800   2.489  11.151  0.00  0.00    +0.000 OA
ENDBRANCH   6  17
ENDBRANCH   3  11
ENDBRANCH   1   3
BRANCH   1  18
ATOM     18  C   UNL     1       3.570   6.853  17.552  0.00  0.00    +0.000 C 
BRANCH  18  19
ATOM     19  C   UNL     1       2.675   7.700  18.424  0.00  0.00    +0.000 A 
ATOM     20  C   UNL     1       2.097   8.873  17.929  0.00  0.00    +0.000 A 
ATOM     21  C   UNL     1       1.260   9.652  18.735  0.00  0.00    +0.000 A 
ATOM     22  C   UNL     1       0.945   9.273  20.052  0.00  0.00    +0.000 A 
ATOM     23  C   UNL     1       1.512   8.078  20.525  0.00  0.00    +0.000 A 
ATOM     24  C   UNL     1       2.369   7.307  19.732  0.00  0.00    +0.000 A 
BRANCH  22  25
ATOM     25  C   UNL     1       0.051  10.098  20.899  0.00  0.00    +0.000 A 
ATOM     26  C   UNL     1      -0.634  11.209  20.377  0.00  0.00    +0.000 A 
ATOM     27  C   UNL     1      -1.473  11.994  21.174  0.00  0.00    +0.000 A 
ATOM     28  C   UNL     1      -1.679  11.678  22.520  0.00  0.00    +0.000 A 
ATOM     29  C   UNL     1      -0.990  10.588  23.061  0.00  0.00    +0.000 A 
ATOM     30  C   UNL     1      -0.143   9.811  22.262  0.00  0.00    +0.000 A 
BRANCH  28  31
ATOM     31  C   UNL     1      -2.570  12.552  23.363  0.00  0.00    +0.000 C 
BRANCH  31  32
ATOM     32  O   UNL     1      -3.621  11.808  23.966  0.00  0.00    +0.000 OA
ATOM     33  H   UNL     1      -3.238  11.368  24.744  0.00  0.00    +0.000 HD
ENDBRANCH  31  32
ENDBRANCH  28  31
ENDBRANCH  22  25
ENDBRANCH  18  19
ENDBRANCH   1  18
TORSDOF 8
ENDMDL
MODEL 4
REMARK VINA RESULT:      -8.2      5.196      7.747
REMARK  Name = 
REMARK  9 active torsions:
REMARK  status: ('A' for Active; 'I' for Inactive)
REMARK    1  A    between atoms: C_1  and  O_2
REMARK    2  A    between atoms: O_2  and  C_3
REMARK    3  A    between atoms: C_8  and  S_9
REMARK    4  A    between atoms: S_9  and  N_12
REMARK    5  A    between atoms: N_12  and  C_13
REMARK    6  A    between atoms: C_13  and  C_14
REMARK    7  A    between atoms: C_17  and  C_18
REMARK    8  A    between atoms: C_21  and  C_22
REMARK    9  A    between atoms: C_22  and  O_23
REMARK                            x       y       z     vdW  Elec       q    Type
REMARK                         _______ _______ _______ _____ _____    ______ ____
ROOT
ATOM      1  N   UNL     1       1.095  10.502  21.745  0.00  0.00    +0.000 NA
ATOM      2  H   UNL     1       1.424  10.359  22.699  0.00  0.00    +0.000 HD
ENDROOT
BRANCH   1   3
ATOM      3  S   UNL     1       0.324  11.983  21.638  0.00  0.00    +0.000 S 
ATOM      4  O   UNL     1       1.322  12.941  21.219  0.00  0.00    +0.000 OA
ATOM      5  O   UNL     1      -0.495  12.173  22.810  0.00  0.00    +0.000 OA
BRANCH   3  11
ATOM      6  C   UNL     1      -3.713  11.207  16.747  0.00  0.00    +0.000 A 
ATOM      7  C   UNL     1      -4.629  11.612  17.718  0.00  0.00    +0.000 A 
ATOM      8  C   UNL     1      -4.208  11.983  19.006  0.00  0.00    +0.000 A 
ATOM      9  C   UNL     1      -2.838  11.918  19.288  0.00  0.00    +0.000 A 
ATOM     10  N   UNL     1      -2.143  12.167  20.451  0.00  0.00    +0.000 N 
ATOM     11  C   UNL     1      -0.800  11.904  20.283  0.00  0.00    +0.000 A 
ATOM     12  C   UNL     1      -0.630  11.557  18.957  0.00  0.00    +0.000 A 
ATOM     13  C   UNL     1      -1.903  11.530  18.333  0.00  0.00    +0.000 A 
ATOM     14  C   UNL     1      -2.346  11.181  17.046  0.00  0.00    +0.000 A 
ATOM     15  H   UNL     1      -2.558  12.432  21.338  0.00  0.00    +0.000 HD
BRANCH   6  17
ATOM     16  C   UNL     1      -2.966  10.198  14.725  0.00  0.00    +0.000 C 
ATOM     17  O   UNL     1      -4.010  10.809  15.471  0.00  0.00    +0.000 OA
ENDBRANCH   6  17
ENDBRANCH   3  11
ENDBRANCH   1   3
BRANCH   1  18
ATOM     18  C   UNL     1       0.348   9.358  21.200  0.00  0.00    +0.000 C 
BRANCH  18  19
ATOM     19  C   UNL     1       1.193   8.525  20.266  0.00  0.00    +0.000 A 
ATOM     20  C   UNL     1       1.578   9.020  19.016  0.00  0.00    +0.000 A 
ATOM     21  C   UNL     1       2.369   8.250  18.157  0.00  0.00    +0.000 A 
ATOM     22  C   UNL     1       2.829   6.975  18.525  0.00  0.00    +0.000 A 
ATOM     23  C   UNL     1       2.455   6.503  19.795  0.00  0.00    +0.000 A 
ATOM     24  C   UNL     1       1.645   7.258  20.650  0.00  0.00    +0.000 A 
BRANCH  22  25
ATOM     25  C   UNL     1       3.673   6.166  17.613  0.00  0.00    +0.000 A 
ATOM     26  C   UNL     1       4.613   6.768  16.758  0.00  0.00    +0.000 A 
ATOM     27  C   UNL     1       5.407   6.010  15.891  0.00  0.00    +0.000 A 
ATOM     28  C   UNL     1       5.308   4.616  15.869  0.00  0.00    +0.000 A 
ATOM     29  C   UNL     1       4.364   4.002  16.698  0.00  0.00    +0.000 A 
ATOM     30  C   UNL     1       3.564   4.765  17.557  0.00  0.00    +0.000 A 
BRANCH  28  31
ATOM     31  C   UNL     1       6.159   3.824  14.911  0.00  0.00    +0.000 C 
BRANCH  31  32
ATOM     32  O   UNL     1       6.906   4.669  14.046  0.00  0.00    +0.000 OA
ATOM     33  H   UNL     1       6.759   5.580  14.353  0.00  0.00    +0.000 HD
ENDBRANCH  31  32
ENDBRANCH  28  31
ENDBRANCH  22  25
ENDBRANCH  18  19
ENDBRANCH   1  18
TORSDOF 8
ENDMDL
MODEL 5
REMARK VINA RESULT:      -8.1      0.827      1.204
REMARK  Name = 
REMARK  9 active torsions:
REMARK  status: ('A' for Active; 'I' for Inactive)
REMARK    1  A    between atoms: C_1  and  O_2
REMARK    2  A    between atoms: O_2  and  C_3
REMARK    3  A    between atoms: C_8  and  S_9
REMARK    4  A    between atoms: S_9  and  N_12
REMARK    5  A    between atoms: N_12  and  C_13
REMARK    6  A    between atoms: C_13  and  C_14
REMARK    7  A    between atoms: C_17  and  C_18
REMARK    8  A    between atoms: C_21  and  C_22
REMARK    9  A    between atoms: C_22  and  O_23
REMARK                            x       y       z     vdW  Elec       q    Type
REMARK                         _______ _______ _______ _____ _____    ______ ____
ROOT
ATOM      1  N   UNL     1       5.162   4.461  17.092  0.00  0.00    +0.000 NA
ATOM      2  H   UNL     1       4.982   5.282  16.516  0.00  0.00    +0.000 HD
ENDROOT
BRANCH   1   3
ATOM      3  S   UNL     1       3.883   4.231  18.146  0.00  0.00    +0.000 S 
ATOM      4  O   UNL     1       4.452   3.780  19.396  0.00  0.00    +0.000 OA
ATOM      5  O   UNL     1       2.833   3.516  17.463  0.00  0.00    +0.000 OA
BRANCH   3  11
ATOM      6  C   UNL     1       1.037   9.842  19.264  0.00  0.00    +0.000 A 
ATOM      7  C   UNL     1       0.961   9.304  20.549  0.00  0.00    +0.000 A 
ATOM      8  C   UNL     1       1.532   8.056  20.851  0.00  0.00    +0.000 A 
ATOM      9  C   UNL     1       2.170   7.364  19.815  0.00  0.00    +0.000 A 
ATOM     10  N   UNL     1       2.771   6.124  19.793  0.00  0.00    +0.000 N 
ATOM     11  C   UNL     1       3.209   5.816  18.522  0.00  0.00    +0.000 A 
ATOM     12  C   UNL     1       2.952   6.924  17.738  0.00  0.00    +0.000 A 
ATOM     13  C   UNL     1       2.272   7.885  18.528  0.00  0.00    +0.000 A 
ATOM     14  C   UNL     1       1.707   9.143  18.254  0.00  0.00    +0.000 A 
ATOM     15  H   UNL     1       2.820   5.482  20.576  0.00  0.00    +0.000 HD
BRANCH   6  17
ATOM     16  C   UNL     1       0.778  12.175  19.654  0.00  0.00    +0.000 C 
ATOM     17  O   UNL     1       0.504  11.034  18.854  0.00  0.00    +0.000 OA
ENDBRANCH   6  17
ENDBRANCH   3  11
ENDBRANCH   1   3
BRANCH   1  18
ATOM     18  C   UNL     1       6.498   4.451  17.706  0.00  0.00    +0.000 C 
BRANCH  18  19
ATOM     19  C   UNL     1       7.038   5.846  17.908  0.00  0.00    +0.000 A 
ATOM     20  C   UNL     1       7.972   6.113  18.915  0.00  0.00    +0.000 A 
ATOM     21  C   UNL     1       8.478   7.405  19.095  0.00  0.00    +0.000 A 
ATOM     22  C   UNL     1       8.095   8.468  18.259  0.00  0.00    +0.000 A 
ATOM     23  C   UNL     1       7.177   8.178  17.236  0.00  0.00    +0.000 A 
ATOM     24  C   UNL     1       6.649   6.893  17.065  0.00  0.00    +0.000 A 
BRANCH  22  25
ATOM     25  C   UNL     1       8.640   9.833  18.449  0.00  0.00    +0.000 A 
ATOM     26  C   UNL     1       9.502  10.136  19.518  0.00  0.00    +0.000 A 
ATOM     27  C   UNL     1      10.014  11.424  19.706  0.00  0.00    +0.000 A 
ATOM     28  C   UNL     1       9.702  12.452  18.812  0.00  0.00    +0.000 A 
ATOM     29  C   UNL     1       8.830  12.174  17.755  0.00  0.00    +0.000 A 
ATOM     30  C   UNL     1       8.312  10.886  17.576  0.00  0.00    +0.000 A 
BRANCH  28  31
ATOM     31  C   UNL     1      10.248  13.836  19.048  0.00  0.00    +0.000 C 
BRANCH  31  32
ATOM     32  O   UNL     1      11.601  13.802  19.487  0.00  0.00    +0.000 OA
ATOM     33  H   UNL     1      11.884  14.727  19.582  0.00  0.00    +0.000 HD
ENDBRANCH  31  32
ENDBRANCH  28  31
ENDBRANCH  22  25
ENDBRANCH  18  19
ENDBRANCH   1  18
TORSDOF 8
ENDMDL
MODEL 6
REMARK VINA RESULT:      -8.1      0.797      1.471
REMARK  Name = 
REMARK  9 active torsions:
REMARK  status: ('A' for Active; 'I' for Inactive)
REMARK    1  A    between atoms: C_1  and  O_2
REMARK    2  A    between atoms: O_2  and  C_3
REMARK    3  A    between atoms: C_8  and  S_9
REMARK    4  A    between atoms: S_9  and  N_12
REMARK    5  A    between atoms: N_12  and  C_13
REMARK    6  A    between atoms: C_13  and  C_14
REMARK    7  A    between atoms: C_17  and  C_18
REMARK    8  A    between atoms: C_21  and  C_22
REMARK    9  A    between atoms: C_22  and  O_23
REMARK                            x       y       z     vdW  Elec       q    Type
REMARK                         _______ _______ _______ _____ _____    ______ ____
ROOT
ATOM      1  N   UNL     1       5.316   4.553  17.042  0.00  0.00    +0.000 NA
ATOM      2  H   UNL     1       5.141   5.391  16.490  0.00  0.00    +0.000 HD
ENDROOT
BRANCH   1   3
ATOM      3  S   UNL     1       4.029   4.292  18.080  0.00  0.00    +0.000 S 
ATOM      4  O   UNL     1       4.591   3.841  19.333  0.00  0.00    +0.000 OA
ATOM      5  O   UNL     1       3.000   3.564  17.379  0.00  0.00    +0.000 OA
BRANCH   3  11
ATOM      6  C   UNL     1       1.083   9.854  19.182  0.00  0.00    +0.000 A 
ATOM      7  C   UNL     1       0.926   9.276  20.442  0.00  0.00    +0.000 A 
ATOM      8  C   UNL     1       1.485   8.022  20.742  0.00  0.00    +0.000 A 
ATOM      9  C   UNL     1       2.193   7.364  19.729  0.00  0.00    +0.000 A 
ATOM     10  N   UNL     1       2.801   6.129  19.708  0.00  0.00    +0.000 N 
ATOM     11  C   UNL     1       3.322   5.862  18.460  0.00  0.00    +0.000 A 
ATOM     12  C   UNL     1       3.110   6.992  17.695  0.00  0.00    +0.000 A 
ATOM     13  C   UNL     1       2.374   7.926  18.468  0.00  0.00    +0.000 A 
ATOM     14  C   UNL     1       1.821   9.189  18.197  0.00  0.00    +0.000 A 
ATOM     15  H   UNL     1       2.803   5.463  20.472  0.00  0.00    +0.000 HD
BRANCH   6  17
ATOM     16  C   UNL     1       0.936  12.204  19.528  0.00  0.00    +0.000 C 
ATOM     17  O   UNL     1       0.570  11.056  18.775  0.00  0.00    +0.000 OA
ENDBRANCH   6  17
ENDBRANCH   3  11
ENDBRANCH   1   3
BRANCH   1  18
ATOM     18  C   UNL     1       6.648   4.523  17.665  0.00  0.00    +0.000 C 
BRANCH  18  19
ATOM     19  C   UNL     1       7.202   5.911  17.880  0.00  0.00    +0.000 A 
ATOM     20  C   UNL     1       6.802   6.975  17.065  0.00  0.00    +0.000 A 
ATOM     21  C   UNL     1       7.309   8.262  17.272  0.00  0.00    +0.000 A 
ATOM     22  C   UNL     1       8.208   8.540  18.316  0.00  0.00    +0.000 A 
ATOM     23  C   UNL     1       8.578   7.466  19.143  0.00  0.00    +0.000 A 
ATOM     24  C   UNL     1       8.093   6.171  18.927  0.00  0.00    +0.000 A 
BRANCH  22  25
ATOM     25  C   UNL     1       8.736   9.908  18.536  0.00  0.00    +0.000 A 
ATOM     26  C   UNL     1       9.498  10.225  19.674  0.00  0.00    +0.000 A 
ATOM     27  C   UNL     1       9.994  11.515  19.889  0.00  0.00    +0.000 A 
ATOM     28  C   UNL     1       9.767  12.531  18.956  0.00  0.00    +0.000 A 
ATOM     29  C   UNL     1       8.994  12.238  17.827  0.00  0.00    +0.000 A 
ATOM     30  C   UNL     1       8.491  10.948  17.621  0.00  0.00    +0.000 A 
BRANCH  28  31
ATOM     31  C   UNL     1      10.293  13.917  19.220  0.00  0.00    +0.000 C 
BRANCH  31  32
ATOM     32  O   UNL     1       9.264  14.895  19.142  0.00  0.00    +0.000 OA
ATOM     33  H   UNL     1       9.695  15.760  19.251  0.00  0.00    +0.000 HD
ENDBRANCH  31  32
ENDBRANCH  28  31
ENDBRANCH  22  25
ENDBRANCH  18  19
ENDBRANCH   1  18
TORSDOF 8
ENDMDL
MODEL 7
REMARK VINA RESULT:      -8.0      4.469      8.090
REMARK  Name = 
REMARK  9 active torsions:
REMARK  status: ('A' for Active; 'I' for Inactive)
REMARK    1  A    between atoms: C_1  and  O_2
REMARK    2  A    between atoms: O_2  and  C_3
REMARK    3  A    between atoms: C_8  and  S_9
REMARK    4  A    between atoms: S_9  and  N_12
REMARK    5  A    between atoms: N_12  and  C_13
REMARK    6  A    between atoms: C_13  and  C_14
REMARK    7  A    between atoms: C_17  and  C_18
REMARK    8  A    between atoms: C_21  and  C_22
REMARK    9  A    between atoms: C_22  and  O_23
REMARK                            x       y       z     vdW  Elec       q    Type
REMARK                         _______ _______ _______ _____ _____    ______ ____
ROOT
ATOM      1  N   UNL     1       5.465   5.538  18.865  0.00  0.00    +0.000 NA
ATOM      2  H   UNL     1       5.420   6.183  19.652  0.00  0.00    +0.000 HD
ENDROOT
BRANCH   1   3
ATOM      3  S   UNL     1       6.938   5.710  18.088  0.00  0.00    +0.000 S 
ATOM      4  O   UNL     1       7.870   4.838  18.768  0.00  0.00    +0.000 OA
ATOM      5  O   UNL     1       7.196   7.113  17.874  0.00  0.00    +0.000 OA
BRANCH   3  11
ATOM      6  C   UNL     1       5.945   3.419  12.206  0.00  0.00    +0.000 A 
ATOM      7  C   UNL     1       7.017   4.268  11.927  0.00  0.00    +0.000 A 
ATOM      8  C   UNL     1       7.665   4.982  12.949  0.00  0.00    +0.000 A 
ATOM      9  C   UNL     1       7.191   4.824  14.257  0.00  0.00    +0.000 A 
ATOM     10  N   UNL     1       7.583   5.415  15.438  0.00  0.00    +0.000 N 
ATOM     11  C   UNL     1       6.778   5.007  16.480  0.00  0.00    +0.000 A 
ATOM     12  C   UNL     1       5.906   4.071  15.960  0.00  0.00    +0.000 A 
ATOM     13  C   UNL     1       6.133   3.973  14.563  0.00  0.00    +0.000 A 
ATOM     14  C   UNL     1       5.511   3.256  13.527  0.00  0.00    +0.000 A 
ATOM     15  H   UNL     1       8.310   6.116  15.529  0.00  0.00    +0.000 HD
BRANCH   6  17
ATOM     16  C   UNL     1       3.893   3.102  11.044  0.00  0.00    +0.000 C 
ATOM     17  O   UNL     1       5.230   2.692  11.293  0.00  0.00    +0.000 OA
ENDBRANCH   6  17
ENDBRANCH   3  11
ENDBRANCH   1   3
BRANCH   1  18
ATOM     18  C   UNL     1       4.281   5.585  17.994  0.00  0.00    +0.000 C 
BRANCH  18  19
ATOM     19  C   UNL     1       3.316   6.668  18.411  0.00  0.00    +0.000 A 
ATOM     20  C   UNL     1       2.706   6.638  19.669  0.00  0.00    +0.000 A 
ATOM     21  C   UNL     1       1.819   7.648  20.057  0.00  0.00    +0.000 A 
ATOM     22  C   UNL     1       1.534   8.739  19.219  0.00  0.00    +0.000 A 
ATOM     23  C   UNL     1       2.176   8.769  17.969  0.00  0.00    +0.000 A 
ATOM     24  C   UNL     1       3.045   7.750  17.565  0.00  0.00    +0.000 A 
BRANCH  22  25
ATOM     25  C   UNL     1       0.600   9.811  19.639  0.00  0.00    +0.000 A 
ATOM     26  C   UNL     1       0.056  10.714  18.709  0.00  0.00    +0.000 A 
ATOM     27  C   UNL     1      -0.822  11.731  19.101  0.00  0.00    +0.000 A 
ATOM     28  C   UNL     1      -1.208  11.863  20.437  0.00  0.00    +0.000 A 
ATOM     29  C   UNL     1      -0.661  10.986  21.379  0.00  0.00    +0.000 A 
ATOM     30  C   UNL     1       0.225   9.976  20.984  0.00  0.00    +0.000 A 
BRANCH  28  31
ATOM     31  C   UNL     1      -2.136  12.980  20.837  0.00  0.00    +0.000 C 
BRANCH  31  32
ATOM     32  O   UNL     1      -2.087  14.063  19.916  0.00  0.00    +0.000 OA
ATOM     33  H   UNL     1      -1.365  13.866  19.296  0.00  0.00    +0.000 HD
ENDBRANCH  31  32
ENDBRANCH  28  31
ENDBRANCH  22  25
ENDBRANCH  18  19
ENDBRANCH   1  18
TORSDOF 8
ENDMDL
MODEL 8
REMARK VINA RESULT:      -8.0      0.981      1.832
REMARK  Name = 
REMARK  9 active torsions:
REMARK  status: ('A' for Active; 'I' for Inactive)
REMARK    1  A    between atoms: C_1  and  O_2
REMARK    2  A    between atoms: O_2  and  C_3
REMARK    3  A    between atoms: C_8  and  S_9
REMARK    4  A    between atoms: S_9  and  N_12
REMARK    5  A    between atoms: N_12  and  C_13
REMARK    6  A    between atoms: C_13  and  C_14
REMARK    7  A    between atoms: C_17  and  C_18
REMARK    8  A    between atoms: C_21  and  C_22
REMARK    9  A    between atoms: C_22  and  O_23
REMARK                            x       y       z     vdW  Elec       q    Type
REMARK                         _______ _______ _______ _____ _____    ______ ____
ROOT
ATOM      1  N   UNL     1       5.347   4.367  17.094  0.00  0.00    +0.000 NA
ATOM      2  H   UNL     1       5.030   5.245  16.686  0.00  0.00    +0.000 HD
ENDROOT
BRANCH   1   3
ATOM      3  S   UNL     1       4.294   3.906  18.309  0.00  0.00    +0.000 S 
ATOM      4  O   UNL     1       5.099   3.646  19.481  0.00  0.00    +0.000 OA
ATOM      5  O   UNL     1       3.356   2.946  17.779  0.00  0.00    +0.000 OA
BRANCH   3  11
ATOM      6  C   UNL     1       1.183   9.169  20.168  0.00  0.00    +0.000 A 
ATOM      7  C   UNL     1       1.445   9.530  18.847  0.00  0.00    +0.000 A 
ATOM      8  C   UNL     1       2.078   8.643  17.960  0.00  0.00    +0.000 A 
ATOM      9  C   UNL     1       2.451   7.386  18.452  0.00  0.00    +0.000 A 
ATOM     10  N   UNL     1       3.116   6.342  17.849  0.00  0.00    +0.000 N 
ATOM     11  C   UNL     1       3.331   5.317  18.746  0.00  0.00    +0.000 A 
ATOM     12  C   UNL     1       2.714   5.689  19.924  0.00  0.00    +0.000 A 
ATOM     13  C   UNL     1       2.189   6.996  19.763  0.00  0.00    +0.000 A 
ATOM     14  C   UNL     1       1.539   7.895  20.626  0.00  0.00    +0.000 A 
ATOM     15  H   UNL     1       3.475   6.344  16.901  0.00  0.00    +0.000 HD
BRANCH   6  17
ATOM     16  C   UNL     1       0.036  11.188  20.686  0.00  0.00    +0.000 C 
ATOM     17  O   UNL     1       0.591   9.954  21.120  0.00  0.00    +0.000 OA
ENDBRANCH   6  17
ENDBRANCH   3  11
ENDBRANCH   1   3
BRANCH   1  18
ATOM     18  C   UNL     1       6.773   4.365  17.457  0.00  0.00    +0.000 C 
BRANCH  18  19
ATOM     19  C   UNL     1       7.287   5.758  17.734  0.00  0.00    +0.000 A 
ATOM     20  C   UNL     1       6.965   6.821  16.884  0.00  0.00    +0.000 A 
ATOM     21  C   UNL     1       7.434   8.112  17.147  0.00  0.00    +0.000 A 
ATOM     22  C   UNL     1       8.214   8.395  18.281  0.00  0.00    +0.000 A 
ATOM     23  C   UNL     1       8.506   7.321  19.139  0.00  0.00    +0.000 A 
ATOM     24  C   UNL     1       8.060   6.023  18.869  0.00  0.00    +0.000 A 
BRANCH  22  25
ATOM     25  C   UNL     1       8.702   9.767  18.559  0.00  0.00    +0.000 A 
ATOM     26  C   UNL     1       9.334  10.088  19.773  0.00  0.00    +0.000 A 
ATOM     27  C   UNL     1       9.792  11.382  20.043  0.00  0.00    +0.000 A 
ATOM     28  C   UNL     1       9.656  12.398  19.093  0.00  0.00    +0.000 A 
ATOM     29  C   UNL     1       9.011  12.102  17.888  0.00  0.00    +0.000 A 
ATOM     30  C   UNL     1       8.546  10.808  17.626  0.00  0.00    +0.000 A 
BRANCH  28  31
ATOM     31  C   UNL     1      10.137  13.789  19.416  0.00  0.00    +0.000 C 
BRANCH  31  32
ATOM     32  O   UNL     1       9.957  14.677  18.320  0.00  0.00    +0.000 OA
ATOM     33  H   UNL     1      10.096  15.575  18.665  0.00  0.00    +0.000 HD
ENDBRANCH  31  32
ENDBRANCH  28  31
ENDBRANCH  22  25
ENDBRANCH  18  19
ENDBRANCH   1  18
TORSDOF 8
ENDMDL
MODEL 9
REMARK VINA RESULT:      -7.9      5.087      8.034
REMARK  Name = 
REMARK  9 active torsions:
REMARK  status: ('A' for Active; 'I' for Inactive)
REMARK    1  A    between atoms: C_1  and  O_2
REMARK    2  A    between atoms: O_2  and  C_3
REMARK    3  A    between atoms: C_8  and  S_9
REMARK    4  A    between atoms: S_9  and  N_12
REMARK    5  A    between atoms: N_12  and  C_13
REMARK    6  A    between atoms: C_13  and  C_14
REMARK    7  A    between atoms: C_17  and  C_18
REMARK    8  A    between atoms: C_21  and  C_22
REMARK    9  A    between atoms: C_22  and  O_23
REMARK                            x       y       z     vdW  Elec       q    Type
REMARK                         _______ _______ _______ _____ _____    ______ ____
ROOT
ATOM      1  N   UNL     1       0.848  10.847  21.696  0.00  0.00    +0.000 NA
ATOM      2  H   UNL     1       0.844  10.917  22.713  0.00  0.00    +0.000 HD
ENDROOT
BRANCH   1   3
ATOM      3  S   UNL     1       0.397  12.316  21.034  0.00  0.00    +0.000 S 
ATOM      4  O   UNL     1       1.359  12.618  19.999  0.00  0.00    +0.000 OA
ATOM      5  O   UNL     1       0.083  13.236  22.100  0.00  0.00    +0.000 OA
BRANCH   3  11
ATOM      6  C   UNL     1      -5.125  11.901  17.846  0.00  0.00    +0.000 A 
ATOM      7  C   UNL     1      -4.263  11.469  16.838  0.00  0.00    +0.000 A 
ATOM      8  C   UNL     1      -2.887  11.316  17.073  0.00  0.00    +0.000 A 
ATOM      9  C   UNL     1      -2.405  11.625  18.351  0.00  0.00    +0.000 A 
ATOM     10  N   UNL     1      -1.125  11.619  18.860  0.00  0.00    +0.000 N 
ATOM     11  C   UNL     1      -1.116  12.067  20.164  0.00  0.00    +0.000 A 
ATOM     12  C   UNL     1      -2.434  12.285  20.515  0.00  0.00    +0.000 A 
ATOM     13  C   UNL     1      -3.247  12.043  19.378  0.00  0.00    +0.000 A 
ATOM     14  C   UNL     1      -4.623  12.173  19.124  0.00  0.00    +0.000 A 
ATOM     15  H   UNL     1      -0.287  11.394  18.336  0.00  0.00    +0.000 HD
BRANCH   6  17
ATOM     16  C   UNL     1      -6.895  13.239  16.986  0.00  0.00    +0.000 C 
ATOM     17  O   UNL     1      -6.474  12.102  17.726  0.00  0.00    +0.000 OA
ENDBRANCH   6  17
ENDBRANCH   3  11
ENDBRANCH   1   3
BRANCH   1  18
ATOM     18  C   UNL     1       0.128   9.672  21.182  0.00  0.00    +0.000 C 
BRANCH  18  19
ATOM     19  C   UNL     1       1.000   8.821  20.291  0.00  0.00    +0.000 A 
ATOM     20  C   UNL     1       1.346   9.252  19.006  0.00  0.00    +0.000 A 
ATOM     21  C   UNL     1       2.162   8.466  18.186  0.00  0.00    +0.000 A 
ATOM     22  C   UNL     1       2.687   7.239  18.627  0.00  0.00    +0.000 A 
ATOM     23  C   UNL     1       2.351   6.833  19.930  0.00  0.00    +0.000 A 
ATOM     24  C   UNL     1       1.516   7.603  20.747  0.00  0.00    +0.000 A 
BRANCH  22  25
ATOM     25  C   UNL     1       3.557   6.414  17.756  0.00  0.00    +0.000 A 
ATOM     26  C   UNL     1       3.412   5.017  17.688  0.00  0.00    +0.000 A 
ATOM     27  C   UNL     1       4.235   4.233  16.872  0.00  0.00    +0.000 A 
ATOM     28  C   UNL     1       5.217   4.823  16.073  0.00  0.00    +0.000 A 
ATOM     29  C   UNL     1       5.389   6.210  16.143  0.00  0.00    +0.000 A 
ATOM     30  C   UNL     1       4.570   6.990  16.969  0.00  0.00    +0.000 A 
BRANCH  28  31
ATOM     31  C   UNL     1       6.105   3.956  15.220  0.00  0.00    +0.000 C 
BRANCH  31  32
ATOM     32  O   UNL     1       7.405   4.513  15.074  0.00  0.00    +0.000 OA
ATOM     33  H   UNL     1       7.884   3.940  14.453  0.00  0.00    +0.000 HD
ENDBRANCH  31  32
ENDBRANCH  28  31
ENDBRANCH  22  25
ENDBRANCH  18  19
ENDBRANCH   1  18
TORSDOF 8
ENDMDL
