MODEL 1
REMARK VINA RESULT:      -6.7      0.000      0.000
REMARK  Name = 
REMARK  6 active torsions:
REMARK  status: ('A' for Active; 'I' for Inactive)
REMARK    1  A    between atoms: N_1  and  S_2
REMARK    2  A    between atoms: S_2  and  C_5
REMARK    3  A    between atoms: C_8  and  O_9
REMARK    4  A    between atoms: O_9  and  C_10
REMARK    5  A    between atoms: C_13  and  S_14
REMARK    6  A    between atoms: S_14  and  N_15
REMARK                            x       y       z     vdW  Elec       q    Type
REMARK                         _______ _______ _______ _____ _____    ______ ____
ROOT
ATOM      1  O   UNL     1       2.397   5.911  19.775  0.00  0.00    +0.000 OA
ENDROOT
BRANCH   1   5
ATOM      2  C   UNL     1       5.638   4.913  17.371  0.00  0.00    +0.000 A 
ATOM      3  C   UNL     1       5.836   5.443  18.646  0.00  0.00    +0.000 A 
ATOM      4  C   UNL     1       4.724   5.772  19.426  0.00  0.00    +0.000 A 
ATOM      5  C   UNL     1       3.430   5.578  18.929  0.00  0.00    +0.000 A 
ATOM      6  C   UNL     1       3.248   5.012  17.663  0.00  0.00    +0.000 A 
ATOM      7  C   UNL     1       4.349   4.714  16.866  0.00  0.00    +0.000 A 
BRANCH   2   8
ATOM      8  S   UNL     1       7.008   4.446  16.356  0.00  0.00    +0.000 S 
ATOM      9  O   UNL     1       6.549   3.569  15.305  0.00  0.00    +0.000 OA
ATOM     10  O   UNL     1       8.135   4.127  17.199  0.00  0.00    +0.000 OA
BRANCH   8  11
ATOM     11  N   UNL     1       7.375   5.916  15.631  0.00  0.00    +0.000 NA
ATOM     12  H   UNL     1       8.313   6.208  15.901  0.00  0.00    +0.000 HD
ATOM     13  H   UNL     1       6.651   6.605  15.822  0.00  0.00    +0.000 HD
ENDBRANCH   8  11
ENDBRANCH   2   8
ENDBRANCH   1   5
BRANCH   1  14
ATOM     14  C   UNL     1       1.908   7.200  19.782  0.00  0.00    +0.000 A 
ATOM     15  C   UNL     1       1.380   7.649  20.996  0.00  0.00    +0.000 A 
ATOM     16  C   UNL     1       0.874   8.946  21.106  0.00  0.00    +0.000 A 
ATOM     17  C   UNL     1       0.910   9.790  19.994  0.00  0.00    +0.000 A 
ATOM     18  C   UNL     1       1.439   9.353  18.778  0.00  0.00    +0.000 A 
ATOM     19  C   UNL     1       1.971   8.069  18.686  0.00  0.00    +0.000 A 
BRANCH  17  20
ATOM     20  S   UNL     1       0.288  11.436  20.119  0.00  0.00    +0.000 S 
ATOM     21  O   UNL     1       1.182  12.341  19.415  0.00  0.00    +0.000 OA
ATOM     22  O   UNL     1      -1.139  11.427  19.877  0.00  0.00    +0.000 OA
BRANCH  20  23
ATOM     23  N   UNL     1       0.489  11.750  21.747  0.00  0.00    +0.000 NA
ATOM     24  H   UNL     1       1.456  11.583  22.023  0.00  0.00    +0.000 HD
ATOM     25  H   UNL     1       0.145  12.683  21.971  0.00  0.00    +0.000 HD
ENDBRANCH  20  23
ENDBRANCH  17  20
ENDBRANCH   1  14
TORSDOF 6
ENDMDL
MODEL 2
REMARK VINA RESULT:      -6.7      0.807      7.835
REMARK  Name = 
REMARK  6 active torsions:
REMARK  status: ('A' for Active; 'I' for Inactive)
REMARK    1  A    between atoms: N_1  and  S_2
REMARK    2  A    between atoms: S_2  and  C_5
REMARK    3  A    between atoms: C_8  and  O_9
REMARK    4  A    between atoms: O_9  and  C_10
REMARK    5  A    between atoms: C_13  and  S_14
REMARK    6  A    between atoms: S_14  and  N_15
REMARK                            x       y       z     vdW  Elec       q    Type
REMARK                         _______ _______ _______ _____ _____    ______ ____
ROOT
ATOM      1  O   UNL     1       2.329   5.745  19.750  0.00  0.00    +0.000 OA
ENDROOT
BRANCH   1   5
ATOM      2  C   UNL     1       1.045   9.693  19.961  0.00  0.00    +0.000 A 
ATOM      3  C   UNL     1       1.554   9.174  18.770  0.00  0.00    +0.000 A 
ATOM      4  C   UNL     1       1.981   7.844  18.736  0.00  0.00    +0.000 A 
ATOM      5  C   UNL     1       1.904   7.047  19.884  0.00  0.00    +0.000 A 
ATOM      6  C   UNL     1       1.359   7.571  21.060  0.00  0.00    +0.000 A 
ATOM      7  C   UNL     1       0.964   8.905  21.112  0.00  0.00    +0.000 A 
BRANCH   2   8
ATOM      8  S   UNL     1       0.458  11.359  20.051  0.00  0.00    +0.000 S 
ATOM      9  O   UNL     1       1.234  12.088  21.026  0.00  0.00    +0.000 OA
ATOM     10  O   UNL     1      -0.985  11.352  20.052  0.00  0.00    +0.000 OA
BRANCH   8  11
ATOM     11  N   UNL     1       0.917  11.934  18.542  0.00  0.00    +0.000 NA
ATOM     12  H   UNL     1       1.759  11.451  18.231  0.00  0.00    +0.000 HD
ATOM     13  H   UNL     1       0.997  12.949  18.549  0.00  0.00    +0.000 HD
ENDBRANCH   8  11
ENDBRANCH   2   8
ENDBRANCH   1   5
BRANCH   1  14
ATOM     14  C   UNL     1       3.380   5.452  18.908  0.00  0.00    +0.000 A 
ATOM     15  C   UNL     1       4.655   5.769  19.387  0.00  0.00    +0.000 A 
ATOM     16  C   UNL     1       5.784   5.496  18.613  0.00  0.00    +0.000 A 
ATOM     17  C   UNL     1       5.626   4.896  17.361  0.00  0.00    +0.000 A 
ATOM     18  C   UNL     1       4.359   4.572  16.876  0.00  0.00    +0.000 A 
ATOM     19  C   UNL     1       3.240   4.818  17.668  0.00  0.00    +0.000 A 
BRANCH  17  20
ATOM     20  S   UNL     1       7.044   4.531  16.376  0.00  0.00    +0.000 S 
ATOM     21  O   UNL     1       8.129   4.094  17.240  0.00  0.00    +0.000 OA
ATOM     22  O   UNL     1       6.635   3.767  15.216  0.00  0.00    +0.000 OA
BRANCH  20  23
ATOM     23  N   UNL     1       7.467   6.046  15.818  0.00  0.00    +0.000 NA
ATOM     24  H   UNL     1       8.078   6.512  16.488  0.00  0.00    +0.000 HD
ATOM     25  H   UNL     1       7.852   5.980  14.876  0.00  0.00    +0.000 HD
ENDBRANCH  20  23
ENDBRANCH  17  20
ENDBRANCH   1  14
TORSDOF 6
ENDMDL
MODEL 3
REMARK VINA RESULT:      -6.7      0.806      7.933
REMARK  Name = 
REMARK  6 active torsions:
REMARK  status: ('A' for Active; 'I' for Inactive)
REMARK    1  A    between atoms: N_1  and  S_2
REMARK    2  A    between atoms: S_2  and  C_5
REMARK    3  A    between atoms: C_8  and  O_9
REMARK    4  A    between atoms: O_9  and  C_10
REMARK    5  A    between atoms: C_13  and  S_14
REMARK    6  A    between atoms: S_14  and  N_15
REMARK                            x       y       z     vdW  Elec       q    Type
REMARK                         _______ _______ _______ _____ _____    ______ ____
ROOT
ATOM      1  O   UNL     1       2.473   5.985  19.759  0.00  0.00    +0.000 OA
ENDROOT
BRANCH   1   5
ATOM      2  C   UNL     1       0.922   9.842  19.856  0.00  0.00    +0.000 A 
ATOM      3  C   UNL     1       0.867   9.025  20.986  0.00  0.00    +0.000 A 
ATOM      4  C   UNL     1       1.394   7.732  20.917  0.00  0.00    +0.000 A 
ATOM      5  C   UNL     1       1.962   7.263  19.727  0.00  0.00    +0.000 A 
ATOM      6  C   UNL     1       2.042   8.106  18.614  0.00  0.00    +0.000 A 
ATOM      7  C   UNL     1       1.488   9.382  18.664  0.00  0.00    +0.000 A 
BRANCH   2   8
ATOM      8  S   UNL     1       0.304  11.498  19.898  0.00  0.00    +0.000 S 
ATOM      9  O   UNL     1      -1.138  11.469  19.966  0.00  0.00    +0.000 OA
ATOM     10  O   UNL     1       1.023  12.296  18.934  0.00  0.00    +0.000 OA
BRANCH   8  11
ATOM     11  N   UNL     1       0.847  11.996  21.408  0.00  0.00    +0.000 NA
ATOM     12  H   UNL     1       0.093  12.468  21.905  0.00  0.00    +0.000 HD
ATOM     13  H   UNL     1       1.700  12.544  21.323  0.00  0.00    +0.000 HD
ENDBRANCH   8  11
ENDBRANCH   2   8
ENDBRANCH   1   5
BRANCH   1  14
ATOM     14  C   UNL     1       3.579   5.672  18.999  0.00  0.00    +0.000 A 
ATOM     15  C   UNL     1       3.323   5.223  17.700  0.00  0.00    +0.000 A 
ATOM     16  C   UNL     1       4.380   4.895  16.849  0.00  0.00    +0.000 A 
ATOM     17  C   UNL     1       5.693   5.029  17.306  0.00  0.00    +0.000 A 
ATOM     18  C   UNL     1       5.959   5.481  18.600  0.00  0.00    +0.000 A 
ATOM     19  C   UNL     1       4.900   5.836  19.432  0.00  0.00    +0.000 A 
BRANCH  17  20
ATOM     20  S   UNL     1       7.041   4.633  16.239  0.00  0.00    +0.000 S 
ATOM     21  O   UNL     1       7.233   5.716  15.288  0.00  0.00    +0.000 OA
ATOM     22  O   UNL     1       8.134   4.103  17.026  0.00  0.00    +0.000 OA
BRANCH  20  23
ATOM     23  N   UNL     1       6.419   3.350  15.371  0.00  0.00    +0.000 NA
ATOM     24  H   UNL     1       5.400   3.351  15.418  0.00  0.00    +0.000 HD
ATOM     25  H   UNL     1       6.793   3.350  14.423  0.00  0.00    +0.000 HD
ENDBRANCH  20  23
ENDBRANCH  17  20
ENDBRANCH   1  14
TORSDOF 6
ENDMDL
MODEL 4
REMARK VINA RESULT:      -6.7      0.829      7.876
REMARK  Name = 
REMARK  6 active torsions:
REMARK  status: ('A' for Active; 'I' for Inactive)
REMARK    1  A    between atoms: N_1  and  S_2
REMARK    2  A    between atoms: S_2  and  C_5
REMARK    3  A    between atoms: C_8  and  O_9
REMARK    4  A    between atoms: O_9  and  C_10
REMARK    5  A    between atoms: C_13  and  S_14
REMARK    6  A    between atoms: S_14  and  N_15
REMARK                            x       y       z     vdW  Elec       q    Type
REMARK                         _______ _______ _______ _____ _____    ______ ____
ROOT
ATOM      1  O   UNL     1       2.467   6.012  19.788  0.00  0.00    +0.000 OA
ENDROOT
BRANCH   1   5
ATOM      2  C   UNL     1       0.935   9.877  19.796  0.00  0.00    +0.000 A 
ATOM      3  C   UNL     1       0.876   9.087  20.944  0.00  0.00    +0.000 A 
ATOM      4  C   UNL     1       1.397   7.790  20.905  0.00  0.00    +0.000 A 
ATOM      5  C   UNL     1       1.962   7.291  19.726  0.00  0.00    +0.000 A 
ATOM      6  C   UNL     1       2.045   8.108  18.594  0.00  0.00    +0.000 A 
ATOM      7  C   UNL     1       1.498   9.387  18.614  0.00  0.00    +0.000 A 
BRANCH   2   8
ATOM      8  S   UNL     1       0.324  11.536  19.800  0.00  0.00    +0.000 S 
ATOM      9  O   UNL     1       1.436  12.456  19.795  0.00  0.00    +0.000 OA
ATOM     10  O   UNL     1      -0.766  11.637  20.740  0.00  0.00    +0.000 OA
BRANCH   8  11
ATOM     11  N   UNL     1      -0.373  11.615  18.274  0.00  0.00    +0.000 NA
ATOM     12  H   UNL     1      -1.358  11.359  18.332  0.00  0.00    +0.000 HD
ATOM     13  H   UNL     1       0.162  11.069  17.601  0.00  0.00    +0.000 HD
ENDBRANCH   8  11
ENDBRANCH   2   8
ENDBRANCH   1   5
BRANCH   1  14
ATOM     14  C   UNL     1       3.465   5.628  18.918  0.00  0.00    +0.000 A 
ATOM     15  C   UNL     1       4.773   5.903  19.326  0.00  0.00    +0.000 A 
ATOM     16  C   UNL     1       5.853   5.538  18.519  0.00  0.00    +0.000 A 
ATOM     17  C   UNL     1       5.611   4.889  17.306  0.00  0.00    +0.000 A 
ATOM     18  C   UNL     1       4.309   4.607  16.891  0.00  0.00    +0.000 A 
ATOM     19  C   UNL     1       3.239   4.945  17.717  0.00  0.00    +0.000 A 
BRANCH  17  20
ATOM     20  S   UNL     1       6.964   4.408  16.281  0.00  0.00    +0.000 S 
ATOM     21  O   UNL     1       8.121   4.126  17.116  0.00  0.00    +0.000 OA
ATOM     22  O   UNL     1       6.495   3.473  15.280  0.00  0.00    +0.000 OA
BRANCH  20  23
ATOM     23  N   UNL     1       7.301   5.832  15.476  0.00  0.00    +0.000 NA
ATOM     24  H   UNL     1       8.157   6.250  15.839  0.00  0.00    +0.000 HD
ATOM     25  H   UNL     1       7.308   5.674  14.469  0.00  0.00    +0.000 HD
ENDBRANCH  20  23
ENDBRANCH  17  20
ENDBRANCH   1  14
TORSDOF 6
ENDMDL
MODEL 5
REMARK VINA RESULT:      -6.7      0.996      7.918
REMARK  Name = 
REMARK  6 active torsions:
REMARK  status: ('A' for Active; 'I' for Inactive)
REMARK    1  A    between atoms: N_1  and  S_2
REMARK    2  A    between atoms: S_2  and  C_5
REMARK    3  A    between atoms: C_8  and  O_9
REMARK    4  A    between atoms: O_9  and  C_10
REMARK    5  A    between atoms: C_13  and  S_14
REMARK    6  A    between atoms: S_14  and  N_15
REMARK                            x       y       z     vdW  Elec       q    Type
REMARK                         _______ _______ _______ _____ _____    ______ ____
ROOT
ATOM      1  O   UNL     1       2.383   5.928  19.656  0.00  0.00    +0.000 OA
ENDROOT
BRANCH   1   5
ATOM      2  C   UNL     1       1.014   9.830  20.088  0.00  0.00    +0.000 A 
ATOM      3  C   UNL     1       1.019   8.954  21.174  0.00  0.00    +0.000 A 
ATOM      4  C   UNL     1       1.482   7.648  20.992  0.00  0.00    +0.000 A 
ATOM      5  C   UNL     1       1.927   7.224  19.735  0.00  0.00    +0.000 A 
ATOM      6  C   UNL     1       1.949   8.124  18.665  0.00  0.00    +0.000 A 
ATOM      7  C   UNL     1       1.458   9.416  18.828  0.00  0.00    +0.000 A 
BRANCH   2   8
ATOM      8  S   UNL     1       0.474  11.503  20.269  0.00  0.00    +0.000 S 
ATOM      9  O   UNL     1       0.271  12.085  18.964  0.00  0.00    +0.000 OA
ATOM     10  O   UNL     1       1.260  12.146  21.294  0.00  0.00    +0.000 OA
BRANCH   8  11
ATOM     11  N   UNL     1      -1.051  11.269  20.935  0.00  0.00    +0.000 NA
ATOM     12  H   UNL     1      -1.760  11.650  20.310  0.00  0.00    +0.000 HD
ATOM     13  H   UNL     1      -1.092  11.631  21.885  0.00  0.00    +0.000 HD
ENDBRANCH   8  11
ENDBRANCH   2   8
ENDBRANCH   1   5
BRANCH   1  14
ATOM     14  C   UNL     1       3.434   5.622  18.819  0.00  0.00    +0.000 A 
ATOM     15  C   UNL     1       4.714   5.841  19.337  0.00  0.00    +0.000 A 
ATOM     16  C   UNL     1       5.843   5.546  18.569  0.00  0.00    +0.000 A 
ATOM     17  C   UNL     1       5.678   5.025  17.283  0.00  0.00    +0.000 A 
ATOM     18  C   UNL     1       4.405   4.800  16.758  0.00  0.00    +0.000 A 
ATOM     19  C   UNL     1       3.285   5.065  17.543  0.00  0.00    +0.000 A 
BRANCH  17  20
ATOM     20  S   UNL     1       7.093   4.635  16.305  0.00  0.00    +0.000 S 
ATOM     21  O   UNL     1       7.344   5.720  15.370  0.00  0.00    +0.000 OA
ATOM     22  O   UNL     1       8.134   4.106  17.162  0.00  0.00    +0.000 OA
BRANCH  20  23
ATOM     23  N   UNL     1       6.533   3.351  15.396  0.00  0.00    +0.000 NA
ATOM     24  H   UNL     1       6.320   2.557  15.999  0.00  0.00    +0.000 HD
ATOM     25  H   UNL     1       5.756   3.649  14.808  0.00  0.00    +0.000 HD
ENDBRANCH  20  23
ENDBRANCH  17  20
ENDBRANCH   1  14
TORSDOF 6
ENDMDL
MODEL 6
REMARK VINA RESULT:      -6.7      1.146      7.925
REMARK  Name = 
REMARK  6 active torsions:
REMARK  status: ('A' for Active; 'I' for Inactive)
REMARK    1  A    between atoms: N_1  and  S_2
REMARK    2  A    between atoms: S_2  and  C_5
REMARK    3  A    between atoms: C_8  and  O_9
REMARK    4  A    between atoms: O_9  and  C_10
REMARK    5  A    between atoms: C_13  and  S_14
REMARK    6  A    between atoms: S_14  and  N_15
REMARK                            x       y       z     vdW  Elec       q    Type
REMARK                         _______ _______ _______ _____ _____    ______ ____
ROOT
ATOM      1  O   UNL     1       2.505   6.092  19.712  0.00  0.00    +0.000 OA
ENDROOT
BRANCH   1   5
ATOM      2  C   UNL     1       0.885   9.918  19.864  0.00  0.00    +0.000 A 
ATOM      3  C   UNL     1       0.843   9.083  20.981  0.00  0.00    +0.000 A 
ATOM      4  C   UNL     1       1.393   7.801  20.893  0.00  0.00    +0.000 A 
ATOM      5  C   UNL     1       1.971   7.361  19.697  0.00  0.00    +0.000 A 
ATOM      6  C   UNL     1       2.037   8.221  18.598  0.00  0.00    +0.000 A 
ATOM      7  C   UNL     1       1.461   9.486  18.665  0.00  0.00    +0.000 A 
BRANCH   2   8
ATOM      8  S   UNL     1       0.237  11.562  19.929  0.00  0.00    +0.000 S 
ATOM      9  O   UNL     1       1.159  12.412  20.643  0.00  0.00    +0.000 OA
ATOM     10  O   UNL     1      -1.170  11.503  20.242  0.00  0.00    +0.000 OA
BRANCH   8  11
ATOM     11  N   UNL     1       0.333  11.999  18.310  0.00  0.00    +0.000 NA
ATOM     12  H   UNL     1       1.210  11.663  17.914  0.00  0.00    +0.000 HD
ATOM     13  H   UNL     1       0.178  12.999  18.194  0.00  0.00    +0.000 HD
ENDBRANCH   8  11
ENDBRANCH   2   8
ENDBRANCH   1   5
BRANCH   1  14
ATOM     14  C   UNL     1       3.546   5.778  18.865  0.00  0.00    +0.000 A 
ATOM     15  C   UNL     1       4.782   5.545  19.474  0.00  0.00    +0.000 A 
ATOM     16  C   UNL     1       5.894   5.206  18.700  0.00  0.00    +0.000 A 
ATOM     17  C   UNL     1       5.755   5.095  17.314  0.00  0.00    +0.000 A 
ATOM     18  C   UNL     1       4.524   5.322  16.697  0.00  0.00    +0.000 A 
ATOM     19  C   UNL     1       3.412   5.628  17.480  0.00  0.00    +0.000 A 
BRANCH  17  20
ATOM     20  S   UNL     1       7.146   4.653  16.323  0.00  0.00    +0.000 S 
ATOM     21  O   UNL     1       7.411   5.717  15.368  0.00  0.00    +0.000 OA
ATOM     22  O   UNL     1       8.185   4.112  17.174  0.00  0.00    +0.000 OA
BRANCH  20  23
ATOM     23  N   UNL     1       6.541   3.370  15.444  0.00  0.00    +0.000 NA
ATOM     24  H   UNL     1       6.776   2.487  15.897  0.00  0.00    +0.000 HD
ATOM     25  H   UNL     1       5.544   3.499  15.272  0.00  0.00    +0.000 HD
ENDBRANCH  20  23
ENDBRANCH  17  20
ENDBRANCH   1  14
TORSDOF 6
ENDMDL
MODEL 7
REMARK VINA RESULT:      -6.7      0.829      1.130
REMARK  Name = 
REMARK  6 active torsions:
REMARK  status: ('A' for Active; 'I' for Inactive)
REMARK    1  A    between atoms: N_1  and  S_2
REMARK    2  A    between atoms: S_2  and  C_5
REMARK    3  A    between atoms: C_8  and  O_9
REMARK    4  A    between atoms: O_9  and  C_10
REMARK    5  A    between atoms: C_13  and  S_14
REMARK    6  A    between atoms: S_14  and  N_15
REMARK                            x       y       z     vdW  Elec       q    Type
REMARK                         _______ _______ _______ _____ _____    ______ ____
ROOT
ATOM      1  O   UNL     1       2.540   6.088  19.891  0.00  0.00    +0.000 OA
ENDROOT
BRANCH   1   5
ATOM      2  C   UNL     1       5.642   4.937  17.373  0.00  0.00    +0.000 A 
ATOM      3  C   UNL     1       5.895   5.279  18.701  0.00  0.00    +0.000 A 
ATOM      4  C   UNL     1       4.829   5.666  19.519  0.00  0.00    +0.000 A 
ATOM      5  C   UNL     1       3.528   5.715  19.007  0.00  0.00    +0.000 A 
ATOM      6  C   UNL     1       3.285   5.335  17.684  0.00  0.00    +0.000 A 
ATOM      7  C   UNL     1       4.345   4.982  16.853  0.00  0.00    +0.000 A 
BRANCH   2   8
ATOM      8  S   UNL     1       6.947   4.406  16.304  0.00  0.00    +0.000 S 
ATOM      9  O   UNL     1       6.425   3.465  15.342  0.00  0.00    +0.000 OA
ATOM     10  O   UNL     1       8.126   4.139  17.093  0.00  0.00    +0.000 OA
BRANCH   8  11
ATOM     11  N   UNL     1       7.263   5.828  15.467  0.00  0.00    +0.000 NA
ATOM     12  H   UNL     1       6.488   6.478  15.591  0.00  0.00    +0.000 HD
ATOM     13  H   UNL     1       7.494   5.633  14.495  0.00  0.00    +0.000 HD
ENDBRANCH   8  11
ENDBRANCH   2   8
ENDBRANCH   1   5
BRANCH   1  14
ATOM     14  C   UNL     1       1.995   7.351  19.814  0.00  0.00    +0.000 A 
ATOM     15  C   UNL     1       1.374   7.822  20.974  0.00  0.00    +0.000 A 
ATOM     16  C   UNL     1       0.806   9.097  20.999  0.00  0.00    +0.000 A 
ATOM     17  C   UNL     1       0.872   9.898  19.856  0.00  0.00    +0.000 A 
ATOM     18  C   UNL     1       1.493   9.438  18.694  0.00  0.00    +0.000 A 
ATOM     19  C   UNL     1       2.086   8.178  18.688  0.00  0.00    +0.000 A 
BRANCH  17  20
ATOM     20  S   UNL     1       0.171  11.517  19.875  0.00  0.00    +0.000 S 
ATOM     21  O   UNL     1      -1.221  11.432  20.285  0.00  0.00    +0.000 OA
ATOM     22  O   UNL     1       1.101  12.431  20.505  0.00  0.00    +0.000 OA
BRANCH  20  23
ATOM     23  N   UNL     1       0.161  11.900  18.250  0.00  0.00    +0.000 NA
ATOM     24  H   UNL     1      -0.634  11.459  17.787  0.00  0.00    +0.000 HD
ATOM     25  H   UNL     1       0.209  12.910  18.125  0.00  0.00    +0.000 HD
ENDBRANCH  20  23
ENDBRANCH  17  20
ENDBRANCH   1  14
TORSDOF 6
ENDMDL
MODEL 8
REMARK VINA RESULT:      -6.7      3.264      3.708
REMARK  Name = 
REMARK  6 active torsions:
REMARK  status: ('A' for Active; 'I' for Inactive)
REMARK    1  A    between atoms: N_1  and  S_2
REMARK    2  A    between atoms: S_2  and  C_5
REMARK    3  A    between atoms: C_8  and  O_9
REMARK    4  A    between atoms: O_9  and  C_10
REMARK    5  A    between atoms: C_13  and  S_14
REMARK    6  A    between atoms: S_14  and  N_15
REMARK                            x       y       z     vdW  Elec       q    Type
REMARK                         _______ _______ _______ _____ _____    ______ ____
ROOT
ATOM      1  O   UNL     1       2.154   7.980  20.472  0.00  0.00    +0.000 OA
ENDROOT
BRANCH   1   5
ATOM      2  C   UNL     1       2.398   4.133  18.913  0.00  0.00    +0.000 A 
ATOM      3  C   UNL     1       1.661   4.386  20.071  0.00  0.00    +0.000 A 
ATOM      4  C   UNL     1       1.604   5.690  20.571  0.00  0.00    +0.000 A 
ATOM      5  C   UNL     1       2.284   6.726  19.920  0.00  0.00    +0.000 A 
ATOM      6  C   UNL     1       2.989   6.464  18.741  0.00  0.00    +0.000 A 
ATOM      7  C   UNL     1       3.080   5.162  18.256  0.00  0.00    +0.000 A 
BRANCH   2   8
ATOM      8  S   UNL     1       2.475   2.510  18.218  0.00  0.00    +0.000 S 
ATOM      9  O   UNL     1       3.512   1.754  18.879  0.00  0.00    +0.000 OA
ATOM     10  O   UNL     1       2.376   2.605  16.781  0.00  0.00    +0.000 OA
BRANCH   8  11
ATOM     11  N   UNL     1       1.009   1.876  18.741  0.00  0.00    +0.000 NA
ATOM     12  H   UNL     1       0.376   1.775  17.949  0.00  0.00    +0.000 HD
ATOM     13  H   UNL     1       0.631   2.425  19.511  0.00  0.00    +0.000 HD
ENDBRANCH   8  11
ENDBRANCH   2   8
ENDBRANCH   1   5
BRANCH   1  14
ATOM     14  C   UNL     1       1.217   8.855  19.968  0.00  0.00    +0.000 A 
ATOM     15  C   UNL     1       0.373   9.458  20.907  0.00  0.00    +0.000 A 
ATOM     16  C   UNL     1      -0.599  10.371  20.494  0.00  0.00    +0.000 A 
ATOM     17  C   UNL     1      -0.713  10.681  19.137  0.00  0.00    +0.000 A 
ATOM     18  C   UNL     1       0.126  10.088  18.192  0.00  0.00    +0.000 A 
ATOM     19  C   UNL     1       1.115   9.203  18.616  0.00  0.00    +0.000 A 
BRANCH  17  20
ATOM     20  S   UNL     1      -1.927  11.844  18.600  0.00  0.00    +0.000 S 
ATOM     21  O   UNL     1      -2.904  11.165  17.764  0.00  0.00    +0.000 OA
ATOM     22  O   UNL     1      -2.321  12.673  19.719  0.00  0.00    +0.000 OA
BRANCH  20  23
ATOM     23  N   UNL     1      -1.033  12.820  17.582  0.00  0.00    +0.000 NA
ATOM     24  H   UNL     1      -0.056  12.835  17.874  0.00  0.00    +0.000 HD
ATOM     25  H   UNL     1      -1.175  12.541  16.612  0.00  0.00    +0.000 HD
ENDBRANCH  20  23
ENDBRANCH  17  20
ENDBRANCH   1  14
TORSDOF 6
ENDMDL
MODEL 9
REMARK VINA RESULT:      -6.7      3.293      8.138
REMARK  Name = 
REMARK  6 active torsions:
REMARK  status: ('A' for Active; 'I' for Inactive)
REMARK    1  A    between atoms: N_1  and  S_2
REMARK    2  A    between atoms: S_2  and  C_5
REMARK    3  A    between atoms: C_8  and  O_9
REMARK    4  A    between atoms: O_9  and  C_10
REMARK    5  A    between atoms: C_13  and  S_14
REMARK    6  A    between atoms: S_14  and  N_15
REMARK                            x       y       z     vdW  Elec       q    Type
REMARK                         _______ _______ _______ _____ _____    ______ ____
ROOT
ATOM      1  O   UNL     1       2.130   7.978  20.400  0.00  0.00    +0.000 OA
ENDROOT
BRANCH   1   5
ATOM      2  C   UNL     1      -0.764  10.648  19.065  0.00  0.00    +0.000 A 
ATOM      3  C   UNL     1      -0.728  10.248  20.400  0.00  0.00    +0.000 A 
ATOM      4  C   UNL     1       0.255   9.345  20.814  0.00  0.00    +0.000 A 
ATOM      5  C   UNL     1       1.187   8.846  19.897  0.00  0.00    +0.000 A 
ATOM      6  C   UNL     1       1.160   9.283  18.570  0.00  0.00    +0.000 A 
ATOM      7  C   UNL     1       0.163  10.155  18.141  0.00  0.00    +0.000 A 
BRANCH   2   8
ATOM      8  S   UNL     1      -1.964  11.815  18.494  0.00  0.00    +0.000 S 
ATOM      9  O   UNL     1      -2.487  12.553  19.619  0.00  0.00    +0.000 OA
ATOM     10  O   UNL     1      -2.814  11.179  17.517  0.00  0.00    +0.000 OA
BRANCH   8  11
ATOM     11  N   UNL     1      -0.984  12.875  17.635  0.00  0.00    +0.000 NA
ATOM     12  H   UNL     1      -1.552  13.420  16.988  0.00  0.00    +0.000 HD
ATOM     13  H   UNL     1      -0.210  12.380  17.198  0.00  0.00    +0.000 HD
ENDBRANCH   8  11
ENDBRANCH   2   8
ENDBRANCH   1   5
BRANCH   1  14
ATOM     14  C   UNL     1       2.262   6.720  19.853  0.00  0.00    +0.000 A 
ATOM     15  C   UNL     1       1.662   5.677  20.565  0.00  0.00    +0.000 A 
ATOM     16  C   UNL     1       1.728   4.368  20.083  0.00  0.00    +0.000 A 
ATOM     17  C   UNL     1       2.392   4.115  18.879  0.00  0.00    +0.000 A 
ATOM     18  C   UNL     1       2.991   5.150  18.159  0.00  0.00    +0.000 A 
ATOM     19  C   UNL     1       2.892   6.457  18.631  0.00  0.00    +0.000 A 
BRANCH  17  20
ATOM     20  S   UNL     1       2.473   2.469  18.249  0.00  0.00    +0.000 S 
ATOM     21  O   UNL     1       2.394   2.508  16.797  0.00  0.00    +0.000 OA
ATOM     22  O   UNL     1       3.519   1.745  18.940  0.00  0.00    +0.000 OA
BRANCH  20  23
ATOM     23  N   UNL     1       1.025   1.832  18.782  0.00  0.00    +0.000 NA
ATOM     24  H   UNL     1       0.865   2.083  19.758  0.00  0.00    +0.000 HD
ATOM     25  H   UNL     1       0.269   2.098  18.153  0.00  0.00    +0.000 HD
ENDBRANCH  20  23
ENDBRANCH  17  20
ENDBRANCH   1  14
TORSDOF 6
ENDMDL
