MODEL 1
REMARK VINA RESULT:      -7.0      0.000      0.000
REMARK  Name = 
REMARK  8 active torsions:
REMARK  status: ('A' for Active; 'I' for Inactive)
REMARK    1  A    between atoms: C_1  and  O_2
REMARK    2  A    between atoms: O_2  and  C_3
REMARK    3  A    between atoms: C_3  and  C_4
REMARK    4  A    between atoms: N_8  and  S_9
REMARK    5  A    between atoms: S_9  and  C_12
REMARK    6  A    between atoms: N_23  and  C_24
REMARK    7  A    between atoms: C_24  and  C_25
REMARK    8  A    between atoms: C_25  and  C_26
REMARK                            x       y       z     vdW  Elec       q    Type
REMARK                         _______ _______ _______ _____ _____    ______ ____
ROOT
ATOM      1  C   UNL     1       1.615   7.533  20.456  0.00  0.00    +0.000 A 
ATOM      2  C   UNL     1       1.424   6.275  21.080  0.00  0.00    +0.000 A 
ATOM      3  C   UNL     1       2.049   5.122  20.591  0.00  0.00    +0.000 A 
ATOM      4  F   UNL     1       1.760   3.943  21.155  0.00  0.00    +0.000 F 
ATOM      5  C   UNL     1       2.903   5.220  19.509  0.00  0.00    +0.000 A 
ATOM      6  C   UNL     1       3.074   6.475  18.913  0.00  0.00    +0.000 A 
ATOM      7  C   UNL     1       2.478   7.648  19.365  0.00  0.00    +0.000 A 
ATOM      8  C   UNL     1       3.932   6.284  17.749  0.00  0.00    +0.000 C 
ATOM      9  O   UNL     1       4.238   7.127  16.938  0.00  0.00    +0.000 OA
ATOM     10  C   UNL     1       4.312   4.782  17.740  0.00  0.00    +0.000 C 
ATOM     11  O   UNL     1       5.027   4.249  16.923  0.00  0.00    +0.000 OA
ATOM     12  N   UNL     1       3.673   4.237  18.847  0.00  0.00    +0.000 N 
ENDROOT
BRANCH   1  13
ATOM     13  S   UNL     1       0.789   8.983  21.123  0.00  0.00    +0.000 S 
ATOM     14  O   UNL     1       1.668   9.501  22.147  0.00  0.00    +0.000 OA
ATOM     15  O   UNL     1      -0.554   8.559  21.468  0.00  0.00    +0.000 OA
BRANCH  13  20
ATOM     16  C   UNL     1       0.020  11.456  19.994  0.00  0.00    +0.000 C 
ATOM     17  C   UNL     1      -1.325  11.158  19.337  0.00  0.00    +0.000 C 
ATOM     18  C   UNL     1      -0.915  10.369  18.101  0.00  0.00    +0.000 C 
ATOM     19  C   UNL     1       0.386   9.663  18.490  0.00  0.00    +0.000 C 
ATOM     20  N   UNL     1       0.688  10.127  19.873  0.00  0.00    +0.000 NA
BRANCH  16  21
ATOM     21  C   UNL     1      -0.098  12.110  21.363  0.00  0.00    +0.000 C 
BRANCH  21  23
ATOM     22  C   UNL     1      -1.555  11.474  23.124  0.00  0.00    +0.000 C 
ATOM     23  O   UNL     1      -1.421  12.147  21.882  0.00  0.00    +0.000 OA
ENDBRANCH  21  23
ENDBRANCH  16  21
ENDBRANCH  13  20
ENDBRANCH   1  13
BRANCH  12  24
ATOM     24  C   UNL     1       3.765   2.833  19.217  0.00  0.00    +0.000 C 
BRANCH  24  25
ATOM     25  C   UNL     1       2.901   1.897  18.364  0.00  0.00    +0.000 C 
BRANCH  25  26
ATOM     26  C   UNL     1       1.429   1.937  18.732  0.00  0.00    +0.000 C 
ATOM     27  F   UNL     1       0.861   3.031  18.159  0.00  0.00    +0.000 F 
ENDBRANCH  25  26
ENDBRANCH  24  25
ENDBRANCH  12  24
TORSDOF 7
ENDMDL
MODEL 2
REMARK VINA RESULT:      -6.9      0.719      1.036
REMARK  Name = 
REMARK  8 active torsions:
REMARK  status: ('A' for Active; 'I' for Inactive)
REMARK    1  A    between atoms: C_1  and  O_2
REMARK    2  A    between atoms: O_2  and  C_3
REMARK    3  A    between atoms: C_3  and  C_4
REMARK    4  A    between atoms: N_8  and  S_9
REMARK    5  A    between atoms: S_9  and  C_12
REMARK    6  A    between atoms: N_23  and  C_24
REMARK    7  A    between atoms: C_24  and  C_25
REMARK    8  A    between atoms: C_25  and  C_26
REMARK                            x       y       z     vdW  Elec       q    Type
REMARK                         _______ _______ _______ _____ _____    ______ ____
ROOT
ATOM      1  C   UNL     1       1.588   7.594  20.443  0.00  0.00    +0.000 A 
ATOM      2  C   UNL     1       1.398   6.336  21.069  0.00  0.00    +0.000 A 
ATOM      3  C   UNL     1       2.015   5.181  20.574  0.00  0.00    +0.000 A 
ATOM      4  F   UNL     1       1.727   4.003  21.139  0.00  0.00    +0.000 F 
ATOM      5  C   UNL     1       2.860   5.278  19.484  0.00  0.00    +0.000 A 
ATOM      6  C   UNL     1       3.029   6.532  18.887  0.00  0.00    +0.000 A 
ATOM      7  C   UNL     1       2.441   7.707  19.345  0.00  0.00    +0.000 A 
ATOM      8  C   UNL     1       3.876   6.339  17.716  0.00  0.00    +0.000 C 
ATOM      9  O   UNL     1       4.178   7.182  16.902  0.00  0.00    +0.000 OA
ATOM     10  C   UNL     1       4.252   4.836  17.702  0.00  0.00    +0.000 C 
ATOM     11  O   UNL     1       4.958   4.302  16.878  0.00  0.00    +0.000 OA
ATOM     12  N   UNL     1       3.621   4.293  18.814  0.00  0.00    +0.000 N 
ENDROOT
BRANCH   1  13
ATOM     13  S   UNL     1       0.772   9.046  21.119  0.00  0.00    +0.000 S 
ATOM     14  O   UNL     1       1.666   9.566  22.128  0.00  0.00    +0.000 OA
ATOM     15  O   UNL     1      -0.567   8.623  21.484  0.00  0.00    +0.000 OA
BRANCH  13  20
ATOM     16  C   UNL     1       0.050  11.543  20.013  0.00  0.00    +0.000 C 
ATOM     17  C   UNL     1      -1.339  11.300  19.431  0.00  0.00    +0.000 C 
ATOM     18  C   UNL     1      -1.029  10.488  18.180  0.00  0.00    +0.000 C 
ATOM     19  C   UNL     1       0.259   9.730  18.506  0.00  0.00    +0.000 C 
ATOM     20  N   UNL     1       0.654  10.187  19.867  0.00  0.00    +0.000 NA
BRANCH  16  21
ATOM     21  C   UNL     1       0.032  12.209  21.382  0.00  0.00    +0.000 C 
BRANCH  21  23
ATOM     22  C   UNL     1       1.306  14.028  20.548  0.00  0.00    +0.000 C 
ATOM     23  O   UNL     1       1.110  13.109  21.610  0.00  0.00    +0.000 OA
ENDBRANCH  21  23
ENDBRANCH  16  21
ENDBRANCH  13  20
ENDBRANCH   1  13
BRANCH  12  24
ATOM     24  C   UNL     1       3.712   2.888  19.183  0.00  0.00    +0.000 C 
BRANCH  24  25
ATOM     25  C   UNL     1       2.843   1.954  18.332  0.00  0.00    +0.000 C 
BRANCH  25  26
ATOM     26  C   UNL     1       1.379   1.964  18.734  0.00  0.00    +0.000 C 
ATOM     27  F   UNL     1       0.781   3.055  18.189  0.00  0.00    +0.000 F 
ENDBRANCH  25  26
ENDBRANCH  24  25
ENDBRANCH  12  24
TORSDOF 7
ENDMDL
MODEL 3
REMARK VINA RESULT:      -6.8      2.794      7.707
REMARK  Name = 
REMARK  8 active torsions:
REMARK  status: ('A' for Active; 'I' for Inactive)
REMARK    1  A    between atoms: C_1  and  O_2
REMARK    2  A    between atoms: O_2  and  C_3
REMARK    3  A    between atoms: C_3  and  C_4
REMARK    4  A    between atoms: N_8  and  S_9
REMARK    5  A    between atoms: S_9  and  C_12
REMARK    6  A    between atoms: N_23  and  C_24
REMARK    7  A    between atoms: C_24  and  C_25
REMARK    8  A    between atoms: C_25  and  C_26
REMARK                            x       y       z     vdW  Elec       q    Type
REMARK                         _______ _______ _______ _____ _____    ______ ____
ROOT
ATOM      1  C   UNL     1       2.556   6.811  19.326  0.00  0.00    +0.000 A 
ATOM      2  C   UNL     1       2.344   7.586  18.158  0.00  0.00    +0.000 A 
ATOM      3  C   UNL     1       1.645   8.797  18.210  0.00  0.00    +0.000 A 
ATOM      4  F   UNL     1       1.386   9.443  17.067  0.00  0.00    +0.000 F 
ATOM      5  C   UNL     1       1.194   9.268  19.429  0.00  0.00    +0.000 A 
ATOM      6  C   UNL     1       1.418   8.483  20.565  0.00  0.00    +0.000 A 
ATOM      7  C   UNL     1       2.109   7.275  20.563  0.00  0.00    +0.000 A 
ATOM      8  C   UNL     1       0.763   9.150  21.684  0.00  0.00    +0.000 C 
ATOM      9  O   UNL     1       0.671   8.732  22.815  0.00  0.00    +0.000 OA
ATOM     10  C   UNL     1       0.166  10.461  21.111  0.00  0.00    +0.000 C 
ATOM     11  O   UNL     1      -0.446  11.286  21.750  0.00  0.00    +0.000 OA
ATOM     12  N   UNL     1       0.502  10.454  19.763  0.00  0.00    +0.000 N 
ENDROOT
BRANCH   1  13
ATOM     13  S   UNL     1       3.460   5.262  19.204  0.00  0.00    +0.000 S 
ATOM     14  O   UNL     1       4.725   5.492  19.864  0.00  0.00    +0.000 OA
ATOM     15  O   UNL     1       3.429   4.887  17.803  0.00  0.00    +0.000 OA
BRANCH  13  20
ATOM     16  C   UNL     1       2.961   2.658  20.178  0.00  0.00    +0.000 C 
ATOM     17  C   UNL     1       2.002   2.059  19.154  0.00  0.00    +0.000 C 
ATOM     18  C   UNL     1       0.693   2.766  19.481  0.00  0.00    +0.000 C 
ATOM     19  C   UNL     1       1.106   4.124  20.054  0.00  0.00    +0.000 C 
ATOM     20  N   UNL     1       2.594   4.101  20.091  0.00  0.00    +0.000 NA
BRANCH  16  21
ATOM     21  C   UNL     1       4.411   2.242  19.976  0.00  0.00    +0.000 C 
BRANCH  21  23
ATOM     22  C   UNL     1       5.518   0.585  21.264  0.00  0.00    +0.000 C 
ATOM     23  O   UNL     1       5.107   1.940  21.179  0.00  0.00    +0.000 OA
ENDBRANCH  21  23
ENDBRANCH  16  21
ENDBRANCH  13  20
ENDBRANCH   1  13
BRANCH  12  24
ATOM     24  C   UNL     1       0.134  11.516  18.839  0.00  0.00    +0.000 C 
BRANCH  24  25
ATOM     25  C   UNL     1      -1.344  11.514  18.431  0.00  0.00    +0.000 C 
BRANCH  25  26
ATOM     26  C   UNL     1      -1.718  10.346  17.535  0.00  0.00    +0.000 C 
ATOM     27  F   UNL     1      -2.957   9.907  17.880  0.00  0.00    +0.000 F 
ENDBRANCH  25  26
ENDBRANCH  24  25
ENDBRANCH  12  24
TORSDOF 7
ENDMDL
MODEL 4
REMARK VINA RESULT:      -6.8      2.243      3.043
REMARK  Name = 
REMARK  8 active torsions:
REMARK  status: ('A' for Active; 'I' for Inactive)
REMARK    1  A    between atoms: C_1  and  O_2
REMARK    2  A    between atoms: O_2  and  C_3
REMARK    3  A    between atoms: C_3  and  C_4
REMARK    4  A    between atoms: N_8  and  S_9
REMARK    5  A    between atoms: S_9  and  C_12
REMARK    6  A    between atoms: N_23  and  C_24
REMARK    7  A    between atoms: C_24  and  C_25
REMARK    8  A    between atoms: C_25  and  C_26
REMARK                            x       y       z     vdW  Elec       q    Type
REMARK                         _______ _______ _______ _____ _____    ______ ____
ROOT
ATOM      1  C   UNL     1       1.618   7.769  20.259  0.00  0.00    +0.000 A 
ATOM      2  C   UNL     1       2.256   7.940  19.005  0.00  0.00    +0.000 A 
ATOM      3  C   UNL     1       2.915   6.877  18.377  0.00  0.00    +0.000 A 
ATOM      4  F   UNL     1       3.584   7.112  17.243  0.00  0.00    +0.000 F 
ATOM      5  C   UNL     1       2.903   5.628  18.969  0.00  0.00    +0.000 A 
ATOM      6  C   UNL     1       2.265   5.488  20.207  0.00  0.00    +0.000 A 
ATOM      7  C   UNL     1       1.596   6.513  20.867  0.00  0.00    +0.000 A 
ATOM      8  C   UNL     1       2.484   4.116  20.650  0.00  0.00    +0.000 C 
ATOM      9  O   UNL     1       2.151   3.643  21.713  0.00  0.00    +0.000 OA
ATOM     10  C   UNL     1       3.276   3.420  19.515  0.00  0.00    +0.000 C 
ATOM     11  O   UNL     1       3.633   2.265  19.520  0.00  0.00    +0.000 OA
ATOM     12  N   UNL     1       3.452   4.397  18.542  0.00  0.00    +0.000 N 
ENDROOT
BRANCH   1  13
ATOM     13  S   UNL     1       0.786   9.168  21.023  0.00  0.00    +0.000 S 
ATOM     14  O   UNL     1       1.709   9.685  22.008  0.00  0.00    +0.000 OA
ATOM     15  O   UNL     1      -0.518   8.685  21.435  0.00  0.00    +0.000 OA
BRANCH  13  20
ATOM     16  C   UNL     1      -0.063  11.678  20.044  0.00  0.00    +0.000 C 
ATOM     17  C   UNL     1      -1.474  11.413  19.528  0.00  0.00    +0.000 C 
ATOM     18  C   UNL     1      -1.210  10.652  18.236  0.00  0.00    +0.000 C 
ATOM     19  C   UNL     1       0.115   9.922  18.466  0.00  0.00    +0.000 C 
ATOM     20  N   UNL     1       0.569  10.345  19.820  0.00  0.00    +0.000 NA
BRANCH  16  21
ATOM     21  C   UNL     1      -0.026  12.297  21.435  0.00  0.00    +0.000 C 
BRANCH  21  23
ATOM     22  C   UNL     1       0.767  14.499  21.824  0.00  0.00    +0.000 C 
ATOM     23  O   UNL     1       1.102  13.129  21.674  0.00  0.00    +0.000 OA
ENDBRANCH  21  23
ENDBRANCH  16  21
ENDBRANCH  13  20
ENDBRANCH   1  13
BRANCH  12  24
ATOM     24  C   UNL     1       4.154   4.165  17.289  0.00  0.00    +0.000 C 
BRANCH  24  25
ATOM     25  C   UNL     1       5.642   4.531  17.320  0.00  0.00    +0.000 C 
BRANCH  25  26
ATOM     26  C   UNL     1       6.224   4.801  15.944  0.00  0.00    +0.000 C 
ATOM     27  F   UNL     1       5.652   5.925  15.437  0.00  0.00    +0.000 F 
ENDBRANCH  25  26
ENDBRANCH  24  25
ENDBRANCH  12  24
TORSDOF 7
ENDMDL
MODEL 5
REMARK VINA RESULT:      -6.7      2.226      3.005
REMARK  Name = 
REMARK  8 active torsions:
REMARK  status: ('A' for Active; 'I' for Inactive)
REMARK    1  A    between atoms: C_1  and  O_2
REMARK    2  A    between atoms: O_2  and  C_3
REMARK    3  A    between atoms: C_3  and  C_4
REMARK    4  A    between atoms: N_8  and  S_9
REMARK    5  A    between atoms: S_9  and  C_12
REMARK    6  A    between atoms: N_23  and  C_24
REMARK    7  A    between atoms: C_24  and  C_25
REMARK    8  A    between atoms: C_25  and  C_26
REMARK                            x       y       z     vdW  Elec       q    Type
REMARK                         _______ _______ _______ _____ _____    ______ ____
ROOT
ATOM      1  C   UNL     1       1.595   7.874  20.194  0.00  0.00    +0.000 A 
ATOM      2  C   UNL     1       2.246   8.097  18.955  0.00  0.00    +0.000 A 
ATOM      3  C   UNL     1       2.951   7.073  18.313  0.00  0.00    +0.000 A 
ATOM      4  F   UNL     1       3.630   7.358  17.195  0.00  0.00    +0.000 F 
ATOM      5  C   UNL     1       2.974   5.810  18.875  0.00  0.00    +0.000 A 
ATOM      6  C   UNL     1       2.323   5.619  20.098  0.00  0.00    +0.000 A 
ATOM      7  C   UNL     1       1.607   6.604  20.771  0.00  0.00    +0.000 A 
ATOM      8  C   UNL     1       2.583   4.245  20.513  0.00  0.00    +0.000 C 
ATOM      9  O   UNL     1       2.250   3.735  21.558  0.00  0.00    +0.000 OA
ATOM     10  C   UNL     1       3.417   3.605  19.375  0.00  0.00    +0.000 C 
ATOM     11  O   UNL     1       3.814   2.462  19.358  0.00  0.00    +0.000 OA
ATOM     12  N   UNL     1       3.574   4.610  18.428  0.00  0.00    +0.000 N 
ENDROOT
BRANCH   1  13
ATOM     13  S   UNL     1       0.702   9.224  20.977  0.00  0.00    +0.000 S 
ATOM     14  O   UNL     1       1.585   9.740  21.997  0.00  0.00    +0.000 OA
ATOM     15  O   UNL     1      -0.596   8.689  21.342  0.00  0.00    +0.000 OA
BRANCH  13  20
ATOM     16  C   UNL     1      -0.205  11.733  20.048  0.00  0.00    +0.000 C 
ATOM     17  C   UNL     1      -1.593  11.438  19.488  0.00  0.00    +0.000 C 
ATOM     18  C   UNL     1      -1.271  10.724  18.182  0.00  0.00    +0.000 C 
ATOM     19  C   UNL     1       0.070  10.030  18.426  0.00  0.00    +0.000 C 
ATOM     20  N   UNL     1       0.477  10.428  19.802  0.00  0.00    +0.000 NA
BRANCH  16  21
ATOM     21  C   UNL     1      -0.222  12.312  21.456  0.00  0.00    +0.000 C 
BRANCH  21  23
ATOM     22  C   UNL     1      -1.602  11.458  23.186  0.00  0.00    +0.000 C 
ATOM     23  O   UNL     1      -1.506  12.325  22.068  0.00  0.00    +0.000 OA
ENDBRANCH  21  23
ENDBRANCH  16  21
ENDBRANCH  13  20
ENDBRANCH   1  13
BRANCH  12  24
ATOM     24  C   UNL     1       4.302   4.433  17.182  0.00  0.00    +0.000 C 
BRANCH  24  25
ATOM     25  C   UNL     1       5.827   4.410  17.339  0.00  0.00    +0.000 C 
BRANCH  25  26
ATOM     26  C   UNL     1       6.438   5.794  17.469  0.00  0.00    +0.000 C 
ATOM     27  F   UNL     1       7.783   5.669  17.616  0.00  0.00    +0.000 F 
ENDBRANCH  25  26
ENDBRANCH  24  25
ENDBRANCH  12  24
TORSDOF 7
ENDMDL
MODEL 6
REMARK VINA RESULT:      -6.7      2.867      7.373
REMARK  Name = 
REMARK  8 active torsions:
REMARK  status: ('A' for Active; 'I' for Inactive)
REMARK    1  A    between atoms: C_1  and  O_2
REMARK    2  A    between atoms: O_2  and  C_3
REMARK    3  A    between atoms: C_3  and  C_4
REMARK    4  A    between atoms: N_8  and  S_9
REMARK    5  A    between atoms: S_9  and  C_12
REMARK    6  A    between atoms: N_23  and  C_24
REMARK    7  A    between atoms: C_24  and  C_25
REMARK    8  A    between atoms: C_25  and  C_26
REMARK                            x       y       z     vdW  Elec       q    Type
REMARK                         _______ _______ _______ _____ _____    ______ ____
ROOT
ATOM      1  C   UNL     1       2.349   7.193  19.137  0.00  0.00    +0.000 A 
ATOM      2  C   UNL     1       1.995   8.019  18.041  0.00  0.00    +0.000 A 
ATOM      3  C   UNL     1       1.251   9.189  18.228  0.00  0.00    +0.000 A 
ATOM      4  F   UNL     1       0.859   9.883  17.153  0.00  0.00    +0.000 F 
ATOM      5  C   UNL     1       0.896   9.570  19.508  0.00  0.00    +0.000 A 
ATOM      6  C   UNL     1       1.259   8.736  20.571  0.00  0.00    +0.000 A 
ATOM      7  C   UNL     1       2.000   7.566  20.436  0.00  0.00    +0.000 A 
ATOM      8  C   UNL     1       0.683   9.308  21.783  0.00  0.00    +0.000 C 
ATOM      9  O   UNL     1       0.715   8.824  22.891  0.00  0.00    +0.000 OA
ATOM     10  C   UNL     1      -0.022  10.616  21.345  0.00  0.00    +0.000 C 
ATOM     11  O   UNL     1      -0.607  11.374  22.083  0.00  0.00    +0.000 OA
ATOM     12  N   UNL     1       0.186  10.701  19.973  0.00  0.00    +0.000 N 
ENDROOT
BRANCH   1  13
ATOM     13  S   UNL     1       3.306   5.699  18.843  0.00  0.00    +0.000 S 
ATOM     14  O   UNL     1       3.673   5.203  20.150  0.00  0.00    +0.000 OA
ATOM     15  O   UNL     1       4.336   6.062  17.888  0.00  0.00    +0.000 OA
BRANCH  13  20
ATOM     16  C   UNL     1       1.381   3.631  18.858  0.00  0.00    +0.000 C 
ATOM     17  C   UNL     1       2.213   2.353  18.806  0.00  0.00    +0.000 C 
ATOM     18  C   UNL     1       2.680   2.329  17.357  0.00  0.00    +0.000 C 
ATOM     19  C   UNL     1       2.753   3.798  16.936  0.00  0.00    +0.000 C 
ATOM     20  N   UNL     1       2.268   4.571  18.112  0.00  0.00    +0.000 NA
BRANCH  16  21
ATOM     21  C   UNL     1       0.911   4.000  20.258  0.00  0.00    +0.000 C 
BRANCH  21  23
ATOM     22  C   UNL     1       2.117   3.015  22.048  0.00  0.00    +0.000 C 
ATOM     23  O   UNL     1       0.984   2.936  21.199  0.00  0.00    +0.000 OA
ENDBRANCH  21  23
ENDBRANCH  16  21
ENDBRANCH  13  20
ENDBRANCH   1  13
BRANCH  12  24
ATOM     24  C   UNL     1      -0.313  11.792  19.151  0.00  0.00    +0.000 C 
BRANCH  24  25
ATOM     25  C   UNL     1      -1.813  11.715  18.842  0.00  0.00    +0.000 C 
BRANCH  25  26
ATOM     26  C   UNL     1      -2.110  11.310  17.409  0.00  0.00    +0.000 C 
ATOM     27  F   UNL     1      -2.309   9.967  17.363  0.00  0.00    +0.000 F 
ENDBRANCH  25  26
ENDBRANCH  24  25
ENDBRANCH  12  24
TORSDOF 7
ENDMDL
MODEL 7
REMARK VINA RESULT:      -6.6      2.119      2.810
REMARK  Name = 
REMARK  8 active torsions:
REMARK  status: ('A' for Active; 'I' for Inactive)
REMARK    1  A    between atoms: C_1  and  O_2
REMARK    2  A    between atoms: O_2  and  C_3
REMARK    3  A    between atoms: C_3  and  C_4
REMARK    4  A    between atoms: N_8  and  S_9
REMARK    5  A    between atoms: S_9  and  C_12
REMARK    6  A    between atoms: N_23  and  C_24
REMARK    7  A    between atoms: C_24  and  C_25
REMARK    8  A    between atoms: C_25  and  C_26
REMARK                            x       y       z     vdW  Elec       q    Type
REMARK                         _______ _______ _______ _____ _____    ______ ____
ROOT
ATOM      1  C   UNL     1       1.684   7.607  20.348  0.00  0.00    +0.000 A 
ATOM      2  C   UNL     1       2.599   7.812  19.285  0.00  0.00    +0.000 A 
ATOM      3  C   UNL     1       3.388   6.764  18.797  0.00  0.00    +0.000 A 
ATOM      4  F   UNL     1       4.305   7.029  17.859  0.00  0.00    +0.000 F 
ATOM      5  C   UNL     1       3.237   5.498  19.329  0.00  0.00    +0.000 A 
ATOM      6  C   UNL     1       2.327   5.324  20.377  0.00  0.00    +0.000 A 
ATOM      7  C   UNL     1       1.520   6.334  20.893  0.00  0.00    +0.000 A 
ATOM      8  C   UNL     1       2.436   3.938  20.817  0.00  0.00    +0.000 C 
ATOM      9  O   UNL     1       1.862   3.435  21.755  0.00  0.00    +0.000 OA
ATOM     10  C   UNL     1       3.473   3.272  19.878  0.00  0.00    +0.000 C 
ATOM     11  O   UNL     1       3.819   2.114  19.930  0.00  0.00    +0.000 OA
ATOM     12  N   UNL     1       3.873   4.277  19.005  0.00  0.00    +0.000 N 
ENDROOT
BRANCH   1  13
ATOM     13  S   UNL     1       0.695   8.988  20.939  0.00  0.00    +0.000 S 
ATOM     14  O   UNL     1       1.474   9.610  21.985  0.00  0.00    +0.000 OA
ATOM     15  O   UNL     1      -0.617   8.445  21.236  0.00  0.00    +0.000 OA
BRANCH  13  20
ATOM     16  C   UNL     1      -0.205  11.375  19.727  0.00  0.00    +0.000 C 
ATOM     17  C   UNL     1      -1.519  10.977  19.061  0.00  0.00    +0.000 C 
ATOM     18  C   UNL     1      -1.042  10.180  17.854  0.00  0.00    +0.000 C 
ATOM     19  C   UNL     1       0.293   9.567  18.282  0.00  0.00    +0.000 C 
ATOM     20  N   UNL     1       0.545  10.087  19.654  0.00  0.00    +0.000 NA
BRANCH  16  21
ATOM     21  C   UNL     1      -0.384  12.060  21.075  0.00  0.00    +0.000 C 
BRANCH  21  23
ATOM     22  C   UNL     1      -1.432  11.390  23.095  0.00  0.00    +0.000 C 
ATOM     23  O   UNL     1      -1.605  11.746  21.733  0.00  0.00    +0.000 OA
ENDBRANCH  21  23
ENDBRANCH  16  21
ENDBRANCH  13  20
ENDBRANCH   1  13
BRANCH  12  24
ATOM     24  C   UNL     1       4.849   4.079  17.945  0.00  0.00    +0.000 C 
BRANCH  24  25
ATOM     25  C   UNL     1       4.244   3.982  16.539  0.00  0.00    +0.000 C 
BRANCH  25  26
ATOM     26  C   UNL     1       5.200   4.418  15.443  0.00  0.00    +0.000 C 
ATOM     27  F   UNL     1       5.141   5.770  15.319  0.00  0.00    +0.000 F 
ENDBRANCH  25  26
ENDBRANCH  24  25
ENDBRANCH  12  24
TORSDOF 7
ENDMDL
MODEL 8
REMARK VINA RESULT:      -6.6      2.599      3.488
REMARK  Name = 
REMARK  8 active torsions:
REMARK  status: ('A' for Active; 'I' for Inactive)
REMARK    1  A    between atoms: C_1  and  O_2
REMARK    2  A    between atoms: O_2  and  C_3
REMARK    3  A    between atoms: C_3  and  C_4
REMARK    4  A    between atoms: N_8  and  S_9
REMARK    5  A    between atoms: S_9  and  C_12
REMARK    6  A    between atoms: N_23  and  C_24
REMARK    7  A    between atoms: C_24  and  C_25
REMARK    8  A    between atoms: C_25  and  C_26
REMARK                            x       y       z     vdW  Elec       q    Type
REMARK                         _______ _______ _______ _____ _____    ______ ____
ROOT
ATOM      1  C   UNL     1       1.467   8.250  20.065  0.00  0.00    +0.000 A 
ATOM      2  C   UNL     1       2.095   8.457  18.811  0.00  0.00    +0.000 A 
ATOM      3  C   UNL     1       2.844   7.445  18.200  0.00  0.00    +0.000 A 
ATOM      4  F   UNL     1       3.497   7.720  17.065  0.00  0.00    +0.000 F 
ATOM      5  C   UNL     1       2.933   6.207  18.808  0.00  0.00    +0.000 A 
ATOM      6  C   UNL     1       2.303   6.030  20.045  0.00  0.00    +0.000 A 
ATOM      7  C   UNL     1       1.546   7.004  20.689  0.00  0.00    +0.000 A 
ATOM      8  C   UNL     1       2.633   4.687  20.507  0.00  0.00    +0.000 C 
ATOM      9  O   UNL     1       2.334   4.202  21.574  0.00  0.00    +0.000 OA
ATOM     10  C   UNL     1       3.486   4.045  19.384  0.00  0.00    +0.000 C 
ATOM     11  O   UNL     1       3.938   2.924  19.406  0.00  0.00    +0.000 OA
ATOM     12  N   UNL     1       3.585   5.021  18.400  0.00  0.00    +0.000 N 
ENDROOT
BRANCH   1  13
ATOM     13  S   UNL     1       0.518   9.584  20.806  0.00  0.00    +0.000 S 
ATOM     14  O   UNL     1       1.435  10.283  21.677  0.00  0.00    +0.000 OA
ATOM     15  O   UNL     1      -0.678   8.971  21.354  0.00  0.00    +0.000 OA
BRANCH  13  20
ATOM     16  C   UNL     1       0.354  12.096  19.525  0.00  0.00    +0.000 C 
ATOM     17  C   UNL     1      -0.979  12.666  20.000  0.00  0.00    +0.000 C 
ATOM     18  C   UNL     1      -1.984  11.847  19.200  0.00  0.00    +0.000 C 
ATOM     19  C   UNL     1      -1.299  10.500  18.958  0.00  0.00    +0.000 C 
ATOM     20  N   UNL     1       0.059  10.634  19.554  0.00  0.00    +0.000 NA
BRANCH  16  21
ATOM     21  C   UNL     1       1.556  12.630  20.293  0.00  0.00    +0.000 C 
BRANCH  21  23
ATOM     22  C   UNL     1       2.621  12.977  18.202  0.00  0.00    +0.000 C 
ATOM     23  O   UNL     1       2.424  13.452  19.523  0.00  0.00    +0.000 OA
ENDBRANCH  21  23
ENDBRANCH  16  21
ENDBRANCH  13  20
ENDBRANCH   1  13
BRANCH  12  24
ATOM     24  C   UNL     1       4.310   4.832  17.153  0.00  0.00    +0.000 C 
BRANCH  24  25
ATOM     25  C   UNL     1       5.763   5.319  17.187  0.00  0.00    +0.000 C 
BRANCH  25  26
ATOM     26  C   UNL     1       6.712   4.433  16.400  0.00  0.00    +0.000 C 
ATOM     27  F   UNL     1       7.877   4.313  17.090  0.00  0.00    +0.000 F 
ENDBRANCH  25  26
ENDBRANCH  24  25
ENDBRANCH  12  24
TORSDOF 7
ENDMDL
MODEL 9
REMARK VINA RESULT:      -6.5      2.516      3.313
REMARK  Name = 
REMARK  8 active torsions:
REMARK  status: ('A' for Active; 'I' for Inactive)
REMARK    1  A    between atoms: C_1  and  O_2
REMARK    2  A    between atoms: O_2  and  C_3
REMARK    3  A    between atoms: C_3  and  C_4
REMARK    4  A    between atoms: N_8  and  S_9
REMARK    5  A    between atoms: S_9  and  C_12
REMARK    6  A    between atoms: N_23  and  C_24
REMARK    7  A    between atoms: C_24  and  C_25
REMARK    8  A    between atoms: C_25  and  C_26
REMARK                            x       y       z     vdW  Elec       q    Type
REMARK                         _______ _______ _______ _____ _____    ______ ____
ROOT
ATOM      1  C   UNL     1       1.504   8.683  19.412  0.00  0.00    +0.000 A 
ATOM      2  C   UNL     1       2.234   8.770  18.200  0.00  0.00    +0.000 A 
ATOM      3  C   UNL     1       3.038   7.712  17.761  0.00  0.00    +0.000 A 
ATOM      4  F   UNL     1       3.783   7.880  16.662  0.00  0.00    +0.000 F 
ATOM      5  C   UNL     1       3.084   6.544  18.499  0.00  0.00    +0.000 A 
ATOM      6  C   UNL     1       2.353   6.486  19.691  0.00  0.00    +0.000 A 
ATOM      7  C   UNL     1       1.539   7.509  20.166  0.00  0.00    +0.000 A 
ATOM      8  C   UNL     1       2.652   5.202  20.316  0.00  0.00    +0.000 C 
ATOM      9  O   UNL     1       2.269   4.824  21.399  0.00  0.00    +0.000 OA
ATOM     10  C   UNL     1       3.601   4.462  19.340  0.00  0.00    +0.000 C 
ATOM     11  O   UNL     1       4.057   3.356  19.515  0.00  0.00    +0.000 OA
ATOM     12  N   UNL     1       3.776   5.333  18.272  0.00  0.00    +0.000 N 
ENDROOT
BRANCH   1  13
ATOM     13  S   UNL     1       0.486  10.071  19.930  0.00  0.00    +0.000 S 
ATOM     14  O   UNL     1       1.406  11.071  20.423  0.00  0.00    +0.000 OA
ATOM     15  O   UNL     1      -0.527   9.520  20.810  0.00  0.00    +0.000 OA
BRANCH  13  20
ATOM     16  C   UNL     1      -1.059  11.953  18.499  0.00  0.00    +0.000 C 
ATOM     17  C   UNL     1      -2.484  11.416  18.604  0.00  0.00    +0.000 C 
ATOM     18  C   UNL     1      -2.459  10.239  17.638  0.00  0.00    +0.000 C 
ATOM     19  C   UNL     1      -1.011   9.744  17.648  0.00  0.00    +0.000 C 
ATOM     20  N   UNL     1      -0.279  10.682  18.544  0.00  0.00    +0.000 NA
BRANCH  16  21
ATOM     21  C   UNL     1      -0.746  13.057  19.499  0.00  0.00    +0.000 C 
BRANCH  21  23
ATOM     22  C   UNL     1      -1.164  13.051  21.834  0.00  0.00    +0.000 C 
ATOM     23  O   UNL     1      -1.710  13.201  20.533  0.00  0.00    +0.000 OA
ENDBRANCH  21  23
ENDBRANCH  16  21
ENDBRANCH  13  20
ENDBRANCH   1  13
BRANCH  12  24
ATOM     24  C   UNL     1       4.605   5.029  17.115  0.00  0.00    +0.000 C 
BRANCH  24  25
ATOM     25  C   UNL     1       6.065   5.476  17.249  0.00  0.00    +0.000 C 
BRANCH  25  26
ATOM     26  C   UNL     1       7.047   4.525  16.589  0.00  0.00    +0.000 C 
ATOM     27  F   UNL     1       8.050   4.251  17.464  0.00  0.00    +0.000 F 
ENDBRANCH  25  26
ENDBRANCH  24  25
ENDBRANCH  12  24
TORSDOF 7
ENDMDL
