MODEL 1
REMARK VINA RESULT:      -7.5      0.000      0.000
REMARK  Name = 
REMARK  11 active torsions:
REMARK  status: ('A' for Active; 'I' for Inactive)
REMARK    1  A    between atoms: C_1  and  O_2
REMARK    2  A    between atoms: O_2  and  C_3
REMARK    3  A    between atoms: C_6  and  C_7
REMARK    4  A    between atoms: C_8  and  C_9
REMARK    5  A    between atoms: C_9  and  C_10
REMARK    6  A    between atoms: C_12  and  O_13
REMARK    7  A    between atoms: N_16  and  C_17
REMARK    8  A    between atoms: C_17  and  C_18
REMARK    9  A    between atoms: C_18  and  C_19
REMARK   10  A    between atoms: C_25  and  O_26
REMARK   11  A    between atoms: O_26  and  C_27
REMARK                            x       y       z     vdW  Elec       q    Type
REMARK                         _______ _______ _______ _____ _____    ______ ____
ROOT
ATOM      1  C   UNL     1       5.070   5.120  18.205  0.00  0.00    +0.000 C 
ATOM      2  C   UNL     1       4.733   3.973  17.295  0.00  0.00    +0.000 C 
ATOM      3  C   UNL     1       5.667   3.792  16.334  0.00  0.00    +0.000 C 
ATOM      4  C   UNL     1       6.716   4.823  16.554  0.00  0.00    +0.000 C 
ATOM      5  O   UNL     1       7.749   4.887  15.928  0.00  0.00    +0.000 OA
ATOM      6  N   UNL     1       6.264   5.646  17.577  0.00  0.00    +0.000 N 
ENDROOT
BRANCH   1  10
ATOM      7  C   UNL     1       2.031   8.195  18.743  0.00  0.00    +0.000 A 
ATOM      8  C   UNL     1       2.867   8.214  17.631  0.00  0.00    +0.000 A 
ATOM      9  C   UNL     1       3.848   7.232  17.461  0.00  0.00    +0.000 A 
ATOM     10  C   UNL     1       3.996   6.189  18.392  0.00  0.00    +0.000 A 
ATOM     11  C   UNL     1       3.131   6.170  19.513  0.00  0.00    +0.000 A 
ATOM     12  C   UNL     1       2.173   7.178  19.685  0.00  0.00    +0.000 A 
BRANCH   7  14
ATOM     13  C   UNL     1       0.685   9.623  20.093  0.00  0.00    +0.000 C 
ATOM     14  O   UNL     1       1.111   9.208  18.798  0.00  0.00    +0.000 OA
ENDBRANCH   7  14
BRANCH  11  15
ATOM     15  O   UNL     1       3.284   5.118  20.389  0.00  0.00    +0.000 OA
ATOM     16  C   UNL     1       2.095   4.510  20.896  0.00  0.00    +0.000 C 
ENDBRANCH  11  15
ENDBRANCH   1  10
BRANCH   2  17
ATOM     17  C   UNL     1       3.506   3.157  17.491  0.00  0.00    +0.000 C 
ATOM     18  C   UNL     1       3.555   1.945  18.409  0.00  0.00    +0.000 C 
ATOM     19  O   UNL     1       2.473   3.453  16.895  0.00  0.00    +0.000 OA
ENDBRANCH   2  17
BRANCH   3  20
ATOM     20  O   UNL     1       5.785   2.885  15.324  0.00  0.00    +0.000 OA
ATOM     21  H   UNL     1       4.901   2.547  15.076  0.00  0.00    +0.000 HD
ENDBRANCH   3  20
BRANCH   6  22
ATOM     22  C   UNL     1       7.072   6.693  18.206  0.00  0.00    +0.000 C 
BRANCH  22  23
ATOM     23  C   UNL     1       7.495   7.811  17.247  0.00  0.00    +0.000 C 
BRANCH  23  24
ATOM     24  C   UNL     1       8.155   8.994  17.908  0.00  0.00    +0.000 A 
ATOM     25  C   UNL     1       7.988  10.268  17.344  0.00  0.00    +0.000 A 
ATOM     26  C   UNL     1       8.562  11.390  17.938  0.00  0.00    +0.000 A 
ATOM     27  C   UNL     1       9.305  11.252  19.107  0.00  0.00    +0.000 A 
ATOM     28  C   UNL     1       9.462   9.994  19.688  0.00  0.00    +0.000 A 
ATOM     29  C   UNL     1       8.885   8.867  19.094  0.00  0.00    +0.000 A 
ENDBRANCH  23  24
ENDBRANCH  22  23
ENDBRANCH   6  22
TORSDOF 8
ENDMDL
MODEL 2
REMARK VINA RESULT:      -6.8      2.956      5.963
REMARK  Name = 
REMARK  11 active torsions:
REMARK  status: ('A' for Active; 'I' for Inactive)
REMARK    1  A    between atoms: C_1  and  O_2
REMARK    2  A    between atoms: O_2  and  C_3
REMARK    3  A    between atoms: C_6  and  C_7
REMARK    4  A    between atoms: C_8  and  C_9
REMARK    5  A    between atoms: C_9  and  C_10
REMARK    6  A    between atoms: C_12  and  O_13
REMARK    7  A    between atoms: N_16  and  C_17
REMARK    8  A    between atoms: C_17  and  C_18
REMARK    9  A    between atoms: C_18  and  C_19
REMARK   10  A    between atoms: C_25  and  O_26
REMARK   11  A    between atoms: O_26  and  C_27
REMARK                            x       y       z     vdW  Elec       q    Type
REMARK                         _______ _______ _______ _____ _____    ______ ____
ROOT
ATOM      1  C   UNL     1       3.228   4.760  17.935  0.00  0.00    +0.000 C 
ATOM      2  C   UNL     1       3.377   4.015  19.231  0.00  0.00    +0.000 C 
ATOM      3  C   UNL     1       2.922   4.728  20.286  0.00  0.00    +0.000 C 
ATOM      4  C   UNL     1       2.418   6.019  19.746  0.00  0.00    +0.000 C 
ATOM      5  O   UNL     1       1.853   6.860  20.408  0.00  0.00    +0.000 OA
ATOM      6  N   UNL     1       2.729   6.041  18.393  0.00  0.00    +0.000 N 
ENDROOT
BRANCH   1  10
ATOM      7  C   UNL     1       6.805   5.131  15.474  0.00  0.00    +0.000 A 
ATOM      8  C   UNL     1       5.600   4.719  14.913  0.00  0.00    +0.000 A 
ATOM      9  C   UNL     1       4.453   4.592  15.703  0.00  0.00    +0.000 A 
ATOM     10  C   UNL     1       4.481   4.903  17.075  0.00  0.00    +0.000 A 
ATOM     11  C   UNL     1       5.709   5.335  17.633  0.00  0.00    +0.000 A 
ATOM     12  C   UNL     1       6.856   5.429  16.834  0.00  0.00    +0.000 A 
BRANCH   7  14
ATOM     13  C   UNL     1       7.561   5.042  13.218  0.00  0.00    +0.000 C 
ATOM     14  O   UNL     1       7.855   5.217  14.601  0.00  0.00    +0.000 OA
ENDBRANCH   7  14
BRANCH  11  15
ATOM     15  O   UNL     1       5.693   5.659  18.972  0.00  0.00    +0.000 OA
ATOM     16  C   UNL     1       6.929   5.569  19.682  0.00  0.00    +0.000 C 
ENDBRANCH  11  15
ENDBRANCH   1  10
BRANCH   2  17
ATOM     17  C   UNL     1       3.951   2.645  19.281  0.00  0.00    +0.000 C 
ATOM     18  C   UNL     1       3.450   1.590  18.307  0.00  0.00    +0.000 C 
ATOM     19  O   UNL     1       4.806   2.371  20.121  0.00  0.00    +0.000 OA
ENDBRANCH   2  17
BRANCH   3  20
ATOM     20  O   UNL     1       2.842   4.454  21.618  0.00  0.00    +0.000 OA
ATOM     21  H   UNL     1       2.507   5.238  22.099  0.00  0.00    +0.000 HD
ENDBRANCH   3  20
BRANCH   6  22
ATOM     22  C   UNL     1       2.266   7.069  17.459  0.00  0.00    +0.000 C 
BRANCH  22  23
ATOM     23  C   UNL     1       2.877   8.452  17.707  0.00  0.00    +0.000 C 
BRANCH  23  24
ATOM     24  C   UNL     1       1.879   9.536  18.024  0.00  0.00    +0.000 A 
ATOM     25  C   UNL     1       0.516   9.210  18.081  0.00  0.00    +0.000 A 
ATOM     26  C   UNL     1      -0.436  10.178  18.393  0.00  0.00    +0.000 A 
ATOM     27  C   UNL     1      -0.034  11.484  18.660  0.00  0.00    +0.000 A 
ATOM     28  C   UNL     1       1.319  11.817  18.625  0.00  0.00    +0.000 A 
ATOM     29  C   UNL     1       2.276  10.846  18.313  0.00  0.00    +0.000 A 
ENDBRANCH  23  24
ENDBRANCH  22  23
ENDBRANCH   6  22
TORSDOF 8
ENDMDL
MODEL 3
REMARK VINA RESULT:      -6.8      2.131      5.897
REMARK  Name = 
REMARK  11 active torsions:
REMARK  status: ('A' for Active; 'I' for Inactive)
REMARK    1  A    between atoms: C_1  and  O_2
REMARK    2  A    between atoms: O_2  and  C_3
REMARK    3  A    between atoms: C_6  and  C_7
REMARK    4  A    between atoms: C_8  and  C_9
REMARK    5  A    between atoms: C_9  and  C_10
REMARK    6  A    between atoms: C_12  and  O_13
REMARK    7  A    between atoms: N_16  and  C_17
REMARK    8  A    between atoms: C_17  and  C_18
REMARK    9  A    between atoms: C_18  and  C_19
REMARK   10  A    between atoms: C_25  and  O_26
REMARK   11  A    between atoms: O_26  and  C_27
REMARK                            x       y       z     vdW  Elec       q    Type
REMARK                         _______ _______ _______ _____ _____    ______ ____
ROOT
ATOM      1  C   UNL     1       3.481   3.757  18.718  0.00  0.00    +0.000 C 
ATOM      2  C   UNL     1       3.470   2.831  19.901  0.00  0.00    +0.000 C 
ATOM      3  C   UNL     1       2.421   3.064  20.722  0.00  0.00    +0.000 C 
ATOM      4  C   UNL     1       1.643   4.179  20.118  0.00  0.00    +0.000 C 
ATOM      5  O   UNL     1       0.585   4.580  20.546  0.00  0.00    +0.000 OA
ATOM      6  N   UNL     1       2.365   4.628  19.020  0.00  0.00    +0.000 N 
ENDROOT
BRANCH   1  10
ATOM      7  C   UNL     1       7.143   6.010  18.009  0.00  0.00    +0.000 A 
ATOM      8  C   UNL     1       6.626   5.887  19.295  0.00  0.00    +0.000 A 
ATOM      9  C   UNL     1       5.447   5.171  19.523  0.00  0.00    +0.000 A 
ATOM     10  C   UNL     1       4.770   4.536  18.466  0.00  0.00    +0.000 A 
ATOM     11  C   UNL     1       5.312   4.654  17.163  0.00  0.00    +0.000 A 
ATOM     12  C   UNL     1       6.479   5.401  16.947  0.00  0.00    +0.000 A 
BRANCH   7  14
ATOM     13  C   UNL     1       8.186   8.150  18.007  0.00  0.00    +0.000 C 
ATOM     14  O   UNL     1       8.301   6.734  17.913  0.00  0.00    +0.000 OA
ENDBRANCH   7  14
BRANCH  11  15
ATOM     15  O   UNL     1       4.641   3.996  16.156  0.00  0.00    +0.000 OA
ATOM     16  C   UNL     1       5.167   4.112  14.833  0.00  0.00    +0.000 C 
ENDBRANCH  11  15
ENDBRANCH   1  10
BRANCH   2  17
ATOM     17  C   UNL     1       4.511   1.786  20.084  0.00  0.00    +0.000 C 
ATOM     18  C   UNL     1       4.694   0.721  19.014  0.00  0.00    +0.000 C 
ATOM     19  O   UNL     1       5.196   1.778  21.104  0.00  0.00    +0.000 OA
ENDBRANCH   2  17
BRANCH   3  20
ATOM     20  O   UNL     1       2.006   2.473  21.877  0.00  0.00    +0.000 OA
ATOM     21  H   UNL     1       1.135   2.048  21.739  0.00  0.00    +0.000 HD
ENDBRANCH   3  20
BRANCH   6  22
ATOM     22  C   UNL     1       1.868   5.612  18.057  0.00  0.00    +0.000 C 
BRANCH  22  23
ATOM     23  C   UNL     1       2.638   6.936  18.071  0.00  0.00    +0.000 C 
BRANCH  23  24
ATOM     24  C   UNL     1       1.957   8.055  18.817  0.00  0.00    +0.000 A 
ATOM     25  C   UNL     1       1.537   9.190  18.106  0.00  0.00    +0.000 A 
ATOM     26  C   UNL     1       0.884  10.235  18.755  0.00  0.00    +0.000 A 
ATOM     27  C   UNL     1       0.636  10.155  20.123  0.00  0.00    +0.000 A 
ATOM     28  C   UNL     1       1.030   9.025  20.837  0.00  0.00    +0.000 A 
ATOM     29  C   UNL     1       1.685   7.973  20.187  0.00  0.00    +0.000 A 
ENDBRANCH  23  24
ENDBRANCH  22  23
ENDBRANCH   6  22
TORSDOF 8
ENDMDL
MODEL 4
REMARK VINA RESULT:      -6.6      5.926      9.201
REMARK  Name = 
REMARK  11 active torsions:
REMARK  status: ('A' for Active; 'I' for Inactive)
REMARK    1  A    between atoms: C_1  and  O_2
REMARK    2  A    between atoms: O_2  and  C_3
REMARK    3  A    between atoms: C_6  and  C_7
REMARK    4  A    between atoms: C_8  and  C_9
REMARK    5  A    between atoms: C_9  and  C_10
REMARK    6  A    between atoms: C_12  and  O_13
REMARK    7  A    between atoms: N_16  and  C_17
REMARK    8  A    between atoms: C_17  and  C_18
REMARK    9  A    between atoms: C_18  and  C_19
REMARK   10  A    between atoms: C_25  and  O_26
REMARK   11  A    between atoms: O_26  and  C_27
REMARK                            x       y       z     vdW  Elec       q    Type
REMARK                         _______ _______ _______ _____ _____    ______ ____
ROOT
ATOM      1  C   UNL     1      -0.227  11.318  20.053  0.00  0.00    +0.000 C 
ATOM      2  C   UNL     1      -0.207  12.690  20.665  0.00  0.00    +0.000 C 
ATOM      3  C   UNL     1      -0.310  12.649  22.013  0.00  0.00    +0.000 C 
ATOM      4  C   UNL     1      -0.397  11.214  22.394  0.00  0.00    +0.000 C 
ATOM      5  O   UNL     1      -0.404  10.812  23.535  0.00  0.00    +0.000 OA
ATOM      6  N   UNL     1      -0.467  10.486  21.214  0.00  0.00    +0.000 N 
ENDROOT
BRANCH   1  10
ATOM      7  C   UNL     1      -3.124  10.638  16.869  0.00  0.00    +0.000 A 
ATOM      8  C   UNL     1      -1.846  10.094  16.791  0.00  0.00    +0.000 A 
ATOM      9  C   UNL     1      -0.913  10.317  17.808  0.00  0.00    +0.000 A 
ATOM     10  C   UNL     1      -1.249  11.073  18.945  0.00  0.00    +0.000 A 
ATOM     11  C   UNL     1      -2.557  11.611  19.023  0.00  0.00    +0.000 A 
ATOM     12  C   UNL     1      -3.471  11.403  17.981  0.00  0.00    +0.000 A 
BRANCH   7  14
ATOM     13  C   UNL     1      -3.329  10.180  14.542  0.00  0.00    +0.000 C 
ATOM     14  O   UNL     1      -3.947  10.350  15.814  0.00  0.00    +0.000 OA
ENDBRANCH   7  14
BRANCH  11  15
ATOM     15  O   UNL     1      -2.862  12.321  20.164  0.00  0.00    +0.000 OA
ATOM     16  C   UNL     1      -4.209  12.773  20.313  0.00  0.00    +0.000 C 
ENDBRANCH  11  15
ENDBRANCH   1  10
BRANCH   2  17
ATOM     17  C   UNL     1      -0.069  13.913  19.833  0.00  0.00    +0.000 C 
ATOM     18  C   UNL     1       0.915  13.919  18.673  0.00  0.00    +0.000 C 
ATOM     19  O   UNL     1      -0.731  14.913  20.101  0.00  0.00    +0.000 OA
ENDBRANCH   2  17
BRANCH   3  20
ATOM     20  O   UNL     1      -0.318  13.623  22.966  0.00  0.00    +0.000 OA
ATOM     21  H   UNL     1       0.469  14.196  22.862  0.00  0.00    +0.000 HD
ENDBRANCH   3  20
BRANCH   6  22
ATOM     22  C   UNL     1      -0.404   9.024  21.145  0.00  0.00    +0.000 C 
BRANCH  22  23
ATOM     23  C   UNL     1       0.984   8.449  21.439  0.00  0.00    +0.000 C 
BRANCH  23  24
ATOM     24  C   UNL     1       1.631   7.738  20.278  0.00  0.00    +0.000 A 
ATOM     25  C   UNL     1       1.886   6.362  20.379  0.00  0.00    +0.000 A 
ATOM     26  C   UNL     1       2.461   5.664  19.320  0.00  0.00    +0.000 A 
ATOM     27  C   UNL     1       2.782   6.333  18.142  0.00  0.00    +0.000 A 
ATOM     28  C   UNL     1       2.517   7.696  18.021  0.00  0.00    +0.000 A 
ATOM     29  C   UNL     1       1.938   8.398  19.083  0.00  0.00    +0.000 A 
ENDBRANCH  23  24
ENDBRANCH  22  23
ENDBRANCH   6  22
TORSDOF 8
ENDMDL
MODEL 5
REMARK VINA RESULT:      -6.5      6.783      9.735
REMARK  Name = 
REMARK  11 active torsions:
REMARK  status: ('A' for Active; 'I' for Inactive)
REMARK    1  A    between atoms: C_1  and  O_2
REMARK    2  A    between atoms: O_2  and  C_3
REMARK    3  A    between atoms: C_6  and  C_7
REMARK    4  A    between atoms: C_8  and  C_9
REMARK    5  A    between atoms: C_9  and  C_10
REMARK    6  A    between atoms: C_12  and  O_13
REMARK    7  A    between atoms: N_16  and  C_17
REMARK    8  A    between atoms: C_17  and  C_18
REMARK    9  A    between atoms: C_18  and  C_19
REMARK   10  A    between atoms: C_25  and  O_26
REMARK   11  A    between atoms: O_26  and  C_27
REMARK                            x       y       z     vdW  Elec       q    Type
REMARK                         _______ _______ _______ _____ _____    ______ ____
ROOT
ATOM      1  C   UNL     1       0.817  12.258  20.760  0.00  0.00    +0.000 C 
ATOM      2  C   UNL     1       1.116  11.584  19.450  0.00  0.00    +0.000 C 
ATOM      3  C   UNL     1       1.928  12.329  18.667  0.00  0.00    +0.000 C 
ATOM      4  C   UNL     1       2.237  13.570  19.425  0.00  0.00    +0.000 C 
ATOM      5  O   UNL     1       3.015  14.419  19.054  0.00  0.00    +0.000 OA
ATOM      6  N   UNL     1       1.471  13.538  20.583  0.00  0.00    +0.000 N 
ENDROOT
BRANCH   1  10
ATOM      7  C   UNL     1      -3.380  12.723  21.835  0.00  0.00    +0.000 A 
ATOM      8  C   UNL     1      -2.895  13.240  20.638  0.00  0.00    +0.000 A 
ATOM      9  C   UNL     1      -1.547  13.099  20.296  0.00  0.00    +0.000 A 
ATOM     10  C   UNL     1      -0.655  12.408  21.136  0.00  0.00    +0.000 A 
ATOM     11  C   UNL     1      -1.162  11.872  22.345  0.00  0.00    +0.000 A 
ATOM     12  C   UNL     1      -2.509  12.048  22.688  0.00  0.00    +0.000 A 
BRANCH   7  14
ATOM     13  C   UNL     1      -5.615  12.455  21.059  0.00  0.00    +0.000 C 
ATOM     14  O   UNL     1      -4.715  12.924  22.059  0.00  0.00    +0.000 OA
ENDBRANCH   7  14
BRANCH  11  15
ATOM     15  O   UNL     1      -0.269  11.176  23.130  0.00  0.00    +0.000 OA
ATOM     16  C   UNL     1      -0.399   9.754  23.166  0.00  0.00    +0.000 C 
ENDBRANCH  11  15
ENDBRANCH   1  10
BRANCH   2  17
ATOM     17  C   UNL     1       0.568  10.243  19.121  0.00  0.00    +0.000 C 
ATOM     18  C   UNL     1      -0.599  10.132  18.151  0.00  0.00    +0.000 C 
ATOM     19  O   UNL     1       1.044   9.241  19.649  0.00  0.00    +0.000 OA
ENDBRANCH   2  17
BRANCH   3  20
ATOM     20  O   UNL     1       2.464  12.117  17.432  0.00  0.00    +0.000 OA
ATOM     21  H   UNL     1       2.118  12.781  16.801  0.00  0.00    +0.000 HD
ENDBRANCH   3  20
BRANCH   6  22
ATOM     22  C   UNL     1       1.599  14.500  21.680  0.00  0.00    +0.000 C 
BRANCH  22  23
ATOM     23  C   UNL     1       0.846  15.812  21.444  0.00  0.00    +0.000 C 
BRANCH  23  24
ATOM     24  C   UNL     1      -0.472  15.923  22.167  0.00  0.00    +0.000 A 
ATOM     25  C   UNL     1      -1.536  16.593  21.543  0.00  0.00    +0.000 A 
ATOM     26  C   UNL     1      -2.776  16.696  22.168  0.00  0.00    +0.000 A 
ATOM     27  C   UNL     1      -2.971  16.124  23.422  0.00  0.00    +0.000 A 
ATOM     28  C   UNL     1      -1.928  15.440  24.044  0.00  0.00    +0.000 A 
ATOM     29  C   UNL     1      -0.682  15.333  23.418  0.00  0.00    +0.000 A 
ENDBRANCH  23  24
ENDBRANCH  22  23
ENDBRANCH   6  22
TORSDOF 8
ENDMDL
MODEL 6
REMARK VINA RESULT:      -6.5      8.572     11.014
REMARK  Name = 
REMARK  11 active torsions:
REMARK  status: ('A' for Active; 'I' for Inactive)
REMARK    1  A    between atoms: C_1  and  O_2
REMARK    2  A    between atoms: O_2  and  C_3
REMARK    3  A    between atoms: C_6  and  C_7
REMARK    4  A    between atoms: C_8  and  C_9
REMARK    5  A    between atoms: C_9  and  C_10
REMARK    6  A    between atoms: C_12  and  O_13
REMARK    7  A    between atoms: N_16  and  C_17
REMARK    8  A    between atoms: C_17  and  C_18
REMARK    9  A    between atoms: C_18  and  C_19
REMARK   10  A    between atoms: C_25  and  O_26
REMARK   11  A    between atoms: O_26  and  C_27
REMARK                            x       y       z     vdW  Elec       q    Type
REMARK                         _______ _______ _______ _____ _____    ______ ____
ROOT
ATOM      1  C   UNL     1      -0.724  12.745  20.722  0.00  0.00    +0.000 C 
ATOM      2  C   UNL     1      -0.960  12.276  19.314  0.00  0.00    +0.000 C 
ATOM      3  C   UNL     1      -0.644  13.222  18.402  0.00  0.00    +0.000 C 
ATOM      4  C   UNL     1      -0.156  14.404  19.160  0.00  0.00    +0.000 C 
ATOM      5  O   UNL     1       0.301  15.400  18.647  0.00  0.00    +0.000 OA
ATOM      6  N   UNL     1      -0.336  14.123  20.507  0.00  0.00    +0.000 N 
ENDROOT
BRANCH   1  10
ATOM      7  C   UNL     1      -4.064  12.421  23.502  0.00  0.00    +0.000 A 
ATOM      8  C   UNL     1      -4.211  13.098  22.296  0.00  0.00    +0.000 A 
ATOM      9  C   UNL     1      -3.138  13.209  21.406  0.00  0.00    +0.000 A 
ATOM     10  C   UNL     1      -1.895  12.619  21.695  0.00  0.00    +0.000 A 
ATOM     11  C   UNL     1      -1.759  11.919  22.919  0.00  0.00    +0.000 A 
ATOM     12  C   UNL     1      -2.836  11.842  23.813  0.00  0.00    +0.000 A 
BRANCH   7  14
ATOM     13  C   UNL     1      -6.344  13.043  23.795  0.00  0.00    +0.000 C 
ATOM     14  O   UNL     1      -5.184  12.379  24.288  0.00  0.00    +0.000 OA
ENDBRANCH   7  14
BRANCH  11  15
ATOM     15  O   UNL     1      -0.538  11.328  23.156  0.00  0.00    +0.000 OA
ATOM     16  C   UNL     1      -0.494   9.900  23.174  0.00  0.00    +0.000 C 
ENDBRANCH  11  15
ENDBRANCH   1  10
BRANCH   2  17
ATOM     17  C   UNL     1      -1.468  10.910  19.022  0.00  0.00    +0.000 C 
ATOM     18  C   UNL     1      -2.711  10.744  18.161  0.00  0.00    +0.000 C 
ATOM     19  O   UNL     1      -0.895   9.931  19.494  0.00  0.00    +0.000 OA
ENDBRANCH   2  17
BRANCH   3  20
ATOM     20  O   UNL     1      -0.678  13.235  17.039  0.00  0.00    +0.000 OA
ATOM     21  H   UNL     1      -1.607  13.213  16.730  0.00  0.00    +0.000 HD
ENDBRANCH   3  20
BRANCH   6  22
ATOM     22  C   UNL     1       0.163  14.966  21.596  0.00  0.00    +0.000 C 
BRANCH  22  23
ATOM     23  C   UNL     1      -0.710  16.192  21.881  0.00  0.00    +0.000 C 
BRANCH  23  24
ATOM     24  C   UNL     1      -1.653  16.038  23.048  0.00  0.00    +0.000 A 
ATOM     25  C   UNL     1      -2.949  16.564  22.948  0.00  0.00    +0.000 A 
ATOM     26  C   UNL     1      -3.858  16.423  23.995  0.00  0.00    +0.000 A 
ATOM     27  C   UNL     1      -3.482  15.747  25.152  0.00  0.00    +0.000 A 
ATOM     28  C   UNL     1      -2.203  15.203  25.256  0.00  0.00    +0.000 A 
ATOM     29  C   UNL     1      -1.290  15.342  24.206  0.00  0.00    +0.000 A 
ENDBRANCH  23  24
ENDBRANCH  22  23
ENDBRANCH   6  22
TORSDOF 8
ENDMDL
MODEL 7
REMARK VINA RESULT:      -6.5      6.814      9.828
REMARK  Name = 
REMARK  11 active torsions:
REMARK  status: ('A' for Active; 'I' for Inactive)
REMARK    1  A    between atoms: C_1  and  O_2
REMARK    2  A    between atoms: O_2  and  C_3
REMARK    3  A    between atoms: C_6  and  C_7
REMARK    4  A    between atoms: C_8  and  C_9
REMARK    5  A    between atoms: C_9  and  C_10
REMARK    6  A    between atoms: C_12  and  O_13
REMARK    7  A    between atoms: N_16  and  C_17
REMARK    8  A    between atoms: C_17  and  C_18
REMARK    9  A    between atoms: C_18  and  C_19
REMARK   10  A    between atoms: C_25  and  O_26
REMARK   11  A    between atoms: O_26  and  C_27
REMARK                            x       y       z     vdW  Elec       q    Type
REMARK                         _______ _______ _______ _____ _____    ______ ____
ROOT
ATOM      1  C   UNL     1       0.795  12.286  20.781  0.00  0.00    +0.000 C 
ATOM      2  C   UNL     1       1.097  11.613  19.472  0.00  0.00    +0.000 C 
ATOM      3  C   UNL     1       1.906  12.361  18.688  0.00  0.00    +0.000 C 
ATOM      4  C   UNL     1       2.210  13.603  19.447  0.00  0.00    +0.000 C 
ATOM      5  O   UNL     1       2.986  14.454  19.076  0.00  0.00    +0.000 OA
ATOM      6  N   UNL     1       1.445  13.568  20.605  0.00  0.00    +0.000 N 
ENDROOT
BRANCH   1  10
ATOM      7  C   UNL     1      -3.405  12.736  21.855  0.00  0.00    +0.000 A 
ATOM      8  C   UNL     1      -2.920  13.259  20.660  0.00  0.00    +0.000 A 
ATOM      9  C   UNL     1      -1.571  13.122  20.318  0.00  0.00    +0.000 A 
ATOM     10  C   UNL     1      -0.678  12.431  21.157  0.00  0.00    +0.000 A 
ATOM     11  C   UNL     1      -1.184  11.890  22.364  0.00  0.00    +0.000 A 
ATOM     12  C   UNL     1      -2.532  12.062  22.706  0.00  0.00    +0.000 A 
BRANCH   7  14
ATOM     13  C   UNL     1      -5.157  13.052  23.435  0.00  0.00    +0.000 C 
ATOM     14  O   UNL     1      -4.741  12.933  22.078  0.00  0.00    +0.000 OA
ENDBRANCH   7  14
BRANCH  11  15
ATOM     15  O   UNL     1      -0.290  11.195  23.147  0.00  0.00    +0.000 OA
ATOM     16  C   UNL     1      -0.385   9.769  23.141  0.00  0.00    +0.000 C 
ENDBRANCH  11  15
ENDBRANCH   1  10
BRANCH   2  17
ATOM     17  C   UNL     1       0.553  10.270  19.142  0.00  0.00    +0.000 C 
ATOM     18  C   UNL     1      -0.611  10.154  18.170  0.00  0.00    +0.000 C 
ATOM     19  O   UNL     1       1.031   9.270  19.673  0.00  0.00    +0.000 OA
ENDBRANCH   2  17
BRANCH   3  20
ATOM     20  O   UNL     1       2.444  12.151  17.454  0.00  0.00    +0.000 OA
ATOM     21  H   UNL     1       2.184  12.877  16.851  0.00  0.00    +0.000 HD
ENDBRANCH   3  20
BRANCH   6  22
ATOM     22  C   UNL     1       1.568  14.531  21.701  0.00  0.00    +0.000 C 
BRANCH  22  23
ATOM     23  C   UNL     1       0.802  15.836  21.469  0.00  0.00    +0.000 C 
BRANCH  23  24
ATOM     24  C   UNL     1      -0.530  15.919  22.169  0.00  0.00    +0.000 A 
ATOM     25  C   UNL     1      -0.668  15.344  23.441  0.00  0.00    +0.000 A 
ATOM     26  C   UNL     1      -1.876  15.419  24.130  0.00  0.00    +0.000 A 
ATOM     27  C   UNL     1      -2.961  16.078  23.557  0.00  0.00    +0.000 A 
ATOM     28  C   UNL     1      -2.832  16.670  22.302  0.00  0.00    +0.000 A 
ATOM     29  C   UNL     1      -1.619  16.597  21.609  0.00  0.00    +0.000 A 
ENDBRANCH  23  24
ENDBRANCH  22  23
ENDBRANCH   6  22
TORSDOF 8
ENDMDL
MODEL 8
REMARK VINA RESULT:      -6.5      2.865      5.879
REMARK  Name = 
REMARK  11 active torsions:
REMARK  status: ('A' for Active; 'I' for Inactive)
REMARK    1  A    between atoms: C_1  and  O_2
REMARK    2  A    between atoms: O_2  and  C_3
REMARK    3  A    between atoms: C_6  and  C_7
REMARK    4  A    between atoms: C_8  and  C_9
REMARK    5  A    between atoms: C_9  and  C_10
REMARK    6  A    between atoms: C_12  and  O_13
REMARK    7  A    between atoms: N_16  and  C_17
REMARK    8  A    between atoms: C_17  and  C_18
REMARK    9  A    between atoms: C_18  and  C_19
REMARK   10  A    between atoms: C_25  and  O_26
REMARK   11  A    between atoms: O_26  and  C_27
REMARK                            x       y       z     vdW  Elec       q    Type
REMARK                         _______ _______ _______ _____ _____    ______ ____
ROOT
ATOM      1  C   UNL     1       3.249   5.295  17.773  0.00  0.00    +0.000 C 
ATOM      2  C   UNL     1       3.109   4.352  18.935  0.00  0.00    +0.000 C 
ATOM      3  C   UNL     1       2.815   4.999  20.085  0.00  0.00    +0.000 C 
ATOM      4  C   UNL     1       2.727   6.446  19.754  0.00  0.00    +0.000 C 
ATOM      5  O   UNL     1       2.387   7.304  20.536  0.00  0.00    +0.000 OA
ATOM      6  N   UNL     1       3.107   6.580  18.425  0.00  0.00    +0.000 N 
ENDROOT
BRANCH   1  10
ATOM      7  C   UNL     1       6.920   4.985  15.447  0.00  0.00    +0.000 A 
ATOM      8  C   UNL     1       5.680   4.816  14.838  0.00  0.00    +0.000 A 
ATOM      9  C   UNL     1       4.502   4.907  15.585  0.00  0.00    +0.000 A 
ATOM     10  C   UNL     1       4.537   5.198  16.960  0.00  0.00    +0.000 A 
ATOM     11  C   UNL     1       5.803   5.383  17.568  0.00  0.00    +0.000 A 
ATOM     12  C   UNL     1       6.977   5.259  16.811  0.00  0.00    +0.000 A 
BRANCH   7  14
ATOM     13  C   UNL     1       7.827   5.319  13.271  0.00  0.00    +0.000 C 
ATOM     14  O   UNL     1       8.000   4.873  14.612  0.00  0.00    +0.000 OA
ENDBRANCH   7  14
BRANCH  11  15
ATOM     15  O   UNL     1       5.800   5.696  18.909  0.00  0.00    +0.000 OA
ATOM     16  C   UNL     1       7.037   5.569  19.614  0.00  0.00    +0.000 C 
ENDBRANCH  11  15
ENDBRANCH   1  10
BRANCH   2  17
ATOM     17  C   UNL     1       3.269   2.884  18.771  0.00  0.00    +0.000 C 
ATOM     18  C   UNL     1       2.534   2.174  17.644  0.00  0.00    +0.000 C 
ATOM     19  O   UNL     1       3.973   2.254  19.558  0.00  0.00    +0.000 OA
ENDBRANCH   2  17
BRANCH   3  20
ATOM     20  O   UNL     1       2.586   4.562  21.356  0.00  0.00    +0.000 OA
ATOM     21  H   UNL     1       3.049   3.712  21.503  0.00  0.00    +0.000 HD
ENDBRANCH   3  20
BRANCH   6  22
ATOM     22  C   UNL     1       3.006   7.827  17.664  0.00  0.00    +0.000 C 
BRANCH  22  23
ATOM     23  C   UNL     1       1.584   8.389  17.579  0.00  0.00    +0.000 C 
BRANCH  23  24
ATOM     24  C   UNL     1       1.383   9.707  18.281  0.00  0.00    +0.000 A 
ATOM     25  C   UNL     1       2.205  10.792  17.941  0.00  0.00    +0.000 A 
ATOM     26  C   UNL     1       2.036  12.033  18.550  0.00  0.00    +0.000 A 
ATOM     27  C   UNL     1       1.036  12.207  19.503  0.00  0.00    +0.000 A 
ATOM     28  C   UNL     1       0.200  11.143  19.836  0.00  0.00    +0.000 A 
ATOM     29  C   UNL     1       0.367   9.896  19.224  0.00  0.00    +0.000 A 
ENDBRANCH  23  24
ENDBRANCH  22  23
ENDBRANCH   6  22
TORSDOF 8
ENDMDL
MODEL 9
REMARK VINA RESULT:      -6.4      4.181      7.916
REMARK  Name = 
REMARK  11 active torsions:
REMARK  status: ('A' for Active; 'I' for Inactive)
REMARK    1  A    between atoms: C_1  and  O_2
REMARK    2  A    between atoms: O_2  and  C_3
REMARK    3  A    between atoms: C_6  and  C_7
REMARK    4  A    between atoms: C_8  and  C_9
REMARK    5  A    between atoms: C_9  and  C_10
REMARK    6  A    between atoms: C_12  and  O_13
REMARK    7  A    between atoms: N_16  and  C_17
REMARK    8  A    between atoms: C_17  and  C_18
REMARK    9  A    between atoms: C_18  and  C_19
REMARK   10  A    between atoms: C_25  and  O_26
REMARK   11  A    between atoms: O_26  and  C_27
REMARK                            x       y       z     vdW  Elec       q    Type
REMARK                         _______ _______ _______ _____ _____    ______ ____
ROOT
ATOM      1  C   UNL     1       0.651  10.478  19.617  0.00  0.00    +0.000 C 
ATOM      2  C   UNL     1       0.532  10.634  21.108  0.00  0.00    +0.000 C 
ATOM      3  C   UNL     1       0.927   9.523  21.770  0.00  0.00    +0.000 C 
ATOM      4  C   UNL     1       1.353   8.538  20.741  0.00  0.00    +0.000 C 
ATOM      5  O   UNL     1       1.854   7.466  20.992  0.00  0.00    +0.000 OA
ATOM      6  N   UNL     1       1.060   9.094  19.503  0.00  0.00    +0.000 N 
ENDROOT
BRANCH   1  10
ATOM      7  C   UNL     1      -2.901  11.321  17.239  0.00  0.00    +0.000 A 
ATOM      8  C   UNL     1      -2.751  10.093  17.876  0.00  0.00    +0.000 A 
ATOM      9  C   UNL     1      -1.609   9.819  18.633  0.00  0.00    +0.000 A 
ATOM     10  C   UNL     1      -0.597  10.782  18.792  0.00  0.00    +0.000 A 
ATOM     11  C   UNL     1      -0.765  12.034  18.152  0.00  0.00    +0.000 A 
ATOM     12  C   UNL     1      -1.903  12.284  17.372  0.00  0.00    +0.000 A 
BRANCH   7  14
ATOM     13  C   UNL     1      -5.250  11.712  17.275  0.00  0.00    +0.000 C 
ATOM     14  O   UNL     1      -4.061  11.472  16.528  0.00  0.00    +0.000 OA
ENDBRANCH   7  14
BRANCH  11  15
ATOM     15  O   UNL     1       0.230  12.965  18.353  0.00  0.00    +0.000 OA
ATOM     16  C   UNL     1      -0.175  14.293  18.692  0.00  0.00    +0.000 C 
ENDBRANCH  11  15
ENDBRANCH   1  10
BRANCH   2  17
ATOM     17  C   UNL     1       0.047  11.896  21.723  0.00  0.00    +0.000 C 
ATOM     18  C   UNL     1      -1.341  11.937  22.346  0.00  0.00    +0.000 C 
ATOM     19  O   UNL     1       0.757  12.898  21.704  0.00  0.00    +0.000 OA
ENDBRANCH   2  17
BRANCH   3  20
ATOM     20  O   UNL     1       1.006   9.221  23.096  0.00  0.00    +0.000 OA
ATOM     21  H   UNL     1       0.730   9.994  23.630  0.00  0.00    +0.000 HD
ENDBRANCH   3  20
BRANCH   6  22
ATOM     22  C   UNL     1       1.469   8.511  18.223  0.00  0.00    +0.000 C 
BRANCH  22  23
ATOM     23  C   UNL     1       2.971   8.232  18.120  0.00  0.00    +0.000 C 
BRANCH  23  24
ATOM     24  C   UNL     1       3.326   6.817  17.739  0.00  0.00    +0.000 A 
ATOM     25  C   UNL     1       4.525   6.578  17.052  0.00  0.00    +0.000 A 
ATOM     26  C   UNL     1       4.900   5.282  16.703  0.00  0.00    +0.000 A 
ATOM     27  C   UNL     1       4.082   4.209  17.044  0.00  0.00    +0.000 A 
ATOM     28  C   UNL     1       2.896   4.431  17.743  0.00  0.00    +0.000 A 
ATOM     29  C   UNL     1       2.519   5.730  18.096  0.00  0.00    +0.000 A 
ENDBRANCH  23  24
ENDBRANCH  22  23
ENDBRANCH   6  22
TORSDOF 8
ENDMDL
