MODEL 1
REMARK VINA RESULT:      -7.1      0.000      0.000
REMARK  Name = 
REMARK  7 active torsions:
REMARK  status: ('A' for Active; 'I' for Inactive)
REMARK    1  A    between atoms: C_1  and  N_2
REMARK    2  A    between atoms: N_2  and  C_3
REMARK    3  A    between atoms: N_2  and  C_4
REMARK    4  A    between atoms: C_4  and  C_5
REMARK    5  A    between atoms: C_5  and  N_6
REMARK    6  A    between atoms: C_9  and  N_10
REMARK    7  A    between atoms: N_10  and  C_11
REMARK                            x       y       z     vdW  Elec       q    Type
REMARK                         _______ _______ _______ _____ _____    ______ ____
ROOT
ATOM      1  N   UNL     1       5.105   5.640  18.653  0.00  0.00    +0.000 N 
ATOM      2  H   UNL     1       5.858   5.460  19.307  0.00  0.00    +0.000 HD
ENDROOT
BRANCH   1   3
ATOM      3  C   UNL     1       3.864   5.462  19.275  0.00  0.00    +0.000 A 
ATOM      4  N   UNL     1       3.236   6.538  19.793  0.00  0.00    +0.000 NA
ATOM      5  C   UNL     1       1.987   6.379  20.271  0.00  0.00    +0.000 A 
ATOM      6  C   UNL     1       1.301   5.181  20.257  0.00  0.00    +0.000 A 
ATOM      7  C   UNL     1       1.935   4.056  19.734  0.00  0.00    +0.000 A 
ATOM      8  C   UNL     1       1.272   2.816  19.682  0.00  0.00    +0.000 A 
ATOM      9  C   UNL     1       1.903   1.688  19.158  0.00  0.00    +0.000 A 
ATOM     10  C   UNL     1       3.205   1.794  18.695  0.00  0.00    +0.000 A 
ATOM     11  F   UNL     1       3.823   0.712  18.207  0.00  0.00    +0.000 F 
ATOM     12  C   UNL     1       3.875   3.009  18.726  0.00  0.00    +0.000 A 
ATOM     13  C   UNL     1       3.256   4.174  19.235  0.00  0.00    +0.000 A 
ENDBRANCH   1   3
BRANCH   1  17
ATOM     14  N   UNL     1       6.543   5.781  15.355  0.00  0.00    +0.000 NA
ATOM     15  C   UNL     1       5.122   5.570  15.666  0.00  0.00    +0.000 C 
ATOM     16  C   UNL     1       4.562   6.695  16.534  0.00  0.00    +0.000 C 
ATOM     17  C   UNL     1       5.343   6.840  17.842  0.00  0.00    +0.000 C 
ATOM     18  C   UNL     1       6.827   7.020  17.513  0.00  0.00    +0.000 C 
ATOM     19  C   UNL     1       7.353   5.925  16.579  0.00  0.00    +0.000 C 
BRANCH  14  20
ATOM     20  C   UNL     1       7.091   4.683  14.521  0.00  0.00    +0.000 C 
BRANCH  20  21
ATOM     21  C   UNL     1       6.013   3.718  13.961  0.00  0.00    +0.000 C 
BRANCH  21  23
ATOM     22  C   UNL     1       4.880   3.372  11.873  0.00  0.00    +0.000 C 
ATOM     23  N   UNL     1       6.184   3.327  12.546  0.00  0.00    +0.000 NA
ATOM     24  C   UNL     1       7.128   4.196  11.841  0.00  0.00    +0.000 C 
ENDBRANCH  21  23
ENDBRANCH  20  21
ENDBRANCH  14  20
ENDBRANCH   1  17
TORSDOF 5
ENDMDL
MODEL 2
REMARK VINA RESULT:      -6.9      2.908      5.287
REMARK  Name = 
REMARK  7 active torsions:
REMARK  status: ('A' for Active; 'I' for Inactive)
REMARK    1  A    between atoms: C_1  and  N_2
REMARK    2  A    between atoms: N_2  and  C_3
REMARK    3  A    between atoms: N_2  and  C_4
REMARK    4  A    between atoms: C_4  and  C_5
REMARK    5  A    between atoms: C_5  and  N_6
REMARK    6  A    between atoms: C_9  and  N_10
REMARK    7  A    between atoms: N_10  and  C_11
REMARK                            x       y       z     vdW  Elec       q    Type
REMARK                         _______ _______ _______ _____ _____    ______ ____
ROOT
ATOM      1  N   UNL     1       5.391   4.759  18.458  0.00  0.00    +0.000 N 
ATOM      2  H   UNL     1       5.088   5.721  18.547  0.00  0.00    +0.000 HD
ENDROOT
BRANCH   1   3
ATOM      3  C   UNL     1       4.288   3.900  18.406  0.00  0.00    +0.000 A 
ATOM      4  N   UNL     1       4.410   2.724  17.756  0.00  0.00    +0.000 NA
ATOM      5  C   UNL     1       3.386   1.850  17.823  0.00  0.00    +0.000 A 
ATOM      6  C   UNL     1       2.220   2.078  18.524  0.00  0.00    +0.000 A 
ATOM      7  C   UNL     1       2.071   3.291  19.195  0.00  0.00    +0.000 A 
ATOM      8  C   UNL     1       0.907   3.564  19.936  0.00  0.00    +0.000 A 
ATOM      9  C   UNL     1       0.755   4.775  20.609  0.00  0.00    +0.000 A 
ATOM     10  C   UNL     1       1.763   5.724  20.532  0.00  0.00    +0.000 A 
ATOM     11  F   UNL     1       1.617   6.896  21.161  0.00  0.00    +0.000 F 
ATOM     12  C   UNL     1       2.925   5.473  19.816  0.00  0.00    +0.000 A 
ATOM     13  C   UNL     1       3.115   4.246  19.137  0.00  0.00    +0.000 A 
ENDBRANCH   1   3
BRANCH   1  17
ATOM     14  N   UNL     1       7.669   7.304  17.319  0.00  0.00    +0.000 NA
ATOM     15  C   UNL     1       7.844   6.463  18.513  0.00  0.00    +0.000 C 
ATOM     16  C   UNL     1       7.793   4.977  18.167  0.00  0.00    +0.000 C 
ATOM     17  C   UNL     1       6.477   4.603  17.482  0.00  0.00    +0.000 C 
ATOM     18  C   UNL     1       6.281   5.507  16.263  0.00  0.00    +0.000 C 
ATOM     19  C   UNL     1       6.412   6.993  16.614  0.00  0.00    +0.000 C 
BRANCH  14  20
ATOM     20  C   UNL     1       7.709   8.748  17.655  0.00  0.00    +0.000 C 
BRANCH  20  21
ATOM     21  C   UNL     1       8.741   9.113  18.754  0.00  0.00    +0.000 C 
BRANCH  21  23
ATOM     22  C   UNL     1       9.757  10.725  20.214  0.00  0.00    +0.000 C 
ATOM     23  N   UNL     1       8.838  10.551  19.083  0.00  0.00    +0.000 NA
ATOM     24  C   UNL     1       9.303  11.349  17.947  0.00  0.00    +0.000 C 
ENDBRANCH  21  23
ENDBRANCH  20  21
ENDBRANCH  14  20
ENDBRANCH   1  17
TORSDOF 5
ENDMDL
MODEL 3
REMARK VINA RESULT:      -6.8      3.392      5.939
REMARK  Name = 
REMARK  7 active torsions:
REMARK  status: ('A' for Active; 'I' for Inactive)
REMARK    1  A    between atoms: C_1  and  N_2
REMARK    2  A    between atoms: N_2  and  C_3
REMARK    3  A    between atoms: N_2  and  C_4
REMARK    4  A    between atoms: C_4  and  C_5
REMARK    5  A    between atoms: C_5  and  N_6
REMARK    6  A    between atoms: C_9  and  N_10
REMARK    7  A    between atoms: N_10  and  C_11
REMARK                            x       y       z     vdW  Elec       q    Type
REMARK                         _______ _______ _______ _____ _____    ______ ____
ROOT
ATOM      1  N   UNL     1       2.620   6.370  20.357  0.00  0.00    +0.000 N 
ATOM      2  H   UNL     1       3.541   6.094  20.035  0.00  0.00    +0.000 HD
ENDROOT
BRANCH   1   3
ATOM      3  C   UNL     1       2.200   7.533  19.702  0.00  0.00    +0.000 A 
ATOM      4  N   UNL     1       2.476   7.675  18.389  0.00  0.00    +0.000 NA
ATOM      5  C   UNL     1       1.955   8.735  17.740  0.00  0.00    +0.000 A 
ATOM      6  C   UNL     1       1.147   9.684  18.332  0.00  0.00    +0.000 A 
ATOM      7  C   UNL     1       0.857   9.559  19.690  0.00  0.00    +0.000 A 
ATOM      8  C   UNL     1       0.026  10.491  20.337  0.00  0.00    +0.000 A 
ATOM      9  C   UNL     1      -0.267  10.369  21.694  0.00  0.00    +0.000 A 
ATOM     10  C   UNL     1       0.283   9.320  22.414  0.00  0.00    +0.000 A 
ATOM     11  F   UNL     1       0.021   9.206  23.721  0.00  0.00    +0.000 F 
ATOM     12  C   UNL     1       1.098   8.382  21.796  0.00  0.00    +0.000 A 
ATOM     13  C   UNL     1       1.398   8.469  20.416  0.00  0.00    +0.000 A 
ENDBRANCH   1   3
BRANCH   1  17
ATOM     14  N   UNL     1       2.977   3.138  18.808  0.00  0.00    +0.000 NA
ATOM     15  C   UNL     1       3.550   3.542  20.101  0.00  0.00    +0.000 C 
ATOM     16  C   UNL     1       2.475   4.049  21.060  0.00  0.00    +0.000 C 
ATOM     17  C   UNL     1       1.702   5.229  20.466  0.00  0.00    +0.000 C 
ATOM     18  C   UNL     1       1.142   4.816  19.104  0.00  0.00    +0.000 C 
ATOM     19  C   UNL     1       2.220   4.238  18.182  0.00  0.00    +0.000 C 
BRANCH  14  20
ATOM     20  C   UNL     1       4.021   2.655  17.872  0.00  0.00    +0.000 C 
BRANCH  20  21
ATOM     21  C   UNL     1       4.590   3.756  16.939  0.00  0.00    +0.000 C 
BRANCH  21  23
ATOM     22  C   UNL     1       6.805   4.435  16.307  0.00  0.00    +0.000 C 
ATOM     23  N   UNL     1       5.834   4.405  17.408  0.00  0.00    +0.000 NA
ATOM     24  C   UNL     1       5.600   5.767  17.891  0.00  0.00    +0.000 C 
ENDBRANCH  21  23
ENDBRANCH  20  21
ENDBRANCH  14  20
ENDBRANCH   1  17
TORSDOF 5
ENDMDL
MODEL 4
REMARK VINA RESULT:      -6.7      3.593      5.937
REMARK  Name = 
REMARK  7 active torsions:
REMARK  status: ('A' for Active; 'I' for Inactive)
REMARK    1  A    between atoms: C_1  and  N_2
REMARK    2  A    between atoms: N_2  and  C_3
REMARK    3  A    between atoms: N_2  and  C_4
REMARK    4  A    between atoms: C_4  and  C_5
REMARK    5  A    between atoms: C_5  and  N_6
REMARK    6  A    between atoms: C_9  and  N_10
REMARK    7  A    between atoms: N_10  and  C_11
REMARK                            x       y       z     vdW  Elec       q    Type
REMARK                         _______ _______ _______ _____ _____    ______ ____
ROOT
ATOM      1  N   UNL     1       2.511   6.945  20.060  0.00  0.00    +0.000 N 
ATOM      2  H   UNL     1       3.518   6.988  19.954  0.00  0.00    +0.000 HD
ENDROOT
BRANCH   1   3
ATOM      3  C   UNL     1       1.918   8.121  19.589  0.00  0.00    +0.000 A 
ATOM      4  N   UNL     1       2.011   8.415  18.276  0.00  0.00    +0.000 NA
ATOM      5  C   UNL     1       1.327   9.479  17.811  0.00  0.00    +0.000 A 
ATOM      6  C   UNL     1       0.527  10.286  18.594  0.00  0.00    +0.000 A 
ATOM      7  C   UNL     1       0.425  10.005  19.956  0.00  0.00    +0.000 A 
ATOM      8  C   UNL     1      -0.389  10.788  20.793  0.00  0.00    +0.000 A 
ATOM      9  C   UNL     1      -0.494  10.509  22.155  0.00  0.00    +0.000 A 
ATOM     10  C   UNL     1       0.226   9.451  22.686  0.00  0.00    +0.000 A 
ATOM     11  F   UNL     1       0.144   9.187  23.996  0.00  0.00    +0.000 F 
ATOM     12  C   UNL     1       1.028   8.657  21.879  0.00  0.00    +0.000 A 
ATOM     13  C   UNL     1       1.141   8.905  20.490  0.00  0.00    +0.000 A 
ENDBRANCH   1   3
BRANCH   1  17
ATOM     14  N   UNL     1       4.286   4.228  18.500  0.00  0.00    +0.000 NA
ATOM     15  C   UNL     1       4.183   4.471  19.946  0.00  0.00    +0.000 C 
ATOM     16  C   UNL     1       2.727   4.550  20.402  0.00  0.00    +0.000 C 
ATOM     17  C   UNL     1       1.962   5.645  19.655  0.00  0.00    +0.000 C 
ATOM     18  C   UNL     1       2.106   5.410  18.150  0.00  0.00    +0.000 C 
ATOM     19  C   UNL     1       3.569   5.256  17.723  0.00  0.00    +0.000 C 
BRANCH  14  20
ATOM     20  C   UNL     1       5.700   4.162  18.054  0.00  0.00    +0.000 C 
BRANCH  20  21
ATOM     21  C   UNL     1       6.553   5.386  18.480  0.00  0.00    +0.000 C 
BRANCH  21  23
ATOM     22  C   UNL     1       6.961   5.517  16.117  0.00  0.00    +0.000 C 
ATOM     23  N   UNL     1       7.454   5.925  17.439  0.00  0.00    +0.000 NA
ATOM     24  C   UNL     1       7.555   7.384  17.495  0.00  0.00    +0.000 C 
ENDBRANCH  21  23
ENDBRANCH  20  21
ENDBRANCH  14  20
ENDBRANCH   1  17
TORSDOF 5
ENDMDL
MODEL 5
REMARK VINA RESULT:      -6.7      3.527      5.777
REMARK  Name = 
REMARK  7 active torsions:
REMARK  status: ('A' for Active; 'I' for Inactive)
REMARK    1  A    between atoms: C_1  and  N_2
REMARK    2  A    between atoms: N_2  and  C_3
REMARK    3  A    between atoms: N_2  and  C_4
REMARK    4  A    between atoms: C_4  and  C_5
REMARK    5  A    between atoms: C_5  and  N_6
REMARK    6  A    between atoms: C_9  and  N_10
REMARK    7  A    between atoms: N_10  and  C_11
REMARK                            x       y       z     vdW  Elec       q    Type
REMARK                         _______ _______ _______ _____ _____    ______ ____
ROOT
ATOM      1  N   UNL     1       2.512   6.837  20.141  0.00  0.00    +0.000 N 
ATOM      2  H   UNL     1       3.496   6.753  19.915  0.00  0.00    +0.000 HD
ENDROOT
BRANCH   1   3
ATOM      3  C   UNL     1       1.991   8.030  19.629  0.00  0.00    +0.000 A 
ATOM      4  N   UNL     1       2.169   8.310  18.321  0.00  0.00    +0.000 NA
ATOM      5  C   UNL     1       1.553   9.395  17.812  0.00  0.00    +0.000 A 
ATOM      6  C   UNL     1       0.740  10.237  18.543  0.00  0.00    +0.000 A 
ATOM      7  C   UNL     1       0.550   9.970  19.898  0.00  0.00    +0.000 A 
ATOM      8  C   UNL     1      -0.282  10.789  20.682  0.00  0.00    +0.000 A 
ATOM      9  C   UNL     1      -0.476  10.525  22.037  0.00  0.00    +0.000 A 
ATOM     10  C   UNL     1       0.173   9.445  22.615  0.00  0.00    +0.000 A 
ATOM     11  F   UNL     1       0.006   9.195  23.920  0.00  0.00    +0.000 F 
ATOM     12  C   UNL     1       0.991   8.617  21.860  0.00  0.00    +0.000 A 
ATOM     13  C   UNL     1       1.193   8.849  20.479  0.00  0.00    +0.000 A 
ENDBRANCH   1   3
BRANCH   1  17
ATOM     14  N   UNL     1       3.734   3.859  18.527  0.00  0.00    +0.000 NA
ATOM     15  C   UNL     1       3.900   4.198  19.948  0.00  0.00    +0.000 C 
ATOM     16  C   UNL     1       2.556   4.457  20.626  0.00  0.00    +0.000 C 
ATOM     17  C   UNL     1       1.782   5.580  19.932  0.00  0.00    +0.000 C 
ATOM     18  C   UNL     1       1.647   5.240  18.446  0.00  0.00    +0.000 C 
ATOM     19  C   UNL     1       2.996   4.908  17.800  0.00  0.00    +0.000 C 
BRANCH  14  20
ATOM     20  C   UNL     1       5.039   3.617  17.865  0.00  0.00    +0.000 C 
BRANCH  20  21
ATOM     21  C   UNL     1       5.103   4.112  16.396  0.00  0.00    +0.000 C 
BRANCH  21  23
ATOM     22  C   UNL     1       7.363   4.627  17.020  0.00  0.00    +0.000 C 
ATOM     23  N   UNL     1       6.302   4.901  16.043  0.00  0.00    +0.000 NA
ATOM     24  C   UNL     1       6.787   4.599  14.695  0.00  0.00    +0.000 C 
ENDBRANCH  21  23
ENDBRANCH  20  21
ENDBRANCH  14  20
ENDBRANCH   1  17
TORSDOF 5
ENDMDL
MODEL 6
REMARK VINA RESULT:      -6.6      1.114      1.364
REMARK  Name = 
REMARK  7 active torsions:
REMARK  status: ('A' for Active; 'I' for Inactive)
REMARK    1  A    between atoms: C_1  and  N_2
REMARK    2  A    between atoms: N_2  and  C_3
REMARK    3  A    between atoms: N_2  and  C_4
REMARK    4  A    between atoms: C_4  and  C_5
REMARK    5  A    between atoms: C_5  and  N_6
REMARK    6  A    between atoms: C_9  and  N_10
REMARK    7  A    between atoms: N_10  and  C_11
REMARK                            x       y       z     vdW  Elec       q    Type
REMARK                         _______ _______ _______ _____ _____    ______ ____
ROOT
ATOM      1  N   UNL     1       3.656   6.125  17.538  0.00  0.00    +0.000 N 
ATOM      2  H   UNL     1       3.540   5.254  17.033  0.00  0.00    +0.000 HD
ENDROOT
BRANCH   1   3
ATOM      3  C   UNL     1       2.959   6.084  18.750  0.00  0.00    +0.000 A 
ATOM      4  N   UNL     1       2.592   7.247  19.328  0.00  0.00    +0.000 NA
ATOM      5  C   UNL     1       1.810   7.195  20.425  0.00  0.00    +0.000 A 
ATOM      6  C   UNL     1       1.350   6.024  20.991  0.00  0.00    +0.000 A 
ATOM      7  C   UNL     1       1.725   4.812  20.415  0.00  0.00    +0.000 A 
ATOM      8  C   UNL     1       1.270   3.591  20.946  0.00  0.00    +0.000 A 
ATOM      9  C   UNL     1       1.642   2.377  20.370  0.00  0.00    +0.000 A 
ATOM     10  C   UNL     1       2.482   2.379  19.268  0.00  0.00    +0.000 A 
ATOM     11  F   UNL     1       2.857   1.217  18.721  0.00  0.00    +0.000 F 
ATOM     12  C   UNL     1       2.935   3.571  18.720  0.00  0.00    +0.000 A 
ATOM     13  C   UNL     1       2.561   4.819  19.270  0.00  0.00    +0.000 A 
ENDBRANCH   1   3
BRANCH   1  17
ATOM     14  N   UNL     1       6.352   4.870  15.508  0.00  0.00    +0.000 NA
ATOM     15  C   UNL     1       5.383   5.902  15.110  0.00  0.00    +0.000 C 
ATOM     16  C   UNL     1       5.366   7.069  16.095  0.00  0.00    +0.000 C 
ATOM     17  C   UNL     1       5.044   6.602  17.516  0.00  0.00    +0.000 C 
ATOM     18  C   UNL     1       6.031   5.501  17.910  0.00  0.00    +0.000 C 
ATOM     19  C   UNL     1       6.091   4.376  16.873  0.00  0.00    +0.000 C 
BRANCH  14  20
ATOM     20  C   UNL     1       6.362   3.731  14.558  0.00  0.00    +0.000 C 
BRANCH  20  21
ATOM     21  C   UNL     1       5.317   3.851  13.418  0.00  0.00    +0.000 C 
BRANCH  21  23
ATOM     22  C   UNL     1       7.234   3.965  11.977  0.00  0.00    +0.000 C 
ATOM     23  N   UNL     1       5.824   3.565  12.059  0.00  0.00    +0.000 NA
ATOM     24  C   UNL     1       5.695   2.150  11.707  0.00  0.00    +0.000 C 
ENDBRANCH  21  23
ENDBRANCH  20  21
ENDBRANCH  14  20
ENDBRANCH   1  17
TORSDOF 5
ENDMDL
MODEL 7
REMARK VINA RESULT:      -6.6      2.694      4.826
REMARK  Name = 
REMARK  7 active torsions:
REMARK  status: ('A' for Active; 'I' for Inactive)
REMARK    1  A    between atoms: C_1  and  N_2
REMARK    2  A    between atoms: N_2  and  C_3
REMARK    3  A    between atoms: N_2  and  C_4
REMARK    4  A    between atoms: C_4  and  C_5
REMARK    5  A    between atoms: C_5  and  N_6
REMARK    6  A    between atoms: C_9  and  N_10
REMARK    7  A    between atoms: N_10  and  C_11
REMARK                            x       y       z     vdW  Elec       q    Type
REMARK                         _______ _______ _______ _____ _____    ______ ____
ROOT
ATOM      1  N   UNL     1       5.649   5.342  19.271  0.00  0.00    +0.000 N 
ATOM      2  H   UNL     1       5.961   6.141  19.810  0.00  0.00    +0.000 HD
ENDROOT
BRANCH   1   3
ATOM      3  C   UNL     1       4.271   5.414  19.041  0.00  0.00    +0.000 A 
ATOM      4  N   UNL     1       3.685   6.628  18.978  0.00  0.00    +0.000 NA
ATOM      5  C   UNL     1       2.385   6.691  18.627  0.00  0.00    +0.000 A 
ATOM      6  C   UNL     1       1.614   5.589  18.318  0.00  0.00    +0.000 A 
ATOM      7  C   UNL     1       2.198   4.325  18.386  0.00  0.00    +0.000 A 
ATOM      8  C   UNL     1       1.459   3.173  18.066  0.00  0.00    +0.000 A 
ATOM      9  C   UNL     1       2.040   1.908  18.131  0.00  0.00    +0.000 A 
ATOM     10  C   UNL     1       3.362   1.790  18.530  0.00  0.00    +0.000 A 
ATOM     11  F   UNL     1       3.923   0.577  18.613  0.00  0.00    +0.000 F 
ATOM     12  C   UNL     1       4.116   2.913  18.842  0.00  0.00    +0.000 A 
ATOM     13  C   UNL     1       3.559   4.211  18.767  0.00  0.00    +0.000 A 
ENDBRANCH   1   3
BRANCH   1  17
ATOM     14  N   UNL     1       7.812   7.634  17.528  0.00  0.00    +0.000 NA
ATOM     15  C   UNL     1       8.146   6.902  18.760  0.00  0.00    +0.000 C 
ATOM     16  C   UNL     1       7.978   5.395  18.583  0.00  0.00    +0.000 C 
ATOM     17  C   UNL     1       6.554   5.032  18.157  0.00  0.00    +0.000 C 
ATOM     18  C   UNL     1       6.199   5.826  16.897  0.00  0.00    +0.000 C 
ATOM     19  C   UNL     1       6.446   7.328  17.067  0.00  0.00    +0.000 C 
BRANCH  14  20
ATOM     20  C   UNL     1       7.964   9.099  17.702  0.00  0.00    +0.000 C 
BRANCH  20  21
ATOM     21  C   UNL     1       8.982   9.502  18.801  0.00  0.00    +0.000 C 
BRANCH  21  23
ATOM     22  C   UNL     1       9.525  11.222  20.385  0.00  0.00    +0.000 C 
ATOM     23  N   UNL     1       9.178  10.956  18.984  0.00  0.00    +0.000 NA
ATOM     24  C   UNL     1      10.225  11.488  18.110  0.00  0.00    +0.000 C 
ENDBRANCH  21  23
ENDBRANCH  20  21
ENDBRANCH  14  20
ENDBRANCH   1  17
TORSDOF 5
ENDMDL
MODEL 8
REMARK VINA RESULT:      -6.5      3.123      5.416
REMARK  Name = 
REMARK  7 active torsions:
REMARK  status: ('A' for Active; 'I' for Inactive)
REMARK    1  A    between atoms: C_1  and  N_2
REMARK    2  A    between atoms: N_2  and  C_3
REMARK    3  A    between atoms: N_2  and  C_4
REMARK    4  A    between atoms: C_4  and  C_5
REMARK    5  A    between atoms: C_5  and  N_6
REMARK    6  A    between atoms: C_9  and  N_10
REMARK    7  A    between atoms: N_10  and  C_11
REMARK                            x       y       z     vdW  Elec       q    Type
REMARK                         _______ _______ _______ _____ _____    ______ ____
ROOT
ATOM      1  N   UNL     1       5.728   5.094  19.096  0.00  0.00    +0.000 N 
ATOM      2  H   UNL     1       5.462   6.056  19.272  0.00  0.00    +0.000 HD
ENDROOT
BRANCH   1   3
ATOM      3  C   UNL     1       4.658   4.233  19.362  0.00  0.00    +0.000 A 
ATOM      4  N   UNL     1       4.879   2.902  19.359  0.00  0.00    +0.000 NA
ATOM      5  C   UNL     1       3.877   2.088  19.744  0.00  0.00    +0.000 A 
ATOM      6  C   UNL     1       2.635   2.531  20.153  0.00  0.00    +0.000 A 
ATOM      7  C   UNL     1       2.384   3.902  20.155  0.00  0.00    +0.000 A 
ATOM      8  C   UNL     1       1.140   4.405  20.578  0.00  0.00    +0.000 A 
ATOM      9  C   UNL     1       0.886   5.776  20.583  0.00  0.00    +0.000 A 
ATOM     10  C   UNL     1       1.873   6.649  20.153  0.00  0.00    +0.000 A 
ATOM     11  F   UNL     1       1.630   7.965  20.138  0.00  0.00    +0.000 F 
ATOM     12  C   UNL     1       3.111   6.178  19.741  0.00  0.00    +0.000 A 
ATOM     13  C   UNL     1       3.405   4.794  19.741  0.00  0.00    +0.000 A 
ENDBRANCH   1   3
BRANCH   1  17
ATOM     14  N   UNL     1       7.701   7.608  17.436  0.00  0.00    +0.000 NA
ATOM     15  C   UNL     1       8.169   6.712  18.504  0.00  0.00    +0.000 C 
ATOM     16  C   UNL     1       7.956   5.244  18.141  0.00  0.00    +0.000 C 
ATOM     17  C   UNL     1       6.485   4.944  17.847  0.00  0.00    +0.000 C 
ATOM     18  C   UNL     1       5.992   5.906  16.763  0.00  0.00    +0.000 C 
ATOM     19  C   UNL     1       6.283   7.370  17.109  0.00  0.00    +0.000 C 
BRANCH  14  20
ATOM     20  C   UNL     1       7.897   9.035  17.792  0.00  0.00    +0.000 C 
BRANCH  20  21
ATOM     21  C   UNL     1       8.879   9.261  18.972  0.00  0.00    +0.000 C 
BRANCH  21  23
ATOM     22  C   UNL     1       8.944  11.445  17.974  0.00  0.00    +0.000 C 
ATOM     23  N   UNL     1       9.541  10.583  19.002  0.00  0.00    +0.000 NA
ATOM     24  C   UNL     1       9.425  11.230  20.310  0.00  0.00    +0.000 C 
ENDBRANCH  21  23
ENDBRANCH  20  21
ENDBRANCH  14  20
ENDBRANCH   1  17
TORSDOF 5
ENDMDL
MODEL 9
REMARK VINA RESULT:      -6.5      2.273      3.214
REMARK  Name = 
REMARK  7 active torsions:
REMARK  status: ('A' for Active; 'I' for Inactive)
REMARK    1  A    between atoms: C_1  and  N_2
REMARK    2  A    between atoms: N_2  and  C_3
REMARK    3  A    between atoms: N_2  and  C_4
REMARK    4  A    between atoms: C_4  and  C_5
REMARK    5  A    between atoms: C_5  and  N_6
REMARK    6  A    between atoms: C_9  and  N_10
REMARK    7  A    between atoms: N_10  and  C_11
REMARK                            x       y       z     vdW  Elec       q    Type
REMARK                         _______ _______ _______ _____ _____    ______ ____
ROOT
ATOM      1  N   UNL     1       4.345   4.523  17.299  0.00  0.00    +0.000 N 
ATOM      2  H   UNL     1       4.520   3.669  16.782  0.00  0.00    +0.000 HD
ENDROOT
BRANCH   1   3
ATOM      3  C   UNL     1       3.591   4.256  18.446  0.00  0.00    +0.000 A 
ATOM      4  N   UNL     1       3.651   3.023  18.991  0.00  0.00    +0.000 NA
ATOM      5  C   UNL     1       3.025   2.815  20.166  0.00  0.00    +0.000 A 
ATOM      6  C   UNL     1       2.331   3.788  20.856  0.00  0.00    +0.000 A 
ATOM      7  C   UNL     1       2.250   5.066  20.305  0.00  0.00    +0.000 A 
ATOM      8  C   UNL     1       1.567   6.096  20.977  0.00  0.00    +0.000 A 
ATOM      9  C   UNL     1       1.485   7.376  20.430  0.00  0.00    +0.000 A 
ATOM     10  C   UNL     1       2.075   7.626  19.201  0.00  0.00    +0.000 A 
ATOM     11  F   UNL     1       1.986   8.847  18.661  0.00  0.00    +0.000 F 
ATOM     12  C   UNL     1       2.763   6.628  18.524  0.00  0.00    +0.000 A 
ATOM     13  C   UNL     1       2.879   5.325  19.062  0.00  0.00    +0.000 A 
ENDBRANCH   1   3
BRANCH   1  17
ATOM     14  N   UNL     1       6.762   5.184  14.713  0.00  0.00    +0.000 NA
ATOM     15  C   UNL     1       5.511   5.926  14.932  0.00  0.00    +0.000 C 
ATOM     16  C   UNL     1       5.428   6.481  16.353  0.00  0.00    +0.000 C 
ATOM     17  C   UNL     1       5.540   5.370  17.399  0.00  0.00    +0.000 C 
ATOM     18  C   UNL     1       6.823   4.577  17.141  0.00  0.00    +0.000 C 
ATOM     19  C   UNL     1       6.927   4.093  15.692  0.00  0.00    +0.000 C 
BRANCH  14  20
ATOM     20  C   UNL     1       6.840   4.635  13.337  0.00  0.00    +0.000 C 
BRANCH  20  21
ATOM     21  C   UNL     1       6.046   3.317  13.137  0.00  0.00    +0.000 C 
BRANCH  21  23
ATOM     22  C   UNL     1       5.887   1.603  11.464  0.00  0.00    +0.000 C 
ATOM     23  N   UNL     1       5.642   3.023  11.746  0.00  0.00    +0.000 NA
ATOM     24  C   UNL     1       4.234   3.335  11.499  0.00  0.00    +0.000 C 
ENDBRANCH  21  23
ENDBRANCH  20  21
ENDBRANCH  14  20
ENDBRANCH   1  17
TORSDOF 5
ENDMDL
