MODEL 1
REMARK VINA RESULT:      -8.1      0.000      0.000
REMARK  Name = 
REMARK  7 active torsions:
REMARK  status: ('A' for Active; 'I' for Inactive)
REMARK    1  A    between atoms: C_1  and  C_2
REMARK    2  A    between atoms: C_2  and  CA_3
REMARK    3  A    between atoms: CA_3  and  C_4
REMARK    4  A    between atoms: CA_3  and  N_6
REMARK    5  A    between atoms: C_4  and  O_5
REMARK    6  A    between atoms: N_10  and  C_11
REMARK    7  A    between atoms: C_17  and  C_18
REMARK                            x       y       z     vdW  Elec       q    Type
REMARK                         _______ _______ _______ _____ _____    ______ ____
ROOT
ATOM      1  N   UNL     1       2.510   3.893  20.927  0.00  0.00    +0.000 N 
ATOM      2  C   UNL     1       2.465   5.117  20.314  0.00  0.00    +0.000 A 
ATOM      3  N   UNL     1       1.701   6.089  20.939  0.00  0.00    +0.000 NA
ATOM      4  C   UNL     1       1.495   7.226  20.331  0.00  0.00    +0.000 A 
ATOM      5  N   UNL     1       0.684   8.265  20.753  0.00  0.00    +0.000 N 
ATOM      6  N   UNL     1       2.174   7.458  19.128  0.00  0.00    +0.000 N 
ATOM      7  N   UNL     1       2.126   8.631  18.447  0.00  0.00    +0.000 NA
ATOM      8  C   UNL     1       3.014   8.427  17.465  0.00  0.00    +0.000 A 
ATOM      9  C   UNL     1       3.622   7.148  17.531  0.00  0.00    +0.000 A 
ATOM     10  C   UNL     1       3.019   6.528  18.606  0.00  0.00    +0.000 A 
ATOM     11  N   UNL     1       3.115   5.307  19.193  0.00  0.00    +0.000 NA
ATOM     12  H   UNL     1       2.656   3.935  21.929  0.00  0.00    +0.000 HD
ATOM     13  H   UNL     1       0.760   9.098  20.162  0.00  0.00    +0.000 HD
ENDROOT
BRANCH   9  14
ATOM     14  C   UNL     1       4.625   6.616  16.670  0.00  0.00    +0.000 C 
ATOM     15  C   UNL     1       5.776   6.039  17.039  0.00  0.00    +0.000 C 
ATOM     16  N   UNL     1       6.257   5.858  18.303  0.00  0.00    +0.000 N 
ATOM     17  C   UNL     1       7.472   5.198  18.259  0.00  0.00    +0.000 C 
ATOM     18  O   UNL     1       8.141   4.857  19.221  0.00  0.00    +0.000 OA
ATOM     19  N   UNL     1       7.774   4.978  16.945  0.00  0.00    +0.000 N 
ATOM     20  C   UNL     1       6.801   5.464  16.118  0.00  0.00    +0.000 C 
ATOM     21  O   UNL     1       6.762   5.431  14.904  0.00  0.00    +0.000 OA
ATOM     22  H   UNL     1       5.742   6.068  19.148  0.00  0.00    +0.000 HD
ATOM     23  H   UNL     1       8.597   4.488  16.640  0.00  0.00    +0.000 HD
ENDBRANCH   9  14
BRANCH   5  24
ATOM     24  C   UNL     1       0.328   8.436  22.151  0.00  0.00    +0.000 C 
ATOM     25  C   UNL     1       0.978   9.496  22.993  0.00  0.00    +0.000 C 
ATOM     26  C   UNL     1      -0.451   9.658  22.567  0.00  0.00    +0.000 C 
ENDBRANCH   5  24
BRANCH   1  27
ATOM     27  CA  UNL     1       2.841   2.638  20.242  0.00  0.00    +0.000 C 
BRANCH  27  29
ATOM     28  C   UNL     1       0.819   2.361  18.700  0.00  0.00    +0.000 C 
ATOM     29  C   UNL     1       2.317   2.638  18.802  0.00  0.00    +0.000 C 
ENDBRANCH  27  29
BRANCH  27  30
ATOM     30  C   UNL     1       4.370   2.426  20.261  0.00  0.00    +0.000 C 
BRANCH  30  31
ATOM     31  O   UNL     1       4.999   2.983  19.109  0.00  0.00    +0.000 OA
ATOM     32  H   UNL     1       5.819   2.475  18.970  0.00  0.00    +0.000 HD
ENDBRANCH  30  31
ENDBRANCH  27  30
ENDBRANCH   1  27
TORSDOF 6
ENDMDL
MODEL 2
REMARK VINA RESULT:      -7.3      0.987      1.496
REMARK  Name = 
REMARK  7 active torsions:
REMARK  status: ('A' for Active; 'I' for Inactive)
REMARK    1  A    between atoms: C_1  and  C_2
REMARK    2  A    between atoms: C_2  and  CA_3
REMARK    3  A    between atoms: CA_3  and  C_4
REMARK    4  A    between atoms: CA_3  and  N_6
REMARK    5  A    between atoms: C_4  and  O_5
REMARK    6  A    between atoms: N_10  and  C_11
REMARK    7  A    between atoms: C_17  and  C_18
REMARK                            x       y       z     vdW  Elec       q    Type
REMARK                         _______ _______ _______ _____ _____    ______ ____
ROOT
ATOM      1  N   UNL     1       2.305   4.393  20.925  0.00  0.00    +0.000 N 
ATOM      2  C   UNL     1       2.358   5.604  20.287  0.00  0.00    +0.000 A 
ATOM      3  N   UNL     1       1.727   6.661  20.921  0.00  0.00    +0.000 NA
ATOM      4  C   UNL     1       1.612   7.802  20.295  0.00  0.00    +0.000 A 
ATOM      5  N   UNL     1       0.932   8.927  20.727  0.00  0.00    +0.000 N 
ATOM      6  N   UNL     1       2.258   7.940  19.059  0.00  0.00    +0.000 N 
ATOM      7  N   UNL     1       2.301   9.098  18.354  0.00  0.00    +0.000 NA
ATOM      8  C   UNL     1       3.119   8.785  17.341  0.00  0.00    +0.000 A 
ATOM      9  C   UNL     1       3.594   7.451  17.411  0.00  0.00    +0.000 A 
ATOM     10  C   UNL     1       2.979   6.917  18.525  0.00  0.00    +0.000 A 
ATOM     11  N   UNL     1       2.974   5.704  19.135  0.00  0.00    +0.000 NA
ATOM     12  H   UNL     1       2.498   4.438  21.919  0.00  0.00    +0.000 HD
ATOM     13  H   UNL     1       1.068   9.736  20.114  0.00  0.00    +0.000 HD
ENDROOT
BRANCH   9  14
ATOM     14  C   UNL     1       4.498   6.802  16.521  0.00  0.00    +0.000 C 
ATOM     15  C   UNL     1       5.613   6.138  16.852  0.00  0.00    +0.000 C 
ATOM     16  N   UNL     1       6.145   5.960  18.096  0.00  0.00    +0.000 N 
ATOM     17  C   UNL     1       7.294   5.192  18.016  0.00  0.00    +0.000 C 
ATOM     18  O   UNL     1       7.982   4.827  18.954  0.00  0.00    +0.000 OA
ATOM     19  N   UNL     1       7.502   4.900  16.697  0.00  0.00    +0.000 N 
ATOM     20  C   UNL     1       6.531   5.442  15.903  0.00  0.00    +0.000 C 
ATOM     21  O   UNL     1       6.423   5.370  14.695  0.00  0.00    +0.000 OA
ATOM     22  H   UNL     1       5.697   6.244  18.958  0.00  0.00    +0.000 HD
ATOM     23  H   UNL     1       8.262   4.328  16.370  0.00  0.00    +0.000 HD
ENDBRANCH   9  14
BRANCH   5  24
ATOM     24  C   UNL     1       0.658   9.161  22.135  0.00  0.00    +0.000 C 
ATOM     25  C   UNL     1      -0.175  10.328  22.580  0.00  0.00    +0.000 C 
ATOM     26  C   UNL     1      -0.738   8.940  22.658  0.00  0.00    +0.000 C 
ENDBRANCH   5  24
BRANCH   1  27
ATOM     27  CA  UNL     1       2.474   3.098  20.256  0.00  0.00    +0.000 C 
BRANCH  27  29
ATOM     28  C   UNL     1       4.694   1.850  20.487  0.00  0.00    +0.000 C 
ATOM     29  C   UNL     1       3.328   2.146  21.100  0.00  0.00    +0.000 C 
ENDBRANCH  27  29
BRANCH  27  30
ATOM     30  C   UNL     1       1.089   2.476  19.978  0.00  0.00    +0.000 C 
BRANCH  30  31
ATOM     31  O   UNL     1       1.055   1.783  18.733  0.00  0.00    +0.000 OA
ATOM     32  H   UNL     1       1.222   2.449  18.041  0.00  0.00    +0.000 HD
ENDBRANCH  30  31
ENDBRANCH  27  30
ENDBRANCH   1  27
TORSDOF 6
ENDMDL
MODEL 3
REMARK VINA RESULT:      -6.9      2.719      6.342
REMARK  Name = 
REMARK  7 active torsions:
REMARK  status: ('A' for Active; 'I' for Inactive)
REMARK    1  A    between atoms: C_1  and  C_2
REMARK    2  A    between atoms: C_2  and  CA_3
REMARK    3  A    between atoms: CA_3  and  C_4
REMARK    4  A    between atoms: CA_3  and  N_6
REMARK    5  A    between atoms: C_4  and  O_5
REMARK    6  A    between atoms: N_10  and  C_11
REMARK    7  A    between atoms: C_17  and  C_18
REMARK                            x       y       z     vdW  Elec       q    Type
REMARK                         _______ _______ _______ _____ _____    ______ ____
ROOT
ATOM      1  N   UNL     1       3.945   2.247  17.760  0.00  0.00    +0.000 N 
ATOM      2  C   UNL     1       4.277   3.427  17.148  0.00  0.00    +0.000 A 
ATOM      3  N   UNL     1       5.029   3.328  15.989  0.00  0.00    +0.000 NA
ATOM      4  C   UNL     1       5.505   4.415  15.443  0.00  0.00    +0.000 A 
ATOM      5  N   UNL     1       6.351   4.501  14.352  0.00  0.00    +0.000 N 
ATOM      6  N   UNL     1       5.114   5.646  15.986  0.00  0.00    +0.000 N 
ATOM      7  N   UNL     1       5.454   6.848  15.457  0.00  0.00    +0.000 NA
ATOM      8  C   UNL     1       4.758   7.703  16.217  0.00  0.00    +0.000 A 
ATOM      9  C   UNL     1       3.979   7.049  17.206  0.00  0.00    +0.000 A 
ATOM     10  C   UNL     1       4.268   5.708  17.050  0.00  0.00    +0.000 A 
ATOM     11  N   UNL     1       3.893   4.563  17.675  0.00  0.00    +0.000 NA
ATOM     12  H   UNL     1       3.613   1.530  17.126  0.00  0.00    +0.000 HD
ATOM     13  H   UNL     1       6.507   5.464  14.041  0.00  0.00    +0.000 HD
ENDROOT
BRANCH   9  14
ATOM     14  C   UNL     1       3.101   7.645  18.156  0.00  0.00    +0.000 C 
ATOM     15  C   UNL     1       2.591   7.068  19.251  0.00  0.00    +0.000 C 
ATOM     16  N   UNL     1       2.769   5.786  19.684  0.00  0.00    +0.000 N 
ATOM     17  C   UNL     1       2.090   5.588  20.874  0.00  0.00    +0.000 C 
ATOM     18  O   UNL     1       2.078   4.561  21.533  0.00  0.00    +0.000 OA
ATOM     19  N   UNL     1       1.456   6.757  21.185  0.00  0.00    +0.000 N 
ATOM     20  C   UNL     1       1.694   7.723  20.248  0.00  0.00    +0.000 C 
ATOM     21  O   UNL     1       1.282   8.866  20.227  0.00  0.00    +0.000 OA
ATOM     22  H   UNL     1       3.401   5.120  19.260  0.00  0.00    +0.000 HD
ATOM     23  H   UNL     1       0.912   6.886  22.021  0.00  0.00    +0.000 HD
ENDBRANCH   9  14
BRANCH   5  24
ATOM     24  C   UNL     1       6.445   3.432  13.372  0.00  0.00    +0.000 C 
ATOM     25  C   UNL     1       5.469   3.333  12.235  0.00  0.00    +0.000 C 
ATOM     26  C   UNL     1       6.882   3.759  11.967  0.00  0.00    +0.000 C 
ENDBRANCH   5  24
BRANCH   1  27
ATOM     27  CA  UNL     1       3.587   2.123  19.177  0.00  0.00    +0.000 C 
BRANCH  27  29
ATOM     28  C   UNL     1       1.087   2.554  18.856  0.00  0.00    +0.000 C 
ATOM     29  C   UNL     1       2.161   1.586  19.343  0.00  0.00    +0.000 C 
ENDBRANCH  27  29
BRANCH  27  30
ATOM     30  C   UNL     1       4.599   1.198  19.886  0.00  0.00    +0.000 C 
BRANCH  30  31
ATOM     31  O   UNL     1       5.118   1.786  21.076  0.00  0.00    +0.000 OA
ATOM     32  H   UNL     1       5.346   1.050  21.672  0.00  0.00    +0.000 HD
ENDBRANCH  30  31
ENDBRANCH  27  30
ENDBRANCH   1  27
TORSDOF 6
ENDMDL
MODEL 4
REMARK VINA RESULT:      -6.8      3.707      6.844
REMARK  Name = 
REMARK  7 active torsions:
REMARK  status: ('A' for Active; 'I' for Inactive)
REMARK    1  A    between atoms: C_1  and  C_2
REMARK    2  A    between atoms: C_2  and  CA_3
REMARK    3  A    between atoms: CA_3  and  C_4
REMARK    4  A    between atoms: CA_3  and  N_6
REMARK    5  A    between atoms: C_4  and  O_5
REMARK    6  A    between atoms: N_10  and  C_11
REMARK    7  A    between atoms: C_17  and  C_18
REMARK                            x       y       z     vdW  Elec       q    Type
REMARK                         _______ _______ _______ _____ _____    ______ ____
ROOT
ATOM      1  N   UNL     1       6.671   5.129  14.282  0.00  0.00    +0.000 N 
ATOM      2  C   UNL     1       6.416   5.352  15.609  0.00  0.00    +0.000 A 
ATOM      3  N   UNL     1       7.211   6.296  16.237  0.00  0.00    +0.000 NA
ATOM      4  C   UNL     1       7.119   6.447  17.532  0.00  0.00    +0.000 A 
ATOM      5  N   UNL     1       7.897   7.261  18.336  0.00  0.00    +0.000 N 
ATOM      6  N   UNL     1       6.118   5.735  18.205  0.00  0.00    +0.000 N 
ATOM      7  N   UNL     1       5.851   5.873  19.528  0.00  0.00    +0.000 NA
ATOM      8  C   UNL     1       4.757   5.115  19.680  0.00  0.00    +0.000 A 
ATOM      9  C   UNL     1       4.333   4.515  18.468  0.00  0.00    +0.000 A 
ATOM     10  C   UNL     1       5.269   4.910  17.533  0.00  0.00    +0.000 A 
ATOM     11  N   UNL     1       5.469   4.676  16.211  0.00  0.00    +0.000 NA
ATOM     12  H   UNL     1       6.800   5.972  13.736  0.00  0.00    +0.000 HD
ATOM     13  H   UNL     1       7.573   7.292  19.307  0.00  0.00    +0.000 HD
ENDROOT
BRANCH   9  14
ATOM     14  C   UNL     1       3.197   3.680  18.262  0.00  0.00    +0.000 C 
ATOM     15  C   UNL     1       2.386   3.181  19.203  0.00  0.00    +0.000 C 
ATOM     16  N   UNL     1       2.477   3.332  20.555  0.00  0.00    +0.000 N 
ATOM     17  C   UNL     1       1.428   2.679  21.179  0.00  0.00    +0.000 C 
ATOM     18  O   UNL     1       1.208   2.654  22.379  0.00  0.00    +0.000 OA
ATOM     19  N   UNL     1       0.675   2.088  20.205  0.00  0.00    +0.000 N 
ATOM     20  C   UNL     1       1.183   2.329  18.960  0.00  0.00    +0.000 C 
ATOM     21  O   UNL     1       0.755   1.950  17.888  0.00  0.00    +0.000 OA
ATOM     22  H   UNL     1       3.144   3.934  21.022  0.00  0.00    +0.000 HD
ATOM     23  H   UNL     1      -0.166   1.570  20.393  0.00  0.00    +0.000 HD
ENDBRANCH   9  14
BRANCH   5  24
ATOM     24  C   UNL     1       8.599   8.416  17.801  0.00  0.00    +0.000 C 
ATOM     25  C   UNL     1       7.928   9.756  17.706  0.00  0.00    +0.000 C 
ATOM     26  C   UNL     1       8.997   9.531  18.735  0.00  0.00    +0.000 C 
ENDBRANCH   5  24
BRANCH   1  27
ATOM     27  CA  UNL     1       6.305   3.902  13.565  0.00  0.00    +0.000 C 
BRANCH  27  29
ATOM     28  C   UNL     1       4.582   3.371  11.752  0.00  0.00    +0.000 C 
ATOM     29  C   UNL     1       4.829   3.920  13.154  0.00  0.00    +0.000 C 
ENDBRANCH  27  29
BRANCH  27  30
ATOM     30  C   UNL     1       7.209   3.740  12.324  0.00  0.00    +0.000 C 
BRANCH  30  31
ATOM     31  O   UNL     1       7.704   4.992  11.857  0.00  0.00    +0.000 OA
ATOM     32  H   UNL     1       8.597   5.094  12.234  0.00  0.00    +0.000 HD
ENDBRANCH  30  31
ENDBRANCH  27  30
ENDBRANCH   1  27
TORSDOF 6
ENDMDL
MODEL 5
REMARK VINA RESULT:      -6.7      1.584      2.116
REMARK  Name = 
REMARK  7 active torsions:
REMARK  status: ('A' for Active; 'I' for Inactive)
REMARK    1  A    between atoms: C_1  and  C_2
REMARK    2  A    between atoms: C_2  and  CA_3
REMARK    3  A    between atoms: CA_3  and  C_4
REMARK    4  A    between atoms: CA_3  and  N_6
REMARK    5  A    between atoms: C_4  and  O_5
REMARK    6  A    between atoms: N_10  and  C_11
REMARK    7  A    between atoms: C_17  and  C_18
REMARK                            x       y       z     vdW  Elec       q    Type
REMARK                         _______ _______ _______ _____ _____    ______ ____
ROOT
ATOM      1  N   UNL     1       1.829   4.530  21.139  0.00  0.00    +0.000 N 
ATOM      2  C   UNL     1       1.822   5.765  20.547  0.00  0.00    +0.000 A 
ATOM      3  N   UNL     1       1.021   6.726  21.142  0.00  0.00    +0.000 NA
ATOM      4  C   UNL     1       0.853   7.875  20.544  0.00  0.00    +0.000 A 
ATOM      5  N   UNL     1       0.018   8.907  20.935  0.00  0.00    +0.000 N 
ATOM      6  N   UNL     1       1.606   8.129  19.390  0.00  0.00    +0.000 N 
ATOM      7  N   UNL     1       1.601   9.314  18.730  0.00  0.00    +0.000 NA
ATOM      8  C   UNL     1       2.548   9.128  17.801  0.00  0.00    +0.000 A 
ATOM      9  C   UNL     1       3.150   7.846  17.880  0.00  0.00    +0.000 A 
ATOM     10  C   UNL     1       2.481   7.207  18.904  0.00  0.00    +0.000 A 
ATOM     11  N   UNL     1       2.540   5.975  19.472  0.00  0.00    +0.000 NA
ATOM     12  H   UNL     1       1.912   4.552  22.148  0.00  0.00    +0.000 HD
ATOM     13  H   UNL     1       0.132   9.751  20.365  0.00  0.00    +0.000 HD
ENDROOT
BRANCH   9  14
ATOM     14  C   UNL     1       4.205   7.329  17.073  0.00  0.00    +0.000 C 
ATOM     15  C   UNL     1       4.505   6.040  16.874  0.00  0.00    +0.000 C 
ATOM     16  N   UNL     1       3.898   4.944  17.414  0.00  0.00    +0.000 N 
ATOM     17  C   UNL     1       4.491   3.788  16.936  0.00  0.00    +0.000 C 
ATOM     18  O   UNL     1       4.157   2.645  17.201  0.00  0.00    +0.000 OA
ATOM     19  N   UNL     1       5.505   4.162  16.100  0.00  0.00    +0.000 N 
ATOM     20  C   UNL     1       5.600   5.521  16.001  0.00  0.00    +0.000 C 
ATOM     21  O   UNL     1       6.388   6.173  15.345  0.00  0.00    +0.000 OA
ATOM     22  H   UNL     1       3.061   4.973  17.982  0.00  0.00    +0.000 HD
ATOM     23  H   UNL     1       6.079   3.506  15.599  0.00  0.00    +0.000 HD
ENDBRANCH   9  14
BRANCH   5  24
ATOM     24  C   UNL     1      -0.424   9.053  22.311  0.00  0.00    +0.000 C 
ATOM     25  C   UNL     1       0.518   9.521  23.383  0.00  0.00    +0.000 C 
ATOM     26  C   UNL     1      -0.566  10.435  22.895  0.00  0.00    +0.000 C 
ENDBRANCH   5  24
BRANCH   1  27
ATOM     27  CA  UNL     1       2.200   3.287  20.452  0.00  0.00    +0.000 C 
BRANCH  27  29
ATOM     28  C   UNL     1       4.380   1.985  20.755  0.00  0.00    +0.000 C 
ATOM     29  C   UNL     1       3.037   2.381  21.362  0.00  0.00    +0.000 C 
ENDBRANCH  27  29
BRANCH  27  30
ATOM     30  C   UNL     1       0.925   2.553  19.985  0.00  0.00    +0.000 C 
BRANCH  30  31
ATOM     31  O   UNL     1       1.175   1.706  18.867  0.00  0.00    +0.000 OA
ATOM     32  H   UNL     1       0.487   1.909  18.207  0.00  0.00    +0.000 HD
ENDBRANCH  30  31
ENDBRANCH  27  30
ENDBRANCH   1  27
TORSDOF 6
ENDMDL
MODEL 6
REMARK VINA RESULT:      -6.6      3.243      6.589
REMARK  Name = 
REMARK  7 active torsions:
REMARK  status: ('A' for Active; 'I' for Inactive)
REMARK    1  A    between atoms: C_1  and  C_2
REMARK    2  A    between atoms: C_2  and  CA_3
REMARK    3  A    between atoms: CA_3  and  C_4
REMARK    4  A    between atoms: CA_3  and  N_6
REMARK    5  A    between atoms: C_4  and  O_5
REMARK    6  A    between atoms: N_10  and  C_11
REMARK    7  A    between atoms: C_17  and  C_18
REMARK                            x       y       z     vdW  Elec       q    Type
REMARK                         _______ _______ _______ _____ _____    ______ ____
ROOT
ATOM      1  N   UNL     1       2.984   2.228  18.094  0.00  0.00    +0.000 N 
ATOM      2  C   UNL     1       3.438   3.447  17.667  0.00  0.00    +0.000 A 
ATOM      3  N   UNL     1       4.367   3.432  16.639  0.00  0.00    +0.000 NA
ATOM      4  C   UNL     1       4.949   4.547  16.290  0.00  0.00    +0.000 A 
ATOM      5  N   UNL     1       5.964   4.706  15.363  0.00  0.00    +0.000 N 
ATOM      6  N   UNL     1       4.502   5.735  16.885  0.00  0.00    +0.000 N 
ATOM      7  N   UNL     1       4.951   6.968  16.542  0.00  0.00    +0.000 NA
ATOM      8  C   UNL     1       4.159   7.771  17.263  0.00  0.00    +0.000 A 
ATOM      9  C   UNL     1       3.215   7.055  18.043  0.00  0.00    +0.000 A 
ATOM     10  C   UNL     1       3.495   5.726  17.801  0.00  0.00    +0.000 A 
ATOM     11  N   UNL     1       2.997   4.541  18.238  0.00  0.00    +0.000 NA
ATOM     12  H   UNL     1       2.744   1.588  17.346  0.00  0.00    +0.000 HD
ATOM     13  H   UNL     1       6.190   5.688  15.181  0.00  0.00    +0.000 HD
ENDROOT
BRANCH   9  14
ATOM     14  C   UNL     1       2.207   7.590  18.896  0.00  0.00    +0.000 C 
ATOM     15  C   UNL     1       1.803   8.865  18.961  0.00  0.00    +0.000 C 
ATOM     16  N   UNL     1       2.277   9.932  18.256  0.00  0.00    +0.000 N 
ATOM     17  C   UNL     1       1.576  11.076  18.595  0.00  0.00    +0.000 C 
ATOM     18  O   UNL     1       1.736  12.187  18.116  0.00  0.00    +0.000 OA
ATOM     19  N   UNL     1       0.659  10.729  19.546  0.00  0.00    +0.000 N 
ATOM     20  C   UNL     1       0.723   9.397  19.844  0.00  0.00    +0.000 C 
ATOM     21  O   UNL     1       0.051   8.773  20.641  0.00  0.00    +0.000 OA
ATOM     22  H   UNL     1       2.958   9.870  17.509  0.00  0.00    +0.000 HD
ATOM     23  H   UNL     1       0.001  11.378  19.943  0.00  0.00    +0.000 HD
ENDBRANCH   9  14
BRANCH   5  24
ATOM     24  C   UNL     1       6.194   3.734  14.307  0.00  0.00    +0.000 C 
ATOM     25  C   UNL     1       5.365   3.738  13.055  0.00  0.00    +0.000 C 
ATOM     26  C   UNL     1       6.794   4.193  13.003  0.00  0.00    +0.000 C 
ENDBRANCH   5  24
BRANCH   1  27
ATOM     27  CA  UNL     1       2.396   1.981  19.416  0.00  0.00    +0.000 C 
BRANCH  27  29
ATOM     28  C   UNL     1       2.264   3.304  21.600  0.00  0.00    +0.000 C 
ATOM     29  C   UNL     1       3.165   2.728  20.511  0.00  0.00    +0.000 C 
ENDBRANCH  27  29
BRANCH  27  30
ATOM     30  C   UNL     1       0.913   2.408  19.410  0.00  0.00    +0.000 C 
BRANCH  30  31
ATOM     31  O   UNL     1       0.217   1.901  18.274  0.00  0.00    +0.000 OA
ATOM     32  H   UNL     1       0.854   1.899  17.537  0.00  0.00    +0.000 HD
ENDBRANCH  30  31
ENDBRANCH  27  30
ENDBRANCH   1  27
TORSDOF 6
ENDMDL
MODEL 7
REMARK VINA RESULT:      -6.6      3.152      6.563
REMARK  Name = 
REMARK  7 active torsions:
REMARK  status: ('A' for Active; 'I' for Inactive)
REMARK    1  A    between atoms: C_1  and  C_2
REMARK    2  A    between atoms: C_2  and  CA_3
REMARK    3  A    between atoms: CA_3  and  C_4
REMARK    4  A    between atoms: CA_3  and  N_6
REMARK    5  A    between atoms: C_4  and  O_5
REMARK    6  A    between atoms: N_10  and  C_11
REMARK    7  A    between atoms: C_17  and  C_18
REMARK                            x       y       z     vdW  Elec       q    Type
REMARK                         _______ _______ _______ _____ _____    ______ ____
ROOT
ATOM      1  N   UNL     1       4.380   2.358  18.979  0.00  0.00    +0.000 N 
ATOM      2  C   UNL     1       4.346   3.553  18.310  0.00  0.00    +0.000 A 
ATOM      3  N   UNL     1       4.972   3.582  17.075  0.00  0.00    +0.000 NA
ATOM      4  C   UNL     1       5.105   4.725  16.455  0.00  0.00    +0.000 A 
ATOM      5  N   UNL     1       5.785   4.960  15.273  0.00  0.00    +0.000 N 
ATOM      6  N   UNL     1       4.484   5.849  17.014  0.00  0.00    +0.000 N 
ATOM      7  N   UNL     1       4.461   7.071  16.424  0.00  0.00    +0.000 NA
ATOM      8  C   UNL     1       3.660   7.768  17.241  0.00  0.00    +0.000 A 
ATOM      9  C   UNL     1       3.175   6.993  18.326  0.00  0.00    +0.000 A 
ATOM     10  C   UNL     1       3.766   5.756  18.166  0.00  0.00    +0.000 A 
ATOM     11  N   UNL     1       3.752   4.586  18.853  0.00  0.00    +0.000 NA
ATOM     12  H   UNL     1       4.169   1.552  18.403  0.00  0.00    +0.000 HD
ATOM     13  H   UNL     1       5.666   5.917  14.927  0.00  0.00    +0.000 HD
ENDROOT
BRANCH   9  14
ATOM     14  C   UNL     1       2.283   7.405  19.358  0.00  0.00    +0.000 C 
ATOM     15  C   UNL     1       1.646   8.579  19.448  0.00  0.00    +0.000 C 
ATOM     16  N   UNL     1       1.727   9.644  18.600  0.00  0.00    +0.000 N 
ATOM     17  C   UNL     1       0.891  10.660  19.031  0.00  0.00    +0.000 C 
ATOM     18  O   UNL     1       0.712  11.730  18.473  0.00  0.00    +0.000 OA
ATOM     19  N   UNL     1       0.291  10.237  20.183  0.00  0.00    +0.000 N 
ATOM     20  C   UNL     1       0.693   8.977  20.526  0.00  0.00    +0.000 C 
ATOM     21  O   UNL     1       0.350   8.315  21.485  0.00  0.00    +0.000 OA
ATOM     22  H   UNL     1       2.231   9.642  17.722  0.00  0.00    +0.000 HD
ATOM     23  H   UNL     1      -0.388  10.783  20.686  0.00  0.00    +0.000 HD
ENDBRANCH   9  14
BRANCH   5  24
ATOM     24  C   UNL     1       6.035   3.900  14.311  0.00  0.00    +0.000 C 
ATOM     25  C   UNL     1       5.328   3.872  12.987  0.00  0.00    +0.000 C 
ATOM     26  C   UNL     1       6.787   4.219  13.045  0.00  0.00    +0.000 C 
ENDBRANCH   5  24
BRANCH   1  27
ATOM     27  CA  UNL     1       4.215   2.220  20.431  0.00  0.00    +0.000 C 
BRANCH  27  29
ATOM     28  C   UNL     1       2.289   3.357  21.672  0.00  0.00    +0.000 C 
ATOM     29  C   UNL     1       2.733   2.172  20.818  0.00  0.00    +0.000 C 
ENDBRANCH  27  29
BRANCH  27  30
ATOM     30  C   UNL     1       4.940   0.946  20.914  0.00  0.00    +0.000 C 
BRANCH  30  31
ATOM     31  O   UNL     1       5.878   1.226  21.950  0.00  0.00    +0.000 OA
ATOM     32  H   UNL     1       5.709   0.578  22.658  0.00  0.00    +0.000 HD
ENDBRANCH  30  31
ENDBRANCH  27  30
ENDBRANCH   1  27
TORSDOF 6
ENDMDL
MODEL 8
REMARK VINA RESULT:      -6.6      7.509     11.710
REMARK  Name = 
REMARK  7 active torsions:
REMARK  status: ('A' for Active; 'I' for Inactive)
REMARK    1  A    between atoms: C_1  and  C_2
REMARK    2  A    between atoms: C_2  and  CA_3
REMARK    3  A    between atoms: CA_3  and  C_4
REMARK    4  A    between atoms: CA_3  and  N_6
REMARK    5  A    between atoms: C_4  and  O_5
REMARK    6  A    between atoms: N_10  and  C_11
REMARK    7  A    between atoms: C_17  and  C_18
REMARK                            x       y       z     vdW  Elec       q    Type
REMARK                         _______ _______ _______ _____ _____    ______ ____
ROOT
ATOM      1  N   UNL     1      -4.073  11.911  17.999  0.00  0.00    +0.000 N 
ATOM      2  C   UNL     1      -3.088  11.893  18.952  0.00  0.00    +0.000 A 
ATOM      3  N   UNL     1      -1.932  11.202  18.627  0.00  0.00    +0.000 NA
ATOM      4  C   UNL     1      -1.020  11.021  19.544  0.00  0.00    +0.000 A 
ATOM      5  N   UNL     1       0.142  10.277  19.433  0.00  0.00    +0.000 N 
ATOM      6  N   UNL     1      -1.198  11.655  20.781  0.00  0.00    +0.000 N 
ATOM      7  N   UNL     1      -0.284  11.630  21.782  0.00  0.00    +0.000 NA
ATOM      8  C   UNL     1      -0.822  12.462  22.683  0.00  0.00    +0.000 A 
ATOM      9  C   UNL     1      -2.055  13.014  22.251  0.00  0.00    +0.000 A 
ATOM     10  C   UNL     1      -2.289  12.433  21.021  0.00  0.00    +0.000 A 
ATOM     11  N   UNL     1      -3.281  12.500  20.097  0.00  0.00    +0.000 NA
ATOM     12  H   UNL     1      -3.741  12.102  17.062  0.00  0.00    +0.000 HD
ATOM     13  H   UNL     1       0.753  10.364  20.249  0.00  0.00    +0.000 HD
ENDROOT
BRANCH   9  14
ATOM     14  C   UNL     1      -2.877  13.953  22.939  0.00  0.00    +0.000 C 
ATOM     15  C   UNL     1      -4.135  13.766  23.355  0.00  0.00    +0.000 C 
ATOM     16  N   UNL     1      -4.918  12.661  23.191  0.00  0.00    +0.000 N 
ATOM     17  C   UNL     1      -6.150  12.857  23.789  0.00  0.00    +0.000 C 
ATOM     18  O   UNL     1      -7.059  12.045  23.847  0.00  0.00    +0.000 OA
ATOM     19  N   UNL     1      -6.153  14.116  24.320  0.00  0.00    +0.000 N 
ATOM     20  C   UNL     1      -4.967  14.757  24.100  0.00  0.00    +0.000 C 
ATOM     21  O   UNL     1      -4.646  15.879  24.440  0.00  0.00    +0.000 OA
ATOM     22  H   UNL     1      -4.598  11.785  22.796  0.00  0.00    +0.000 HD
ATOM     23  H   UNL     1      -6.928  14.497  24.836  0.00  0.00    +0.000 HD
ENDBRANCH   9  14
BRANCH   5  24
ATOM     24  C   UNL     1       0.745   9.992  18.141  0.00  0.00    +0.000 C 
ATOM     25  C   UNL     1       2.205  10.238  17.896  0.00  0.00    +0.000 C 
ATOM     26  C   UNL     1       1.698   8.831  18.016  0.00  0.00    +0.000 C 
ENDBRANCH   5  24
BRANCH   1  27
ATOM     27  CA  UNL     1      -5.492  12.153  18.282  0.00  0.00    +0.000 C 
BRANCH  27  29
ATOM     28  C   UNL     1      -6.787  13.902  16.939  0.00  0.00    +0.000 C 
ATOM     29  C   UNL     1      -6.266  12.468  16.998  0.00  0.00    +0.000 C 
ENDBRANCH  27  29
BRANCH  27  30
ATOM     30  C   UNL     1      -6.096  10.920  18.988  0.00  0.00    +0.000 C 
BRANCH  30  31
ATOM     31  O   UNL     1      -7.316  10.502  18.381  0.00  0.00    +0.000 OA
ATOM     32  H   UNL     1      -7.997  11.140  18.662  0.00  0.00    +0.000 HD
ENDBRANCH  30  31
ENDBRANCH  27  30
ENDBRANCH   1  27
TORSDOF 6
ENDMDL
MODEL 9
REMARK VINA RESULT:      -6.5      8.807     11.934
REMARK  Name = 
REMARK  7 active torsions:
REMARK  status: ('A' for Active; 'I' for Inactive)
REMARK    1  A    between atoms: C_1  and  C_2
REMARK    2  A    between atoms: C_2  and  CA_3
REMARK    3  A    between atoms: CA_3  and  C_4
REMARK    4  A    between atoms: CA_3  and  N_6
REMARK    5  A    between atoms: C_4  and  O_5
REMARK    6  A    between atoms: N_10  and  C_11
REMARK    7  A    between atoms: C_17  and  C_18
REMARK                            x       y       z     vdW  Elec       q    Type
REMARK                         _______ _______ _______ _____ _____    ______ ____
ROOT
ATOM      1  N   UNL     1      -1.561  12.322  20.068  0.00  0.00    +0.000 N 
ATOM      2  C   UNL     1      -2.787  12.142  19.486  0.00  0.00    +0.000 A 
ATOM      3  N   UNL     1      -2.786  11.810  18.142  0.00  0.00    +0.000 NA
ATOM      4  C   UNL     1      -3.920  11.772  17.494  0.00  0.00    +0.000 A 
ATOM      5  N   UNL     1      -4.102  11.561  16.138  0.00  0.00    +0.000 N 
ATOM      6  N   UNL     1      -5.101  11.937  18.230  0.00  0.00    +0.000 N 
ATOM      7  N   UNL     1      -6.344  11.823  17.699  0.00  0.00    +0.000 NA
ATOM      8  C   UNL     1      -7.127  11.925  18.781  0.00  0.00    +0.000 A 
ATOM      9  C   UNL     1      -6.388  12.091  19.980  0.00  0.00    +0.000 A 
ATOM     10  C   UNL     1      -5.069  12.135  19.576  0.00  0.00    +0.000 A 
ATOM     11  N   UNL     1      -3.875  12.297  20.200  0.00  0.00    +0.000 NA
ATOM     12  H   UNL     1      -0.879  11.611  19.831  0.00  0.00    +0.000 HD
ATOM     13  H   UNL     1      -5.088  11.471  15.876  0.00  0.00    +0.000 HD
ENDROOT
BRANCH   9  14
ATOM     14  C   UNL     1      -6.895  12.200  21.307  0.00  0.00    +0.000 C 
ATOM     15  C   UNL     1      -6.199  12.499  22.411  0.00  0.00    +0.000 C 
ATOM     16  N   UNL     1      -4.860  12.734  22.520  0.00  0.00    +0.000 N 
ATOM     17  C   UNL     1      -4.535  13.034  23.832  0.00  0.00    +0.000 C 
ATOM     18  O   UNL     1      -3.427  13.325  24.250  0.00  0.00    +0.000 OA
ATOM     19  N   UNL     1      -5.685  12.963  24.566  0.00  0.00    +0.000 N 
ATOM     20  C   UNL     1      -6.759  12.634  23.788  0.00  0.00    +0.000 C 
ATOM     21  O   UNL     1      -7.917  12.492  24.129  0.00  0.00    +0.000 OA
ATOM     22  H   UNL     1      -4.223  12.800  21.736  0.00  0.00    +0.000 HD
ATOM     23  H   UNL     1      -5.726  13.165  25.551  0.00  0.00    +0.000 HD
ENDBRANCH   9  14
BRANCH   5  24
ATOM     24  C   UNL     1      -3.104  10.879  15.331  0.00  0.00    +0.000 C 
ATOM     25  C   UNL     1      -2.971   9.384  15.362  0.00  0.00    +0.000 C 
ATOM     26  C   UNL     1      -3.552  10.054  14.152  0.00  0.00    +0.000 C 
ENDBRANCH   5  24
BRANCH   1  27
ATOM     27  CA  UNL     1      -1.332  13.105  21.288  0.00  0.00    +0.000 C 
BRANCH  27  29
ATOM     28  C   UNL     1      -1.115  11.075  22.829  0.00  0.00    +0.000 C 
ATOM     29  C   UNL     1      -0.454  12.337  22.282  0.00  0.00    +0.000 C 
ENDBRANCH  27  29
BRANCH  27  30
ATOM     30  C   UNL     1      -0.678  14.454  20.921  0.00  0.00    +0.000 C 
BRANCH  30  31
ATOM     31  O   UNL     1      -0.892  14.797  19.554  0.00  0.00    +0.000 OA
ATOM     32  H   UNL     1      -1.246  13.998  19.122  0.00  0.00    +0.000 HD
ENDBRANCH  30  31
ENDBRANCH  27  30
ENDBRANCH   1  27
TORSDOF 6
ENDMDL
