MODEL 1
REMARK VINA RESULT:      -7.3      0.000      0.000
REMARK  Name = 
REMARK  8 active torsions:
REMARK  status: ('A' for Active; 'I' for Inactive)
REMARK    1  A    between atoms: C_1  and  C_2
REMARK    2  A    between atoms: N_4  and  C_5
REMARK    3  A    between atoms: C_5  and  C_6
REMARK    4  A    between atoms: C_10  and  C_11
REMARK    5  A    between atoms: C_11  and  N_12
REMARK    6  A    between atoms: N_12  and  S_13
REMARK    7  A    between atoms: S_13  and  C_16
REMARK    8  A    between atoms: C_19  and  C_20
REMARK                            x       y       z     vdW  Elec       q    Type
REMARK                         _______ _______ _______ _____ _____    ______ ____
ROOT
ATOM      1  C   UNL     1       5.320   5.086  16.911  0.00  0.00    +0.000 A 
ATOM      2  C   UNL     1       5.842   5.657  18.078  0.00  0.00    +0.000 A 
ATOM      3  C   UNL     1       5.713   5.001  19.302  0.00  0.00    +0.000 A 
ATOM      4  C   UNL     1       5.061   3.769  19.372  0.00  0.00    +0.000 A 
ATOM      5  C   UNL     1       4.488   3.195  18.229  0.00  0.00    +0.000 A 
ATOM      6  C   UNL     1       4.619   3.872  17.004  0.00  0.00    +0.000 A 
ENDROOT
BRANCH   1   7
ATOM      7  C   UNL     1       5.504   5.762  15.573  0.00  0.00    +0.000 C 
BRANCH   7  11
ATOM      8  C   UNL     1       6.461   3.508  12.642  0.00  0.00    +0.000 C 
ATOM      9  C   UNL     1       6.578   4.580  13.697  0.00  0.00    +0.000 C 
ATOM     10  N   UNL     1       7.659   5.284  13.802  0.00  0.00    +0.000 NA
ATOM     11  N   UNL     1       5.504   4.779  14.516  0.00  0.00    +0.000 N 
ATOM     12  H   UNL     1       8.352   4.993  13.105  0.00  0.00    +0.000 HD
ATOM     13  H   UNL     1       4.784   4.068  14.562  0.00  0.00    +0.000 HD
ENDBRANCH   7  11
ENDBRANCH   1   7
BRANCH   5  14
ATOM     14  C   UNL     1       3.821   1.836  18.266  0.00  0.00    +0.000 C 
BRANCH  14  15
ATOM     15  N   UNL     1       2.379   1.892  18.002  0.00  0.00    +0.000 NA
ATOM     16  H   UNL     1       1.965   1.035  17.635  0.00  0.00    +0.000 HD
BRANCH  15  17
ATOM     17  S   UNL     1       1.411   2.546  19.211  0.00  0.00    +0.000 S 
ATOM     18  O   UNL     1       0.045   2.302  18.805  0.00  0.00    +0.000 OA
ATOM     19  O   UNL     1       1.918   2.079  20.485  0.00  0.00    +0.000 OA
BRANCH  17  20
ATOM     20  C   UNL     1       1.699   4.290  19.079  0.00  0.00    +0.000 A 
ATOM     21  C   UNL     1       1.647   4.893  17.821  0.00  0.00    +0.000 A 
ATOM     22  C   UNL     1       1.826   6.273  17.707  0.00  0.00    +0.000 A 
ATOM     23  C   UNL     1       2.051   7.058  18.845  0.00  0.00    +0.000 A 
ATOM     24  C   UNL     1       2.215   8.547  18.732  0.00  0.00    +0.000 C 
ATOM     25  C   UNL     1       2.096   6.440  20.105  0.00  0.00    +0.000 A 
ATOM     26  C   UNL     1       1.916   5.060  20.226  0.00  0.00    +0.000 A 
ENDBRANCH  17  20
ENDBRANCH  15  17
ENDBRANCH  14  15
ENDBRANCH   5  14
TORSDOF 6
ENDMDL
MODEL 2
REMARK VINA RESULT:      -7.3      1.444      1.970
REMARK  Name = 
REMARK  8 active torsions:
REMARK  status: ('A' for Active; 'I' for Inactive)
REMARK    1  A    between atoms: C_1  and  C_2
REMARK    2  A    between atoms: N_4  and  C_5
REMARK    3  A    between atoms: C_5  and  C_6
REMARK    4  A    between atoms: C_10  and  C_11
REMARK    5  A    between atoms: C_11  and  N_12
REMARK    6  A    between atoms: N_12  and  S_13
REMARK    7  A    between atoms: S_13  and  C_16
REMARK    8  A    between atoms: C_19  and  C_20
REMARK                            x       y       z     vdW  Elec       q    Type
REMARK                         _______ _______ _______ _____ _____    ______ ____
ROOT
ATOM      1  C   UNL     1       6.808   5.015  16.170  0.00  0.00    +0.000 A 
ATOM      2  C   UNL     1       7.343   6.166  16.761  0.00  0.00    +0.000 A 
ATOM      3  C   UNL     1       7.071   6.463  18.096  0.00  0.00    +0.000 A 
ATOM      4  C   UNL     1       6.262   5.614  18.853  0.00  0.00    +0.000 A 
ATOM      5  C   UNL     1       5.676   4.479  18.276  0.00  0.00    +0.000 A 
ATOM      6  C   UNL     1       5.952   4.197  16.926  0.00  0.00    +0.000 A 
ENDROOT
BRANCH   1   7
ATOM      7  C   UNL     1       7.143   4.655  14.741  0.00  0.00    +0.000 C 
BRANCH   7  11
ATOM      8  C   UNL     1       4.685   3.280  12.162  0.00  0.00    +0.000 C 
ATOM      9  C   UNL     1       5.981   3.777  12.754  0.00  0.00    +0.000 C 
ATOM     10  N   UNL     1       7.056   3.824  12.037  0.00  0.00    +0.000 NA
ATOM     11  N   UNL     1       5.963   4.180  14.059  0.00  0.00    +0.000 N 
ATOM     12  H   UNL     1       6.875   3.484  11.087  0.00  0.00    +0.000 HD
ATOM     13  H   UNL     1       5.182   3.911  14.645  0.00  0.00    +0.000 HD
ENDBRANCH   7  11
ENDBRANCH   1   7
BRANCH   5  14
ATOM     14  C   UNL     1       4.838   3.513  19.086  0.00  0.00    +0.000 C 
BRANCH  14  15
ATOM     15  N   UNL     1       4.096   2.556  18.259  0.00  0.00    +0.000 NA
ATOM     16  H   UNL     1       4.310   1.572  18.424  0.00  0.00    +0.000 HD
BRANCH  15  17
ATOM     17  S   UNL     1       2.434   2.787  18.138  0.00  0.00    +0.000 S 
ATOM     18  O   UNL     1       2.148   2.898  16.725  0.00  0.00    +0.000 OA
ATOM     19  O   UNL     1       1.787   1.790  18.967  0.00  0.00    +0.000 OA
BRANCH  17  20
ATOM     20  C   UNL     1       2.181   4.388  18.857  0.00  0.00    +0.000 A 
ATOM     21  C   UNL     1       1.800   4.477  20.197  0.00  0.00    +0.000 A 
ATOM     22  C   UNL     1       1.643   5.732  20.789  0.00  0.00    +0.000 A 
ATOM     23  C   UNL     1       1.870   6.901  20.051  0.00  0.00    +0.000 A 
ATOM     24  C   UNL     1       1.730   8.252  20.691  0.00  0.00    +0.000 C 
ATOM     25  C   UNL     1       2.256   6.797  18.706  0.00  0.00    +0.000 A 
ATOM     26  C   UNL     1       2.417   5.544  18.108  0.00  0.00    +0.000 A 
ENDBRANCH  17  20
ENDBRANCH  15  17
ENDBRANCH  14  15
ENDBRANCH   5  14
TORSDOF 6
ENDMDL
MODEL 3
REMARK VINA RESULT:      -7.3      1.703      2.187
REMARK  Name = 
REMARK  8 active torsions:
REMARK  status: ('A' for Active; 'I' for Inactive)
REMARK    1  A    between atoms: C_1  and  C_2
REMARK    2  A    between atoms: N_4  and  C_5
REMARK    3  A    between atoms: C_5  and  C_6
REMARK    4  A    between atoms: C_10  and  C_11
REMARK    5  A    between atoms: C_11  and  N_12
REMARK    6  A    between atoms: N_12  and  S_13
REMARK    7  A    between atoms: S_13  and  C_16
REMARK    8  A    between atoms: C_19  and  C_20
REMARK                            x       y       z     vdW  Elec       q    Type
REMARK                         _______ _______ _______ _____ _____    ______ ____
ROOT
ATOM      1  C   UNL     1       6.470   4.614  15.521  0.00  0.00    +0.000 A 
ATOM      2  C   UNL     1       7.062   5.771  16.043  0.00  0.00    +0.000 A 
ATOM      3  C   UNL     1       6.767   6.188  17.341  0.00  0.00    +0.000 A 
ATOM      4  C   UNL     1       5.879   5.454  18.129  0.00  0.00    +0.000 A 
ATOM      5  C   UNL     1       5.237   4.318  17.617  0.00  0.00    +0.000 A 
ATOM      6  C   UNL     1       5.537   3.914  16.305  0.00  0.00    +0.000 A 
ENDROOT
BRANCH   1   7
ATOM      7  C   UNL     1       6.826   4.123  14.137  0.00  0.00    +0.000 C 
BRANCH   7  11
ATOM      8  C   UNL     1       4.249   3.209  11.471  0.00  0.00    +0.000 C 
ATOM      9  C   UNL     1       5.551   3.218  12.233  0.00  0.00    +0.000 C 
ATOM     10  N   UNL     1       6.540   2.475  11.854  0.00  0.00    +0.000 NA
ATOM     11  N   UNL     1       5.640   4.043  13.318  0.00  0.00    +0.000 N 
ATOM     12  H   UNL     1       6.287   1.929  11.024  0.00  0.00    +0.000 HD
ATOM     13  H   UNL     1       4.790   4.420  13.719  0.00  0.00    +0.000 HD
ENDBRANCH   7  11
ENDBRANCH   1   7
BRANCH   5  14
ATOM     14  C   UNL     1       4.310   3.475  18.467  0.00  0.00    +0.000 C 
BRANCH  14  15
ATOM     15  N   UNL     1       3.989   4.089  19.760  0.00  0.00    +0.000 NA
ATOM     16  H   UNL     1       4.570   4.885  20.025  0.00  0.00    +0.000 HD
BRANCH  15  17
ATOM     17  S   UNL     1       2.367   4.413  20.064  0.00  0.00    +0.000 S 
ATOM     18  O   UNL     1       1.617   3.624  19.112  0.00  0.00    +0.000 OA
ATOM     19  O   UNL     1       2.151   4.288  21.491  0.00  0.00    +0.000 OA
BRANCH  17  20
ATOM     20  C   UNL     1       2.186   6.114  19.600  0.00  0.00    +0.000 A 
ATOM     21  C   UNL     1       2.446   6.489  18.280  0.00  0.00    +0.000 A 
ATOM     22  C   UNL     1       2.263   7.816  17.889  0.00  0.00    +0.000 A 
ATOM     23  C   UNL     1       1.816   8.774  18.808  0.00  0.00    +0.000 A 
ATOM     24  C   UNL     1       1.589  10.197  18.386  0.00  0.00    +0.000 C 
ATOM     25  C   UNL     1       1.554   8.384  20.131  0.00  0.00    +0.000 A 
ATOM     26  C   UNL     1       1.733   7.056  20.528  0.00  0.00    +0.000 A 
ENDBRANCH  17  20
ENDBRANCH  15  17
ENDBRANCH  14  15
ENDBRANCH   5  14
TORSDOF 6
ENDMDL
MODEL 4
REMARK VINA RESULT:      -7.2      1.098      1.596
REMARK  Name = 
REMARK  8 active torsions:
REMARK  status: ('A' for Active; 'I' for Inactive)
REMARK    1  A    between atoms: C_1  and  C_2
REMARK    2  A    between atoms: N_4  and  C_5
REMARK    3  A    between atoms: C_5  and  C_6
REMARK    4  A    between atoms: C_10  and  C_11
REMARK    5  A    between atoms: C_11  and  N_12
REMARK    6  A    between atoms: N_12  and  S_13
REMARK    7  A    between atoms: S_13  and  C_16
REMARK    8  A    between atoms: C_19  and  C_20
REMARK                            x       y       z     vdW  Elec       q    Type
REMARK                         _______ _______ _______ _____ _____    ______ ____
ROOT
ATOM      1  C   UNL     1       5.540   4.155  16.525  0.00  0.00    +0.000 A 
ATOM      2  C   UNL     1       6.131   5.354  16.940  0.00  0.00    +0.000 A 
ATOM      3  C   UNL     1       6.127   5.712  18.288  0.00  0.00    +0.000 A 
ATOM      4  C   UNL     1       5.532   4.875  19.234  0.00  0.00    +0.000 A 
ATOM      5  C   UNL     1       4.893   3.691  18.842  0.00  0.00    +0.000 A 
ATOM      6  C   UNL     1       4.897   3.348  17.479  0.00  0.00    +0.000 A 
ENDROOT
BRANCH   1   7
ATOM      7  C   UNL     1       5.589   3.732  15.075  0.00  0.00    +0.000 C 
BRANCH   7  11
ATOM      8  C   UNL     1       7.834   5.269  12.395  0.00  0.00    +0.000 C 
ATOM      9  C   UNL     1       6.878   4.306  13.056  0.00  0.00    +0.000 C 
ATOM     10  N   UNL     1       6.440   3.271  12.417  0.00  0.00    +0.000 NA
ATOM     11  N   UNL     1       6.511   4.569  14.345  0.00  0.00    +0.000 N 
ATOM     12  H   UNL     1       6.825   3.241  11.467  0.00  0.00    +0.000 HD
ATOM     13  H   UNL     1       6.678   5.493  14.725  0.00  0.00    +0.000 HD
ENDBRANCH   7  11
ENDBRANCH   1   7
BRANCH   5  14
ATOM     14  C   UNL     1       4.286   2.740  19.852  0.00  0.00    +0.000 C 
BRANCH  14  15
ATOM     15  N   UNL     1       3.023   2.145  19.400  0.00  0.00    +0.000 NA
ATOM     16  H   UNL     1       2.944   1.135  19.518  0.00  0.00    +0.000 HD
BRANCH  15  17
ATOM     17  S   UNL     1       1.607   2.911  19.889  0.00  0.00    +0.000 S 
ATOM     18  O   UNL     1       0.546   2.335  19.092  0.00  0.00    +0.000 OA
ATOM     19  O   UNL     1       1.568   2.886  21.336  0.00  0.00    +0.000 OA
BRANCH  17  20
ATOM     20  C   UNL     1       1.828   4.584  19.346  0.00  0.00    +0.000 A 
ATOM     21  C   UNL     1       2.066   5.579  20.296  0.00  0.00    +0.000 A 
ATOM     22  C   UNL     1       2.288   6.893  19.880  0.00  0.00    +0.000 A 
ATOM     23  C   UNL     1       2.279   7.220  18.518  0.00  0.00    +0.000 A 
ATOM     24  C   UNL     1       2.545   8.626  18.063  0.00  0.00    +0.000 C 
ATOM     25  C   UNL     1       2.041   6.209  17.573  0.00  0.00    +0.000 A 
ATOM     26  C   UNL     1       1.821   4.892  17.983  0.00  0.00    +0.000 A 
ENDBRANCH  17  20
ENDBRANCH  15  17
ENDBRANCH  14  15
ENDBRANCH   5  14
TORSDOF 6
ENDMDL
MODEL 5
REMARK VINA RESULT:      -7.1      1.216      1.851
REMARK  Name = 
REMARK  8 active torsions:
REMARK  status: ('A' for Active; 'I' for Inactive)
REMARK    1  A    between atoms: C_1  and  C_2
REMARK    2  A    between atoms: N_4  and  C_5
REMARK    3  A    between atoms: C_5  and  C_6
REMARK    4  A    between atoms: C_10  and  C_11
REMARK    5  A    between atoms: C_11  and  N_12
REMARK    6  A    between atoms: N_12  and  S_13
REMARK    7  A    between atoms: S_13  and  C_16
REMARK    8  A    between atoms: C_19  and  C_20
REMARK                            x       y       z     vdW  Elec       q    Type
REMARK                         _______ _______ _______ _____ _____    ______ ____
ROOT
ATOM      1  C   UNL     1       6.399   4.726  15.886  0.00  0.00    +0.000 A 
ATOM      2  C   UNL     1       6.669   6.036  16.299  0.00  0.00    +0.000 A 
ATOM      3  C   UNL     1       6.334   6.451  17.588  0.00  0.00    +0.000 A 
ATOM      4  C   UNL     1       5.723   5.563  18.474  0.00  0.00    +0.000 A 
ATOM      5  C   UNL     1       5.399   4.260  18.074  0.00  0.00    +0.000 A 
ATOM      6  C   UNL     1       5.735   3.858  16.770  0.00  0.00    +0.000 A 
ENDROOT
BRANCH   1   7
ATOM      7  C   UNL     1       6.810   4.250  14.512  0.00  0.00    +0.000 C 
BRANCH   7  11
ATOM      8  C   UNL     1       4.392   3.291  11.716  0.00  0.00    +0.000 C 
ATOM      9  C   UNL     1       5.681   3.405  12.492  0.00  0.00    +0.000 C 
ATOM     10  N   UNL     1       6.772   2.878  12.038  0.00  0.00    +0.000 NA
ATOM     11  N   UNL     1       5.647   4.090  13.673  0.00  0.00    +0.000 N 
ATOM     12  H   UNL     1       6.603   2.408  11.142  0.00  0.00    +0.000 HD
ATOM     13  H   UNL     1       4.750   4.279  14.106  0.00  0.00    +0.000 HD
ENDBRANCH   7  11
ENDBRANCH   1   7
BRANCH   5  14
ATOM     14  C   UNL     1       4.784   3.260  19.030  0.00  0.00    +0.000 C 
BRANCH  14  15
ATOM     15  N   UNL     1       3.571   2.624  18.504  0.00  0.00    +0.000 NA
ATOM     16  H   UNL     1       3.618   1.612  18.391  0.00  0.00    +0.000 HD
BRANCH  15  17
ATOM     17  S   UNL     1       2.112   3.075  19.208  0.00  0.00    +0.000 S 
ATOM     18  O   UNL     1       1.075   2.539  18.356  0.00  0.00    +0.000 OA
ATOM     19  O   UNL     1       2.181   2.749  20.617  0.00  0.00    +0.000 OA
BRANCH  17  20
ATOM     20  C   UNL     1       2.087   4.839  19.025  0.00  0.00    +0.000 A 
ATOM     21  C   UNL     1       2.102   5.640  20.168  0.00  0.00    +0.000 A 
ATOM     22  C   UNL     1       2.130   7.030  20.038  0.00  0.00    +0.000 A 
ATOM     23  C   UNL     1       2.148   7.626  18.771  0.00  0.00    +0.000 A 
ATOM     24  C   UNL     1       2.207   9.120  18.625  0.00  0.00    +0.000 C 
ATOM     25  C   UNL     1       2.136   6.809  17.630  0.00  0.00    +0.000 A 
ATOM     26  C   UNL     1       2.111   5.418  17.752  0.00  0.00    +0.000 A 
ENDBRANCH  17  20
ENDBRANCH  15  17
ENDBRANCH  14  15
ENDBRANCH   5  14
TORSDOF 6
ENDMDL
MODEL 6
REMARK VINA RESULT:      -7.1      3.810      6.796
REMARK  Name = 
REMARK  8 active torsions:
REMARK  status: ('A' for Active; 'I' for Inactive)
REMARK    1  A    between atoms: C_1  and  C_2
REMARK    2  A    between atoms: N_4  and  C_5
REMARK    3  A    between atoms: C_5  and  C_6
REMARK    4  A    between atoms: C_10  and  C_11
REMARK    5  A    between atoms: C_11  and  N_12
REMARK    6  A    between atoms: N_12  and  S_13
REMARK    7  A    between atoms: S_13  and  C_16
REMARK    8  A    between atoms: C_19  and  C_20
REMARK                            x       y       z     vdW  Elec       q    Type
REMARK                         _______ _______ _______ _____ _____    ______ ____
ROOT
ATOM      1  C   UNL     1       1.039   9.756  19.153  0.00  0.00    +0.000 A 
ATOM      2  C   UNL     1       1.797   9.681  17.977  0.00  0.00    +0.000 A 
ATOM      3  C   UNL     1       2.528   8.530  17.683  0.00  0.00    +0.000 A 
ATOM      4  C   UNL     1       2.511   7.445  18.561  0.00  0.00    +0.000 A 
ATOM      5  C   UNL     1       1.799   7.509  19.766  0.00  0.00    +0.000 A 
ATOM      6  C   UNL     1       1.072   8.677  20.053  0.00  0.00    +0.000 A 
ENDROOT
BRANCH   1   7
ATOM      7  C   UNL     1       0.198  10.975  19.452  0.00  0.00    +0.000 C 
BRANCH   7  11
ATOM      8  C   UNL     1      -3.059  11.377  17.499  0.00  0.00    +0.000 C 
ATOM      9  C   UNL     1      -1.668  11.673  18.003  0.00  0.00    +0.000 C 
ATOM     10  N   UNL     1      -1.027  12.718  17.589  0.00  0.00    +0.000 NA
ATOM     11  N   UNL     1      -1.130  10.808  18.912  0.00  0.00    +0.000 N 
ATOM     12  H   UNL     1      -1.589  13.245  16.913  0.00  0.00    +0.000 HD
ATOM     13  H   UNL     1      -1.552   9.894  19.030  0.00  0.00    +0.000 HD
ENDBRANCH   7  11
ENDBRANCH   1   7
BRANCH   5  14
ATOM     14  C   UNL     1       1.720   6.328  20.710  0.00  0.00    +0.000 C 
BRANCH  14  15
ATOM     15  N   UNL     1       2.909   5.469  20.665  0.00  0.00    +0.000 NA
ATOM     16  H   UNL     1       3.352   5.283  21.564  0.00  0.00    +0.000 HD
BRANCH  15  17
ATOM     17  S   UNL     1       2.791   4.057  19.759  0.00  0.00    +0.000 S 
ATOM     18  O   UNL     1       3.221   2.987  20.630  0.00  0.00    +0.000 OA
ATOM     19  O   UNL     1       1.488   4.045  19.127  0.00  0.00    +0.000 OA
BRANCH  17  20
ATOM     20  C   UNL     1       4.035   4.256  18.511  0.00  0.00    +0.000 A 
ATOM     21  C   UNL     1       5.317   4.660  18.890  0.00  0.00    +0.000 A 
ATOM     22  C   UNL     1       6.318   4.776  17.924  0.00  0.00    +0.000 A 
ATOM     23  C   UNL     1       6.050   4.485  16.581  0.00  0.00    +0.000 A 
ATOM     24  C   UNL     1       7.131   4.580  15.543  0.00  0.00    +0.000 C 
ATOM     25  C   UNL     1       4.758   4.076  16.214  0.00  0.00    +0.000 A 
ATOM     26  C   UNL     1       3.751   3.955  17.176  0.00  0.00    +0.000 A 
ENDBRANCH  17  20
ENDBRANCH  15  17
ENDBRANCH  14  15
ENDBRANCH   5  14
TORSDOF 6
ENDMDL
MODEL 7
REMARK VINA RESULT:      -7.1      3.639      6.816
REMARK  Name = 
REMARK  8 active torsions:
REMARK  status: ('A' for Active; 'I' for Inactive)
REMARK    1  A    between atoms: C_1  and  C_2
REMARK    2  A    between atoms: N_4  and  C_5
REMARK    3  A    between atoms: C_5  and  C_6
REMARK    4  A    between atoms: C_10  and  C_11
REMARK    5  A    between atoms: C_11  and  N_12
REMARK    6  A    between atoms: N_12  and  S_13
REMARK    7  A    between atoms: S_13  and  C_16
REMARK    8  A    between atoms: C_19  and  C_20
REMARK                            x       y       z     vdW  Elec       q    Type
REMARK                         _______ _______ _______ _____ _____    ______ ____
ROOT
ATOM      1  C   UNL     1       1.307   9.257  19.172  0.00  0.00    +0.000 A 
ATOM      2  C   UNL     1       2.025   9.292  17.970  0.00  0.00    +0.000 A 
ATOM      3  C   UNL     1       2.798   8.199  17.579  0.00  0.00    +0.000 A 
ATOM      4  C   UNL     1       2.861   7.061  18.384  0.00  0.00    +0.000 A 
ATOM      5  C   UNL     1       2.190   7.015  19.614  0.00  0.00    +0.000 A 
ATOM      6  C   UNL     1       1.422   8.127  19.999  0.00  0.00    +0.000 A 
ENDROOT
BRANCH   1   7
ATOM      7  C   UNL     1       0.423  10.413  19.577  0.00  0.00    +0.000 C 
BRANCH   7  11
ATOM      8  C   UNL     1      -1.014  10.571  23.111  0.00  0.00    +0.000 C 
ATOM      9  C   UNL     1      -0.264  10.990  21.870  0.00  0.00    +0.000 C 
ATOM     10  N   UNL     1       0.341  12.133  21.822  0.00  0.00    +0.000 NA
ATOM     11  N   UNL     1      -0.244  10.117  20.821  0.00  0.00    +0.000 N 
ATOM     12  H   UNL     1       0.216  12.648  22.700  0.00  0.00    +0.000 HD
ATOM     13  H   UNL     1      -0.912   9.355  20.804  0.00  0.00    +0.000 HD
ENDBRANCH   7  11
ENDBRANCH   1   7
BRANCH   5  14
ATOM     14  C   UNL     1       2.200   5.774  20.482  0.00  0.00    +0.000 C 
BRANCH  14  15
ATOM     15  N   UNL     1       1.570   4.614  19.841  0.00  0.00    +0.000 NA
ATOM     16  H   UNL     1       1.069   4.807  18.974  0.00  0.00    +0.000 HD
BRANCH  15  17
ATOM     17  S   UNL     1       2.513   3.230  19.685  0.00  0.00    +0.000 S 
ATOM     18  O   UNL     1       3.120   3.012  20.978  0.00  0.00    +0.000 OA
ATOM     19  O   UNL     1       1.704   2.214  19.044  0.00  0.00    +0.000 OA
BRANCH  17  20
ATOM     20  C   UNL     1       3.802   3.726  18.573  0.00  0.00    +0.000 A 
ATOM     21  C   UNL     1       5.038   4.111  19.096  0.00  0.00    +0.000 A 
ATOM     22  C   UNL     1       6.077   4.460  18.231  0.00  0.00    +0.000 A 
ATOM     23  C   UNL     1       5.891   4.422  16.843  0.00  0.00    +0.000 A 
ATOM     24  C   UNL     1       7.013   4.768  15.907  0.00  0.00    +0.000 C 
ATOM     25  C   UNL     1       4.644   4.030  16.330  0.00  0.00    +0.000 A 
ATOM     26  C   UNL     1       3.601   3.677  17.190  0.00  0.00    +0.000 A 
ENDBRANCH  17  20
ENDBRANCH  15  17
ENDBRANCH  14  15
ENDBRANCH   5  14
TORSDOF 6
ENDMDL
MODEL 8
REMARK VINA RESULT:      -7.1      7.019      9.304
REMARK  Name = 
REMARK  8 active torsions:
REMARK  status: ('A' for Active; 'I' for Inactive)
REMARK    1  A    between atoms: C_1  and  C_2
REMARK    2  A    between atoms: N_4  and  C_5
REMARK    3  A    between atoms: C_5  and  C_6
REMARK    4  A    between atoms: C_10  and  C_11
REMARK    5  A    between atoms: C_11  and  N_12
REMARK    6  A    between atoms: N_12  and  S_13
REMARK    7  A    between atoms: S_13  and  C_16
REMARK    8  A    between atoms: C_19  and  C_20
REMARK                            x       y       z     vdW  Elec       q    Type
REMARK                         _______ _______ _______ _____ _____    ______ ____
ROOT
ATOM      1  C   UNL     1      -3.291  10.422  15.495  0.00  0.00    +0.000 A 
ATOM      2  C   UNL     1      -4.352  11.227  15.926  0.00  0.00    +0.000 A 
ATOM      3  C   UNL     1      -4.430  11.637  17.257  0.00  0.00    +0.000 A 
ATOM      4  C   UNL     1      -3.450  11.244  18.170  0.00  0.00    +0.000 A 
ATOM      5  C   UNL     1      -2.402  10.401  17.778  0.00  0.00    +0.000 A 
ATOM      6  C   UNL     1      -2.340   9.989  16.435  0.00  0.00    +0.000 A 
ENDROOT
BRANCH   1   7
ATOM      7  C   UNL     1      -3.168  10.020  14.043  0.00  0.00    +0.000 C 
BRANCH   7  11
ATOM      8  C   UNL     1      -6.085   9.572  11.621  0.00  0.00    +0.000 C 
ATOM      9  C   UNL     1      -4.667   9.736  12.110  0.00  0.00    +0.000 C 
ATOM     10  N   UNL     1      -3.681   9.752  11.274  0.00  0.00    +0.000 NA
ATOM     11  N   UNL     1      -4.477   9.876  13.455  0.00  0.00    +0.000 N 
ATOM     12  H   UNL     1      -4.017   9.634  10.312  0.00  0.00    +0.000 HD
ATOM     13  H   UNL     1      -5.229   9.625  14.086  0.00  0.00    +0.000 HD
ENDBRANCH   7  11
ENDBRANCH   1   7
BRANCH   5  14
ATOM     14  C   UNL     1      -1.297  10.002  18.734  0.00  0.00    +0.000 C 
BRANCH  14  15
ATOM     15  N   UNL     1      -0.986  11.039  19.724  0.00  0.00    +0.000 NA
ATOM     16  H   UNL     1      -1.604  11.073  20.535  0.00  0.00    +0.000 HD
BRANCH  15  17
ATOM     17  S   UNL     1       0.621  11.177  20.199  0.00  0.00    +0.000 S 
ATOM     18  O   UNL     1       1.165  12.288  19.450  0.00  0.00    +0.000 OA
ATOM     19  O   UNL     1       0.659  11.147  21.646  0.00  0.00    +0.000 OA
BRANCH  17  20
ATOM     20  C   UNL     1       1.371   9.698  19.570  0.00  0.00    +0.000 A 
ATOM     21  C   UNL     1       1.479   8.585  20.406  0.00  0.00    +0.000 A 
ATOM     22  C   UNL     1       2.024   7.399  19.910  0.00  0.00    +0.000 A 
ATOM     23  C   UNL     1       2.459   7.316  18.581  0.00  0.00    +0.000 A 
ATOM     24  C   UNL     1       3.019   6.034  18.034  0.00  0.00    +0.000 C 
ATOM     25  C   UNL     1       2.341   8.441  17.751  0.00  0.00    +0.000 A 
ATOM     26  C   UNL     1       1.794   9.630  18.240  0.00  0.00    +0.000 A 
ENDBRANCH  17  20
ENDBRANCH  15  17
ENDBRANCH  14  15
ENDBRANCH   5  14
TORSDOF 6
ENDMDL
MODEL 9
REMARK VINA RESULT:      -7.0      6.703      9.151
REMARK  Name = 
REMARK  8 active torsions:
REMARK  status: ('A' for Active; 'I' for Inactive)
REMARK    1  A    between atoms: C_1  and  C_2
REMARK    2  A    between atoms: N_4  and  C_5
REMARK    3  A    between atoms: C_5  and  C_6
REMARK    4  A    between atoms: C_10  and  C_11
REMARK    5  A    between atoms: C_11  and  N_12
REMARK    6  A    between atoms: N_12  and  S_13
REMARK    7  A    between atoms: S_13  and  C_16
REMARK    8  A    between atoms: C_19  and  C_20
REMARK                            x       y       z     vdW  Elec       q    Type
REMARK                         _______ _______ _______ _____ _____    ______ ____
ROOT
ATOM      1  C   UNL     1      -3.158  10.679  16.335  0.00  0.00    +0.000 A 
ATOM      2  C   UNL     1      -4.521  10.959  16.493  0.00  0.00    +0.000 A 
ATOM      3  C   UNL     1      -4.978  11.605  17.642  0.00  0.00    +0.000 A 
ATOM      4  C   UNL     1      -4.079  11.974  18.644  0.00  0.00    +0.000 A 
ATOM      5  C   UNL     1      -2.717  11.665  18.534  0.00  0.00    +0.000 A 
ATOM      6  C   UNL     1      -2.272  11.007  17.374  0.00  0.00    +0.000 A 
ENDROOT
BRANCH   1   7
ATOM      7  C   UNL     1      -2.646  10.031  15.070  0.00  0.00    +0.000 C 
BRANCH   7  11
ATOM      8  C   UNL     1      -4.599   9.742  11.801  0.00  0.00    +0.000 C 
ATOM      9  C   UNL     1      -3.427   9.744  12.751  0.00  0.00    +0.000 C 
ATOM     10  N   UNL     1      -2.231   9.504  12.321  0.00  0.00    +0.000 NA
ATOM     11  N   UNL     1      -3.682  10.019  14.064  0.00  0.00    +0.000 N 
ATOM     12  H   UNL     1      -2.237   9.321  11.312  0.00  0.00    +0.000 HD
ATOM     13  H   UNL     1      -4.636   9.966  14.401  0.00  0.00    +0.000 HD
ENDBRANCH   7  11
ENDBRANCH   1   7
BRANCH   5  14
ATOM     14  C   UNL     1      -1.712  12.100  19.580  0.00  0.00    +0.000 C 
BRANCH  14  15
ATOM     15  N   UNL     1      -0.372  11.546  19.361  0.00  0.00    +0.000 NA
ATOM     16  H   UNL     1       0.313  12.192  18.968  0.00  0.00    +0.000 HD
BRANCH  15  17
ATOM     17  S   UNL     1       0.302  10.668  20.628  0.00  0.00    +0.000 S 
ATOM     18  O   UNL     1       1.316  11.519  21.208  0.00  0.00    +0.000 OA
ATOM     19  O   UNL     1      -0.785  10.132  21.421  0.00  0.00    +0.000 OA
BRANCH  17  20
ATOM     20  C   UNL     1       1.135   9.332  19.813  0.00  0.00    +0.000 A 
ATOM     21  C   UNL     1       1.467   9.462  18.463  0.00  0.00    +0.000 A 
ATOM     22  C   UNL     1       2.164   8.437  17.821  0.00  0.00    +0.000 A 
ATOM     23  C   UNL     1       2.538   7.283  18.520  0.00  0.00    +0.000 A 
ATOM     24  C   UNL     1       3.314   6.190  17.842  0.00  0.00    +0.000 C 
ATOM     25  C   UNL     1       2.202   7.166  19.878  0.00  0.00    +0.000 A 
ATOM     26  C   UNL     1       1.506   8.189  20.528  0.00  0.00    +0.000 A 
ENDBRANCH  17  20
ENDBRANCH  15  17
ENDBRANCH  14  15
ENDBRANCH   5  14
TORSDOF 6
ENDMDL
