MODEL 1
REMARK VINA RESULT:      -6.7      0.000      0.000
REMARK  Name = 
REMARK  6 active torsions:
REMARK  status: ('A' for Active; 'I' for Inactive)
REMARK    1  A    between atoms: C_1  and  C_2
REMARK    2  A    between atoms: C_2  and  C_3
REMARK    3  A    between atoms: C_2  and  C_4
REMARK    4  A    between atoms: C_4  and  N_5
REMARK    5  A    between atoms: C_6  and  S_7
REMARK    6  A    between atoms: C_10  and  C_11
REMARK                            x       y       z     vdW  Elec       q    Type
REMARK                         _______ _______ _______ _____ _____    ______ ____
ROOT
ATOM      1  N   UNL     1       3.354   4.147  20.044  0.00  0.00    +0.000 N 
ATOM      2  C   UNL     1       2.944   3.024  20.741  0.00  0.00    +0.000 A 
ATOM      3  N   UNL     1       3.818   2.063  20.599  0.00  0.00    +0.000 NA
ATOM      4  N   UNL     1       4.805   2.533  19.798  0.00  0.00    +0.000 NA
ATOM      5  C   UNL     1       4.563   3.794  19.461  0.00  0.00    +0.000 A 
ENDROOT
BRANCH   5   6
ATOM      6  C   UNL     1       5.585   4.484  18.565  0.00  0.00    +0.000 A 
ATOM      7  C   UNL     1       6.407   5.382  19.230  0.00  0.00    +0.000 A 
ATOM      8  S   UNL     1       7.528   6.168  18.239  0.00  0.00    +0.000 S 
ATOM      9  C   UNL     1       6.912   5.376  16.861  0.00  0.00    +0.000 A 
ATOM     10  C   UNL     1       5.899   4.473  17.149  0.00  0.00    +0.000 A 
ATOM     11  C   UNL     1       5.257   3.715  16.041  0.00  0.00    +0.000 C 
ATOM     12  C   UNL     1       5.728   4.023  14.613  0.00  0.00    +0.000 C 
ATOM     13  C   UNL     1       6.919   4.955  14.373  0.00  0.00    +0.000 C 
ATOM     14  C   UNL     1       7.477   5.749  15.540  0.00  0.00    +0.000 C 
ENDBRANCH   5   6
BRANCH   2  15
ATOM     15  S   UNL     1       1.508   2.823  21.686  0.00  0.00    +0.000 S 
ATOM     16  H   UNL     1       1.529   1.510  21.920  0.00  0.00    +0.000 HD
ENDBRANCH   2  15
BRANCH   1  17
ATOM     17  C   UNL     1       2.634   5.396  19.968  0.00  0.00    +0.000 C 
BRANCH  17  19
ATOM     18  C   UNL     1       3.036   6.732  17.815  0.00  0.00    +0.000 C 
ATOM     19  C   UNL     1       2.101   5.784  18.574  0.00  0.00    +0.000 C 
ATOM     20  C   UNL     1       1.900   4.520  17.730  0.00  0.00    +0.000 C 
ENDBRANCH  17  19
ENDBRANCH   1  17
TORSDOF 4
ENDMDL
MODEL 2
REMARK VINA RESULT:      -6.6      2.605      5.833
REMARK  Name = 
REMARK  6 active torsions:
REMARK  status: ('A' for Active; 'I' for Inactive)
REMARK    1  A    between atoms: C_1  and  C_2
REMARK    2  A    between atoms: C_2  and  C_3
REMARK    3  A    between atoms: C_2  and  C_4
REMARK    4  A    between atoms: C_4  and  N_5
REMARK    5  A    between atoms: C_6  and  S_7
REMARK    6  A    between atoms: C_10  and  C_11
REMARK                            x       y       z     vdW  Elec       q    Type
REMARK                         _______ _______ _______ _____ _____    ______ ____
ROOT
ATOM      1  N   UNL     1       5.366   5.682  16.702  0.00  0.00    +0.000 N 
ATOM      2  C   UNL     1       5.688   4.700  15.782  0.00  0.00    +0.000 A 
ATOM      3  N   UNL     1       4.921   3.656  15.951  0.00  0.00    +0.000 NA
ATOM      4  N   UNL     1       4.095   3.929  16.990  0.00  0.00    +0.000 NA
ATOM      5  C   UNL     1       4.327   5.152  17.454  0.00  0.00    +0.000 A 
ENDROOT
BRANCH   5   6
ATOM      6  C   UNL     1       3.473   5.627  18.623  0.00  0.00    +0.000 A 
ATOM      7  C   UNL     1       3.292   4.676  19.616  0.00  0.00    +0.000 A 
ATOM      8  S   UNL     1       2.327   5.189  20.906  0.00  0.00    +0.000 S 
ATOM      9  C   UNL     1       2.063   6.694  20.151  0.00  0.00    +0.000 A 
ATOM     10  C   UNL     1       2.748   6.839  18.953  0.00  0.00    +0.000 A 
ATOM     11  C   UNL     1       2.603   8.100  18.175  0.00  0.00    +0.000 C 
ATOM     12  C   UNL     1       1.646   9.163  18.731  0.00  0.00    +0.000 C 
ATOM     13  C   UNL     1       1.001   8.983  20.108  0.00  0.00    +0.000 C 
ATOM     14  C   UNL     1       1.133   7.644  20.811  0.00  0.00    +0.000 C 
ENDBRANCH   5   6
BRANCH   2  15
ATOM     15  S   UNL     1       6.908   4.750  14.554  0.00  0.00    +0.000 S 
ATOM     16  H   UNL     1       6.182   4.544  13.455  0.00  0.00    +0.000 HD
ENDBRANCH   2  15
BRANCH   1  17
ATOM     17  C   UNL     1       6.011   6.969  16.816  0.00  0.00    +0.000 C 
BRANCH  17  19
ATOM     18  C   UNL     1       7.932   8.354  17.803  0.00  0.00    +0.000 C 
ATOM     19  C   UNL     1       7.435   6.960  17.406  0.00  0.00    +0.000 C 
ATOM     20  C   UNL     1       7.473   6.059  18.646  0.00  0.00    +0.000 C 
ENDBRANCH  17  19
ENDBRANCH   1  17
TORSDOF 4
ENDMDL
MODEL 3
REMARK VINA RESULT:      -6.4      3.328      6.023
REMARK  Name = 
REMARK  6 active torsions:
REMARK  status: ('A' for Active; 'I' for Inactive)
REMARK    1  A    between atoms: C_1  and  C_2
REMARK    2  A    between atoms: C_2  and  C_3
REMARK    3  A    between atoms: C_2  and  C_4
REMARK    4  A    between atoms: C_4  and  N_5
REMARK    5  A    between atoms: C_6  and  S_7
REMARK    6  A    between atoms: C_10  and  C_11
REMARK                            x       y       z     vdW  Elec       q    Type
REMARK                         _______ _______ _______ _____ _____    ______ ____
ROOT
ATOM      1  N   UNL     1       3.152   5.093  19.773  0.00  0.00    +0.000 N 
ATOM      2  C   UNL     1       4.080   4.255  19.180  0.00  0.00    +0.000 A 
ATOM      3  N   UNL     1       4.584   4.822  18.117  0.00  0.00    +0.000 NA
ATOM      4  N   UNL     1       3.989   6.032  17.987  0.00  0.00    +0.000 NA
ATOM      5  C   UNL     1       3.132   6.233  18.982  0.00  0.00    +0.000 A 
ENDROOT
BRANCH   5   6
ATOM      6  C   UNL     1       2.378   7.558  18.996  0.00  0.00    +0.000 A 
ATOM      7  C   UNL     1       2.552   8.321  17.851  0.00  0.00    +0.000 A 
ATOM      8  S   UNL     1       1.737   9.802  17.869  0.00  0.00    +0.000 S 
ATOM      9  C   UNL     1       1.163   9.503  19.445  0.00  0.00    +0.000 A 
ATOM     10  C   UNL     1       1.534   8.261  19.943  0.00  0.00    +0.000 A 
ATOM     11  C   UNL     1       1.114   7.867  21.315  0.00  0.00    +0.000 C 
ATOM     12  C   UNL     1       0.324   8.899  22.133  0.00  0.00    +0.000 C 
ATOM     13  C   UNL     1      -0.139  10.208  21.489  0.00  0.00    +0.000 C 
ATOM     14  C   UNL     1       0.386  10.577  20.113  0.00  0.00    +0.000 C 
ENDBRANCH   5   6
BRANCH   2  15
ATOM     15  S   UNL     1       4.566   2.674  19.692  0.00  0.00    +0.000 S 
ATOM     16  H   UNL     1       3.440   2.217  20.241  0.00  0.00    +0.000 HD
ENDBRANCH   2  15
BRANCH   1  17
ATOM     17  C   UNL     1       2.390   4.793  20.962  0.00  0.00    +0.000 C 
BRANCH  17  19
ATOM     18  C   UNL     1       0.916   3.514  19.297  0.00  0.00    +0.000 C 
ATOM     19  C   UNL     1       1.161   3.883  20.764  0.00  0.00    +0.000 C 
ATOM     20  C   UNL     1       1.343   2.590  21.567  0.00  0.00    +0.000 C 
ENDBRANCH  17  19
ENDBRANCH   1  17
TORSDOF 4
ENDMDL
MODEL 4
REMARK VINA RESULT:      -6.4      2.696      5.836
REMARK  Name = 
REMARK  6 active torsions:
REMARK  status: ('A' for Active; 'I' for Inactive)
REMARK    1  A    between atoms: C_1  and  C_2
REMARK    2  A    between atoms: C_2  and  C_3
REMARK    3  A    between atoms: C_2  and  C_4
REMARK    4  A    between atoms: C_4  and  N_5
REMARK    5  A    between atoms: C_6  and  S_7
REMARK    6  A    between atoms: C_10  and  C_11
REMARK                            x       y       z     vdW  Elec       q    Type
REMARK                         _______ _______ _______ _____ _____    ______ ____
ROOT
ATOM      1  N   UNL     1       5.056   5.571  16.716  0.00  0.00    +0.000 N 
ATOM      2  C   UNL     1       5.247   4.442  15.940  0.00  0.00    +0.000 A 
ATOM      3  N   UNL     1       4.336   3.547  16.215  0.00  0.00    +0.000 NA
ATOM      4  N   UNL     1       3.542   4.066  17.182  0.00  0.00    +0.000 NA
ATOM      5  C   UNL     1       3.940   5.294  17.494  0.00  0.00    +0.000 A 
ENDROOT
BRANCH   5   6
ATOM      6  C   UNL     1       3.145   6.034  18.565  0.00  0.00    +0.000 A 
ATOM      7  C   UNL     1       2.865   5.272  19.690  0.00  0.00    +0.000 A 
ATOM      8  S   UNL     1       1.965   6.079  20.871  0.00  0.00    +0.000 S 
ATOM      9  C   UNL     1       1.864   7.468  19.891  0.00  0.00    +0.000 A 
ATOM     10  C   UNL     1       2.557   7.353  18.694  0.00  0.00    +0.000 A 
ATOM     11  C   UNL     1       2.549   8.486  17.731  0.00  0.00    +0.000 C 
ATOM     12  C   UNL     1       1.714   9.720  18.103  0.00  0.00    +0.000 C 
ATOM     13  C   UNL     1       1.057   9.825  19.482  0.00  0.00    +0.000 C 
ATOM     14  C   UNL     1       1.044   8.604  20.384  0.00  0.00    +0.000 C 
ENDBRANCH   5   6
BRANCH   2  15
ATOM     15  S   UNL     1       6.479   4.159  14.757  0.00  0.00    +0.000 S 
ATOM     16  H   UNL     1       5.753   4.038  13.645  0.00  0.00    +0.000 HD
ENDBRANCH   2  15
BRANCH   1  17
ATOM     17  C   UNL     1       5.876   6.758  16.687  0.00  0.00    +0.000 C 
BRANCH  17  19
ATOM     18  C   UNL     1       7.568   5.703  18.301  0.00  0.00    +0.000 C 
ATOM     19  C   UNL     1       6.802   6.968  17.902  0.00  0.00    +0.000 C 
ATOM     20  C   UNL     1       7.817   8.073  17.591  0.00  0.00    +0.000 C 
ENDBRANCH  17  19
ENDBRANCH   1  17
TORSDOF 4
ENDMDL
MODEL 5
REMARK VINA RESULT:      -6.3      3.918      6.786
REMARK  Name = 
REMARK  6 active torsions:
REMARK  status: ('A' for Active; 'I' for Inactive)
REMARK    1  A    between atoms: C_1  and  C_2
REMARK    2  A    between atoms: C_2  and  C_3
REMARK    3  A    between atoms: C_2  and  C_4
REMARK    4  A    between atoms: C_4  and  N_5
REMARK    5  A    between atoms: C_6  and  S_7
REMARK    6  A    between atoms: C_10  and  C_11
REMARK                            x       y       z     vdW  Elec       q    Type
REMARK                         _______ _______ _______ _____ _____    ______ ____
ROOT
ATOM      1  N   UNL     1       3.209   6.139  19.089  0.00  0.00    +0.000 N 
ATOM      2  C   UNL     1       4.264   5.749  18.282  0.00  0.00    +0.000 A 
ATOM      3  N   UNL     1       4.499   6.661  17.377  0.00  0.00    +0.000 NA
ATOM      4  N   UNL     1       3.597   7.655  17.564  0.00  0.00    +0.000 NA
ATOM      5  C   UNL     1       2.816   7.378  18.602  0.00  0.00    +0.000 A 
ENDROOT
BRANCH   5   6
ATOM      6  C   UNL     1       1.746   8.402  18.961  0.00  0.00    +0.000 A 
ATOM      7  C   UNL     1       1.253   9.112  17.876  0.00  0.00    +0.000 A 
ATOM      8  S   UNL     1       0.081  10.265  18.271  0.00  0.00    +0.000 S 
ATOM      9  C   UNL     1       0.234   9.899  19.928  0.00  0.00    +0.000 A 
ATOM     10  C   UNL     1       1.124   8.866  20.187  0.00  0.00    +0.000 A 
ATOM     11  C   UNL     1       1.368   8.445  21.593  0.00  0.00    +0.000 C 
ATOM     12  C   UNL     1       0.645   9.228  22.698  0.00  0.00    +0.000 C 
ATOM     13  C   UNL     1      -0.400  10.288  22.340  0.00  0.00    +0.000 C 
ATOM     14  C   UNL     1      -0.544  10.718  20.891  0.00  0.00    +0.000 C 
ENDBRANCH   5   6
BRANCH   2  15
ATOM     15  S   UNL     1       5.194   4.292  18.376  0.00  0.00    +0.000 S 
ATOM     16  H   UNL     1       6.414   4.774  18.616  0.00  0.00    +0.000 HD
ENDBRANCH   2  15
BRANCH   1  17
ATOM     17  C   UNL     1       2.669   5.378  20.189  0.00  0.00    +0.000 C 
BRANCH  17  19
ATOM     18  C   UNL     1       1.417   3.917  18.492  0.00  0.00    +0.000 C 
ATOM     19  C   UNL     1       1.399   4.558  19.883  0.00  0.00    +0.000 C 
ATOM     20  C   UNL     1       1.238   3.449  20.928  0.00  0.00    +0.000 C 
ENDBRANCH  17  19
ENDBRANCH   1  17
TORSDOF 4
ENDMDL
MODEL 6
REMARK VINA RESULT:      -6.2      2.493      5.768
REMARK  Name = 
REMARK  6 active torsions:
REMARK  status: ('A' for Active; 'I' for Inactive)
REMARK    1  A    between atoms: C_1  and  C_2
REMARK    2  A    between atoms: C_2  and  C_3
REMARK    3  A    between atoms: C_2  and  C_4
REMARK    4  A    between atoms: C_4  and  N_5
REMARK    5  A    between atoms: C_6  and  S_7
REMARK    6  A    between atoms: C_10  and  C_11
REMARK                            x       y       z     vdW  Elec       q    Type
REMARK                         _______ _______ _______ _____ _____    ______ ____
ROOT
ATOM      1  N   UNL     1       5.907   5.353  16.306  0.00  0.00    +0.000 N 
ATOM      2  C   UNL     1       6.410   4.705  15.192  0.00  0.00    +0.000 A 
ATOM      3  N   UNL     1       5.938   3.488  15.128  0.00  0.00    +0.000 NA
ATOM      4  N   UNL     1       5.131   3.314  16.203  0.00  0.00    +0.000 NA
ATOM      5  C   UNL     1       5.077   4.428  16.924  0.00  0.00    +0.000 A 
ENDROOT
BRANCH   5   6
ATOM      6  C   UNL     1       4.201   4.409  18.171  0.00  0.00    +0.000 A 
ATOM      7  C   UNL     1       4.097   3.164  18.773  0.00  0.00    +0.000 A 
ATOM      8  S   UNL     1       3.108   3.132  20.144  0.00  0.00    +0.000 S 
ATOM      9  C   UNL     1       2.730   4.782  19.948  0.00  0.00    +0.000 A 
ATOM     10  C   UNL     1       3.393   5.379  18.885  0.00  0.00    +0.000 A 
ATOM     11  C   UNL     1       3.151   6.817  18.587  0.00  0.00    +0.000 C 
ATOM     12  C   UNL     1       2.124   7.553  19.458  0.00  0.00    +0.000 C 
ATOM     13  C   UNL     1       1.505   6.865  20.677  0.00  0.00    +0.000 C 
ATOM     14  C   UNL     1       1.739   5.378  20.879  0.00  0.00    +0.000 C 
ENDBRANCH   5   6
BRANCH   2  15
ATOM     15  S   UNL     1       7.506   5.324  14.004  0.00  0.00    +0.000 S 
ATOM     16  H   UNL     1       8.393   4.333  13.922  0.00  0.00    +0.000 HD
ENDBRANCH   2  15
BRANCH   1  17
ATOM     17  C   UNL     1       6.217   6.707  16.700  0.00  0.00    +0.000 C 
BRANCH  17  19
ATOM     18  C   UNL     1       7.879   8.381  17.708  0.00  0.00    +0.000 C 
ATOM     19  C   UNL     1       7.575   6.912  17.400  0.00  0.00    +0.000 C 
ATOM     20  C   UNL     1       7.600   6.124  18.715  0.00  0.00    +0.000 C 
ENDBRANCH  17  19
ENDBRANCH   1  17
TORSDOF 4
ENDMDL
MODEL 7
REMARK VINA RESULT:      -6.2      2.711      5.926
REMARK  Name = 
REMARK  6 active torsions:
REMARK  status: ('A' for Active; 'I' for Inactive)
REMARK    1  A    between atoms: C_1  and  C_2
REMARK    2  A    between atoms: C_2  and  C_3
REMARK    3  A    between atoms: C_2  and  C_4
REMARK    4  A    between atoms: C_4  and  N_5
REMARK    5  A    between atoms: C_6  and  S_7
REMARK    6  A    between atoms: C_10  and  C_11
REMARK                            x       y       z     vdW  Elec       q    Type
REMARK                         _______ _______ _______ _____ _____    ______ ____
ROOT
ATOM      1  N   UNL     1       6.325   4.584  16.085  0.00  0.00    +0.000 N 
ATOM      2  C   UNL     1       6.453   4.642  14.708  0.00  0.00    +0.000 A 
ATOM      3  N   UNL     1       5.317   4.339  14.138  0.00  0.00    +0.000 NA
ATOM      4  N   UNL     1       4.432   4.066  15.126  0.00  0.00    +0.000 NA
ATOM      5  C   UNL     1       5.005   4.222  16.314  0.00  0.00    +0.000 A 
ENDROOT
BRANCH   5   6
ATOM      6  C   UNL     1       4.142   3.964  17.544  0.00  0.00    +0.000 A 
ATOM      7  C   UNL     1       3.927   2.620  17.813  0.00  0.00    +0.000 A 
ATOM      8  S   UNL     1       2.952   2.326  19.163  0.00  0.00    +0.000 S 
ATOM      9  C   UNL     1       2.731   3.998  19.405  0.00  0.00    +0.000 A 
ATOM     10  C   UNL     1       3.437   4.787  18.507  0.00  0.00    +0.000 A 
ATOM     11  C   UNL     1       3.330   6.268  18.592  0.00  0.00    +0.000 C 
ATOM     12  C   UNL     1       2.385   6.846  19.655  0.00  0.00    +0.000 C 
ATOM     13  C   UNL     1       1.715   5.926  20.679  0.00  0.00    +0.000 C 
ATOM     14  C   UNL     1       1.809   4.423  20.489  0.00  0.00    +0.000 C 
ENDBRANCH   5   6
BRANCH   2  15
ATOM     15  S   UNL     1       7.862   5.042  13.786  0.00  0.00    +0.000 S 
ATOM     16  H   UNL     1       8.084   6.297  14.176  0.00  0.00    +0.000 HD
ENDBRANCH   2  15
BRANCH   1  17
ATOM     17  C   UNL     1       7.377   4.850  17.037  0.00  0.00    +0.000 C 
BRANCH  17  19
ATOM     18  C   UNL     1       7.830   5.776  19.386  0.00  0.00    +0.000 C 
ATOM     19  C   UNL     1       7.097   5.973  18.055  0.00  0.00    +0.000 C 
ATOM     20  C   UNL     1       7.519   7.322  17.463  0.00  0.00    +0.000 C 
ENDBRANCH  17  19
ENDBRANCH   1  17
TORSDOF 4
ENDMDL
MODEL 8
REMARK VINA RESULT:      -6.1      2.747      5.799
REMARK  Name = 
REMARK  6 active torsions:
REMARK  status: ('A' for Active; 'I' for Inactive)
REMARK    1  A    between atoms: C_1  and  C_2
REMARK    2  A    between atoms: C_2  and  C_3
REMARK    3  A    between atoms: C_2  and  C_4
REMARK    4  A    between atoms: C_4  and  N_5
REMARK    5  A    between atoms: C_6  and  S_7
REMARK    6  A    between atoms: C_10  and  C_11
REMARK                            x       y       z     vdW  Elec       q    Type
REMARK                         _______ _______ _______ _____ _____    ______ ____
ROOT
ATOM      1  N   UNL     1       5.744   5.676  16.214  0.00  0.00    +0.000 N 
ATOM      2  C   UNL     1       6.253   4.899  15.189  0.00  0.00    +0.000 A 
ATOM      3  N   UNL     1       5.579   3.784  15.093  0.00  0.00    +0.000 NA
ATOM      4  N   UNL     1       4.629   3.805  16.058  0.00  0.00    +0.000 NA
ATOM      5  C   UNL     1       4.691   4.942  16.741  0.00  0.00    +0.000 A 
ENDROOT
BRANCH   5   6
ATOM      6  C   UNL     1       3.679   5.137  17.865  0.00  0.00    +0.000 A 
ATOM      7  C   UNL     1       3.537   6.454  18.277  0.00  0.00    +0.000 A 
ATOM      8  S   UNL     1       2.433   6.674  19.538  0.00  0.00    +0.000 S 
ATOM      9  C   UNL     1       2.146   4.996  19.622  0.00  0.00    +0.000 A 
ATOM     10  C   UNL     1       2.835   4.268  18.662  0.00  0.00    +0.000 A 
ATOM     11  C   UNL     1       2.690   2.788  18.622  0.00  0.00    +0.000 C 
ATOM     12  C   UNL     1       1.811   2.137  19.700  0.00  0.00    +0.000 C 
ATOM     13  C   UNL     1       0.999   3.004  20.665  0.00  0.00    +0.000 C 
ATOM     14  C   UNL     1       1.251   4.501  20.698  0.00  0.00    +0.000 C 
ENDBRANCH   5   6
BRANCH   2  15
ATOM     15  S   UNL     1       7.581   5.259  14.138  0.00  0.00    +0.000 S 
ATOM     16  H   UNL     1       8.425   4.271  14.433  0.00  0.00    +0.000 HD
ENDBRANCH   2  15
BRANCH   1  17
ATOM     17  C   UNL     1       6.245   6.970  16.614  0.00  0.00    +0.000 C 
BRANCH  17  19
ATOM     18  C   UNL     1       8.020   8.367  17.830  0.00  0.00    +0.000 C 
ATOM     19  C   UNL     1       7.578   6.968  17.387  0.00  0.00    +0.000 C 
ATOM     20  C   UNL     1       7.450   6.082  18.632  0.00  0.00    +0.000 C 
ENDBRANCH  17  19
ENDBRANCH   1  17
TORSDOF 4
ENDMDL
MODEL 9
REMARK VINA RESULT:      -6.1      0.637      1.113
REMARK  Name = 
REMARK  6 active torsions:
REMARK  status: ('A' for Active; 'I' for Inactive)
REMARK    1  A    between atoms: C_1  and  C_2
REMARK    2  A    between atoms: C_2  and  C_3
REMARK    3  A    between atoms: C_2  and  C_4
REMARK    4  A    between atoms: C_4  and  N_5
REMARK    5  A    between atoms: C_6  and  S_7
REMARK    6  A    between atoms: C_10  and  C_11
REMARK                            x       y       z     vdW  Elec       q    Type
REMARK                         _______ _______ _______ _____ _____    ______ ____
ROOT
ATOM      1  N   UNL     1       3.056   3.975  19.044  0.00  0.00    +0.000 N 
ATOM      2  C   UNL     1       2.692   3.105  20.057  0.00  0.00    +0.000 A 
ATOM      3  N   UNL     1       3.749   2.513  20.544  0.00  0.00    +0.000 NA
ATOM      4  N   UNL     1       4.820   2.971  19.852  0.00  0.00    +0.000 NA
ATOM      5  C   UNL     1       4.437   3.869  18.952  0.00  0.00    +0.000 A 
ENDROOT
BRANCH   5   6
ATOM      6  C   UNL     1       5.524   4.498  18.088  0.00  0.00    +0.000 A 
ATOM      7  C   UNL     1       6.348   5.383  18.769  0.00  0.00    +0.000 A 
ATOM      8  S   UNL     1       7.542   6.102  17.812  0.00  0.00    +0.000 S 
ATOM      9  C   UNL     1       6.960   5.297  16.427  0.00  0.00    +0.000 A 
ATOM     10  C   UNL     1       5.902   4.439  16.689  0.00  0.00    +0.000 A 
ATOM     11  C   UNL     1       5.283   3.676  15.571  0.00  0.00    +0.000 C 
ATOM     12  C   UNL     1       5.830   3.930  14.159  0.00  0.00    +0.000 C 
ATOM     13  C   UNL     1       7.065   4.812  13.953  0.00  0.00    +0.000 C 
ATOM     14  C   UNL     1       7.598   5.615  15.125  0.00  0.00    +0.000 C 
ENDBRANCH   5   6
BRANCH   2  15
ATOM     15  S   UNL     1       1.102   2.780  20.660  0.00  0.00    +0.000 S 
ATOM     16  H   UNL     1       0.344   3.253  19.670  0.00  0.00    +0.000 HD
ENDBRANCH   2  15
BRANCH   1  17
ATOM     17  C   UNL     1       2.150   4.793  18.275  0.00  0.00    +0.000 C 
BRANCH  17  19
ATOM     18  C   UNL     1       2.272   6.502  20.185  0.00  0.00    +0.000 C 
ATOM     19  C   UNL     1       2.072   6.278  18.682  0.00  0.00    +0.000 C 
ATOM     20  C   UNL     1       3.139   7.077  17.925  0.00  0.00    +0.000 C 
ENDBRANCH  17  19
ENDBRANCH   1  17
TORSDOF 4
ENDMDL
