MODEL 1
REMARK VINA RESULT:      -7.6      0.000      0.000
REMARK  Name = 
REMARK  4 active torsions:
REMARK  status: ('A' for Active; 'I' for Inactive)
REMARK    1  A    between atoms: C_1  and  C_2
REMARK    2  A    between atoms: C_5  and  N_6
REMARK    3  A    between atoms: C_11  and  C_12
REMARK    4  A    between atoms: C_19  and  C_20
REMARK                            x       y       z     vdW  Elec       q    Type
REMARK                         _______ _______ _______ _____ _____    ______ ____
ROOT
ATOM      1  N   UNL     1       3.096   5.547  17.683  0.00  0.00    +0.000 N 
ATOM      2  C   UNL     1       4.457   5.387  17.409  0.00  0.00    +0.000 A 
ATOM      3  N   UNL     1       5.351   5.512  18.401  0.00  0.00    +0.000 NA
ATOM      4  C   UNL     1       6.641   5.321  18.101  0.00  0.00    +0.000 A 
ATOM      5  C   UNL     1       7.080   5.009  16.841  0.00  0.00    +0.000 A 
ATOM      6  C   UNL     1       6.106   4.899  15.865  0.00  0.00    +0.000 A 
ATOM      7  N   UNL     1       4.793   5.082  16.148  0.00  0.00    +0.000 NA
ATOM      8  H   UNL     1       2.593   5.607  16.808  0.00  0.00    +0.000 HD
ENDROOT
BRANCH   1  13
ATOM      9  C   UNL     1       0.907   8.768  21.893  0.00  0.00    +0.000 C 
ATOM     10  C   UNL     1       1.432   7.923  20.772  0.00  0.00    +0.000 A 
ATOM     11  C   UNL     1       1.799   8.496  19.557  0.00  0.00    +0.000 A 
ATOM     12  C   UNL     1       2.336   7.704  18.542  0.00  0.00    +0.000 A 
ATOM     13  C   UNL     1       2.539   6.326  18.716  0.00  0.00    +0.000 A 
ATOM     14  C   UNL     1       2.115   5.730  19.918  0.00  0.00    +0.000 A 
ATOM     15  C   UNL     1       2.267   4.260  20.197  0.00  0.00    +0.000 C 
ATOM     16  C   UNL     1       1.579   6.540  20.939  0.00  0.00    +0.000 A 
ENDBRANCH   1  13
BRANCH   6  17
ATOM     17  C   UNL     1       6.424   4.559  14.468  0.00  0.00    +0.000 A 
ATOM     18  C   UNL     1       5.700   3.615  13.724  0.00  0.00    +0.000 A 
ATOM     19  C   UNL     1       6.031   3.348  12.395  0.00  0.00    +0.000 A 
ATOM     20  C   UNL     1       7.093   4.034  11.833  0.00  0.00    +0.000 A 
ATOM     21  N   UNL     1       7.828   4.942  12.502  0.00  0.00    +0.000 NA
ATOM     22  C   UNL     1       7.481   5.176  13.795  0.00  0.00    +0.000 A 
ENDBRANCH   6  17
TORSDOF 2
ENDMDL
MODEL 2
REMARK VINA RESULT:      -7.5      2.455      4.451
REMARK  Name = 
REMARK  4 active torsions:
REMARK  status: ('A' for Active; 'I' for Inactive)
REMARK    1  A    between atoms: C_1  and  C_2
REMARK    2  A    between atoms: C_5  and  N_6
REMARK    3  A    between atoms: C_11  and  C_12
REMARK    4  A    between atoms: C_19  and  C_20
REMARK                            x       y       z     vdW  Elec       q    Type
REMARK                         _______ _______ _______ _____ _____    ______ ____
ROOT
ATOM      1  N   UNL     1       1.754   8.228  19.501  0.00  0.00    +0.000 N 
ATOM      2  C   UNL     1       2.268   6.945  19.709  0.00  0.00    +0.000 A 
ATOM      3  N   UNL     1       1.637   6.107  20.546  0.00  0.00    +0.000 NA
ATOM      4  C   UNL     1       2.146   4.877  20.692  0.00  0.00    +0.000 A 
ATOM      5  C   UNL     1       3.268   4.447  20.034  0.00  0.00    +0.000 A 
ATOM      6  C   UNL     1       3.870   5.362  19.190  0.00  0.00    +0.000 A 
ATOM      7  N   UNL     1       3.369   6.610  19.021  0.00  0.00    +0.000 NA
ATOM      8  H   UNL     1       2.442   8.776  19.002  0.00  0.00    +0.000 HD
ENDROOT
BRANCH   1  13
ATOM      9  C   UNL     1      -1.438  11.187  23.235  0.00  0.00    +0.000 C 
ATOM     10  C   UNL     1      -0.565  10.447  22.267  0.00  0.00    +0.000 A 
ATOM     11  C   UNL     1       0.341   9.488  22.711  0.00  0.00    +0.000 A 
ATOM     12  C   UNL     1       1.108   8.770  21.794  0.00  0.00    +0.000 A 
ATOM     13  C   UNL     1       0.980   8.974  20.411  0.00  0.00    +0.000 A 
ATOM     14  C   UNL     1       0.110   9.983  19.958  0.00  0.00    +0.000 A 
ATOM     15  C   UNL     1      -0.085  10.296  18.499  0.00  0.00    +0.000 C 
ATOM     16  C   UNL     1      -0.664  10.698  20.893  0.00  0.00    +0.000 A 
ENDBRANCH   1  13
BRANCH   6  17
ATOM     17  C   UNL     1       5.076   5.039  18.409  0.00  0.00    +0.000 A 
ATOM     18  C   UNL     1       5.054   4.809  17.025  0.00  0.00    +0.000 A 
ATOM     19  C   UNL     1       6.232   4.529  16.329  0.00  0.00    +0.000 A 
ATOM     20  C   UNL     1       7.418   4.480  17.040  0.00  0.00    +0.000 A 
ATOM     21  N   UNL     1       7.495   4.684  18.370  0.00  0.00    +0.000 NA
ATOM     22  C   UNL     1       6.331   4.950  19.016  0.00  0.00    +0.000 A 
ENDBRANCH   6  17
TORSDOF 2
ENDMDL
MODEL 3
REMARK VINA RESULT:      -7.4      1.722      3.477
REMARK  Name = 
REMARK  4 active torsions:
REMARK  status: ('A' for Active; 'I' for Inactive)
REMARK    1  A    between atoms: C_1  and  C_2
REMARK    2  A    between atoms: C_5  and  N_6
REMARK    3  A    between atoms: C_11  and  C_12
REMARK    4  A    between atoms: C_19  and  C_20
REMARK                            x       y       z     vdW  Elec       q    Type
REMARK                         _______ _______ _______ _____ _____    ______ ____
ROOT
ATOM      1  N   UNL     1       2.036   8.231  18.631  0.00  0.00    +0.000 N 
ATOM      2  C   UNL     1       2.461   6.907  18.500  0.00  0.00    +0.000 A 
ATOM      3  N   UNL     1       1.795   5.932  19.137  0.00  0.00    +0.000 NA
ATOM      4  C   UNL     1       2.217   4.674  18.959  0.00  0.00    +0.000 A 
ATOM      5  C   UNL     1       3.286   4.347  18.167  0.00  0.00    +0.000 A 
ATOM      6  C   UNL     1       3.929   5.400  17.543  0.00  0.00    +0.000 A 
ATOM      7  N   UNL     1       3.515   6.681  17.702  0.00  0.00    +0.000 NA
ATOM      8  H   UNL     1       2.747   8.840  18.248  0.00  0.00    +0.000 HD
ENDROOT
BRANCH   1  13
ATOM      9  C   UNL     1      -0.809  10.382  23.123  0.00  0.00    +0.000 C 
ATOM     10  C   UNL     1      -0.030   9.856  21.955  0.00  0.00    +0.000 A 
ATOM     11  C   UNL     1       1.028   8.970  22.142  0.00  0.00    +0.000 A 
ATOM     12  C   UNL     1       1.709   8.449  21.043  0.00  0.00    +0.000 A 
ATOM     13  C   UNL     1       1.344   8.781  19.728  0.00  0.00    +0.000 A 
ATOM     14  C   UNL     1       0.316   9.721  19.533  0.00  0.00    +0.000 A 
ATOM     15  C   UNL     1      -0.138  10.161  18.167  0.00  0.00    +0.000 C 
ATOM     16  C   UNL     1      -0.369  10.237  20.651  0.00  0.00    +0.000 A 
ENDBRANCH   1  13
BRANCH   6  17
ATOM     17  C   UNL     1       5.086   5.202  16.653  0.00  0.00    +0.000 A 
ATOM     18  C   UNL     1       5.157   4.169  15.706  0.00  0.00    +0.000 A 
ATOM     19  C   UNL     1       6.270   4.041  14.872  0.00  0.00    +0.000 A 
ATOM     20  C   UNL     1       7.299   4.956  15.007  0.00  0.00    +0.000 A 
ATOM     21  N   UNL     1       7.287   5.960  15.904  0.00  0.00    +0.000 NA
ATOM     22  C   UNL     1       6.192   6.054  16.702  0.00  0.00    +0.000 A 
ENDBRANCH   6  17
TORSDOF 2
ENDMDL
MODEL 4
REMARK VINA RESULT:      -7.4      2.422      4.486
REMARK  Name = 
REMARK  4 active torsions:
REMARK  status: ('A' for Active; 'I' for Inactive)
REMARK    1  A    between atoms: C_1  and  C_2
REMARK    2  A    between atoms: C_5  and  N_6
REMARK    3  A    between atoms: C_11  and  C_12
REMARK    4  A    between atoms: C_19  and  C_20
REMARK                            x       y       z     vdW  Elec       q    Type
REMARK                         _______ _______ _______ _____ _____    ______ ____
ROOT
ATOM      1  N   UNL     1       1.781   8.260  19.485  0.00  0.00    +0.000 N 
ATOM      2  C   UNL     1       2.301   6.980  19.691  0.00  0.00    +0.000 A 
ATOM      3  N   UNL     1       1.669   6.133  20.517  0.00  0.00    +0.000 NA
ATOM      4  C   UNL     1       2.185   4.906  20.662  0.00  0.00    +0.000 A 
ATOM      5  C   UNL     1       3.315   4.487  20.012  0.00  0.00    +0.000 A 
ATOM      6  C   UNL     1       3.919   5.411  19.179  0.00  0.00    +0.000 A 
ATOM      7  N   UNL     1       3.411   6.656  19.011  0.00  0.00    +0.000 NA
ATOM      8  H   UNL     1       2.469   8.816  18.995  0.00  0.00    +0.000 HD
ENDROOT
BRANCH   1  13
ATOM      9  C   UNL     1      -1.463  11.176  23.209  0.00  0.00    +0.000 C 
ATOM     10  C   UNL     1      -0.578  10.449  22.242  0.00  0.00    +0.000 A 
ATOM     11  C   UNL     1       0.373   9.536  22.691  0.00  0.00    +0.000 A 
ATOM     12  C   UNL     1       1.153   8.829  21.777  0.00  0.00    +0.000 A 
ATOM     13  C   UNL     1       0.993   8.996  20.392  0.00  0.00    +0.000 A 
ATOM     14  C   UNL     1       0.077   9.959  19.932  0.00  0.00    +0.000 A 
ATOM     15  C   UNL     1      -0.155  10.231  18.471  0.00  0.00    +0.000 C 
ATOM     16  C   UNL     1      -0.710  10.665  20.865  0.00  0.00    +0.000 A 
ENDBRANCH   1  13
BRANCH   6  17
ATOM     17  C   UNL     1       5.135   5.101  18.406  0.00  0.00    +0.000 A 
ATOM     18  C   UNL     1       6.431   5.325  18.895  0.00  0.00    +0.000 A 
ATOM     19  C   UNL     1       7.550   4.991  18.128  0.00  0.00    +0.000 A 
ATOM     20  C   UNL     1       7.346   4.440  16.876  0.00  0.00    +0.000 A 
ATOM     21  N   UNL     1       6.125   4.213  16.354  0.00  0.00    +0.000 NA
ATOM     22  C   UNL     1       5.059   4.551  17.124  0.00  0.00    +0.000 A 
ENDBRANCH   6  17
TORSDOF 2
ENDMDL
MODEL 5
REMARK VINA RESULT:      -7.4      2.714      8.474
REMARK  Name = 
REMARK  4 active torsions:
REMARK  status: ('A' for Active; 'I' for Inactive)
REMARK    1  A    between atoms: C_1  and  C_2
REMARK    2  A    between atoms: C_5  and  N_6
REMARK    3  A    between atoms: C_11  and  C_12
REMARK    4  A    between atoms: C_19  and  C_20
REMARK                            x       y       z     vdW  Elec       q    Type
REMARK                         _______ _______ _______ _____ _____    ______ ____
ROOT
ATOM      1  N   UNL     1       2.678   6.465  18.512  0.00  0.00    +0.000 N 
ATOM      2  C   UNL     1       2.214   7.782  18.563  0.00  0.00    +0.000 A 
ATOM      3  N   UNL     1       2.391   8.588  17.505  0.00  0.00    +0.000 NA
ATOM      4  C   UNL     1       1.903   9.832  17.584  0.00  0.00    +0.000 A 
ATOM      5  C   UNL     1       1.243  10.309  18.685  0.00  0.00    +0.000 A 
ATOM      6  C   UNL     1       1.098   9.428  19.741  0.00  0.00    +0.000 A 
ATOM      7  N   UNL     1       1.577   8.162  19.680  0.00  0.00    +0.000 NA
ATOM      8  H   UNL     1       2.632   6.068  19.441  0.00  0.00    +0.000 HD
ENDROOT
BRANCH   1  13
ATOM      9  C   UNL     1       7.056   4.599  15.311  0.00  0.00    +0.000 C 
ATOM     10  C   UNL     1       5.938   5.074  16.190  0.00  0.00    +0.000 A 
ATOM     11  C   UNL     1       5.949   6.358  16.729  0.00  0.00    +0.000 A 
ATOM     12  C   UNL     1       4.877   6.803  17.501  0.00  0.00    +0.000 A 
ATOM     13  C   UNL     1       3.757   5.990  17.741  0.00  0.00    +0.000 A 
ATOM     14  C   UNL     1       3.766   4.672  17.251  0.00  0.00    +0.000 A 
ATOM     15  C   UNL     1       2.628   3.713  17.470  0.00  0.00    +0.000 C 
ATOM     16  C   UNL     1       4.852   4.234  16.467  0.00  0.00    +0.000 A 
ENDBRANCH   1  13
BRANCH   6  17
ATOM     17  C   UNL     1       0.401   9.795  20.986  0.00  0.00    +0.000 A 
ATOM     18  C   UNL     1       0.554   9.086  22.187  0.00  0.00    +0.000 A 
ATOM     19  C   UNL     1      -0.114   9.493  23.345  0.00  0.00    +0.000 A 
ATOM     20  C   UNL     1      -0.931  10.607  23.274  0.00  0.00    +0.000 A 
ATOM     21  N   UNL     1      -1.121  11.318  22.146  0.00  0.00    +0.000 NA
ATOM     22  C   UNL     1      -0.460  10.894  21.038  0.00  0.00    +0.000 A 
ENDBRANCH   6  17
TORSDOF 2
ENDMDL
MODEL 6
REMARK VINA RESULT:      -7.3      0.605      1.045
REMARK  Name = 
REMARK  4 active torsions:
REMARK  status: ('A' for Active; 'I' for Inactive)
REMARK    1  A    between atoms: C_1  and  C_2
REMARK    2  A    between atoms: C_5  and  N_6
REMARK    3  A    between atoms: C_11  and  C_12
REMARK    4  A    between atoms: C_19  and  C_20
REMARK                            x       y       z     vdW  Elec       q    Type
REMARK                         _______ _______ _______ _____ _____    ______ ____
ROOT
ATOM      1  N   UNL     1       3.136   5.600  17.663  0.00  0.00    +0.000 N 
ATOM      2  C   UNL     1       4.501   5.460  17.401  0.00  0.00    +0.000 A 
ATOM      3  N   UNL     1       5.384   5.588  18.403  0.00  0.00    +0.000 NA
ATOM      4  C   UNL     1       6.680   5.415  18.114  0.00  0.00    +0.000 A 
ATOM      5  C   UNL     1       7.134   5.119  16.856  0.00  0.00    +0.000 A 
ATOM      6  C   UNL     1       6.171   5.003  15.870  0.00  0.00    +0.000 A 
ATOM      7  N   UNL     1       4.853   5.168  16.141  0.00  0.00    +0.000 NA
ATOM      8  H   UNL     1       2.641   5.660  16.783  0.00  0.00    +0.000 HD
ENDROOT
BRANCH   1  13
ATOM      9  C   UNL     1       0.865   8.763  21.873  0.00  0.00    +0.000 C 
ATOM     10  C   UNL     1       1.411   7.932  20.752  0.00  0.00    +0.000 A 
ATOM     11  C   UNL     1       1.762   8.514  19.537  0.00  0.00    +0.000 A 
ATOM     12  C   UNL     1       2.319   7.737  18.522  0.00  0.00    +0.000 A 
ATOM     13  C   UNL     1       2.559   6.364  18.696  0.00  0.00    +0.000 A 
ATOM     14  C   UNL     1       2.152   5.758  19.899  0.00  0.00    +0.000 A 
ATOM     15  C   UNL     1       2.344   4.292  20.178  0.00  0.00    +0.000 C 
ATOM     16  C   UNL     1       1.596   6.554  20.920  0.00  0.00    +0.000 A 
ENDBRANCH   1  13
BRANCH   6  17
ATOM     17  C   UNL     1       6.507   4.678  14.473  0.00  0.00    +0.000 A 
ATOM     18  C   UNL     1       7.523   5.330  13.757  0.00  0.00    +0.000 A 
ATOM     19  C   UNL     1       7.815   4.966  12.441  0.00  0.00    +0.000 A 
ATOM     20  C   UNL     1       7.074   3.951  11.862  0.00  0.00    +0.000 A 
ATOM     21  N   UNL     1       6.083   3.298  12.499  0.00  0.00    +0.000 NA
ATOM     22  C   UNL     1       5.823   3.679  13.777  0.00  0.00    +0.000 A 
ENDBRANCH   6  17
TORSDOF 2
ENDMDL
MODEL 7
REMARK VINA RESULT:      -7.3      2.707      8.462
REMARK  Name = 
REMARK  4 active torsions:
REMARK  status: ('A' for Active; 'I' for Inactive)
REMARK    1  A    between atoms: C_1  and  C_2
REMARK    2  A    between atoms: C_5  and  N_6
REMARK    3  A    between atoms: C_11  and  C_12
REMARK    4  A    between atoms: C_19  and  C_20
REMARK                            x       y       z     vdW  Elec       q    Type
REMARK                         _______ _______ _______ _____ _____    ______ ____
ROOT
ATOM      1  N   UNL     1       2.721   6.403  18.635  0.00  0.00    +0.000 N 
ATOM      2  C   UNL     1       2.228   7.711  18.630  0.00  0.00    +0.000 A 
ATOM      3  N   UNL     1       2.336   8.456  17.520  0.00  0.00    +0.000 NA
ATOM      4  C   UNL     1       1.823   9.692  17.549  0.00  0.00    +0.000 A 
ATOM      5  C   UNL     1       1.203  10.220  18.651  0.00  0.00    +0.000 A 
ATOM      6  C   UNL     1       1.129   9.400  19.762  0.00  0.00    +0.000 A 
ATOM      7  N   UNL     1       1.635   8.143  19.753  0.00  0.00    +0.000 NA
ATOM      8  H   UNL     1       2.727   6.062  19.586  0.00  0.00    +0.000 HD
ENDROOT
BRANCH   1  13
ATOM      9  C   UNL     1       6.999   4.453  15.351  0.00  0.00    +0.000 C 
ATOM     10  C   UNL     1       5.905   4.944  16.251  0.00  0.00    +0.000 A 
ATOM     11  C   UNL     1       6.009   6.174  16.895  0.00  0.00    +0.000 A 
ATOM     12  C   UNL     1       4.960   6.641  17.687  0.00  0.00    +0.000 A 
ATOM     13  C   UNL     1       3.774   5.906  17.842  0.00  0.00    +0.000 A 
ATOM     14  C   UNL     1       3.686   4.636  17.243  0.00  0.00    +0.000 A 
ATOM     15  C   UNL     1       2.469   3.760  17.365  0.00  0.00    +0.000 C 
ATOM     16  C   UNL     1       4.749   4.177  16.441  0.00  0.00    +0.000 A 
ENDBRANCH   1  13
BRANCH   6  17
ATOM     17  C   UNL     1       0.483   9.826  21.015  0.00  0.00    +0.000 A 
ATOM     18  C   UNL     1      -0.528  10.799  21.065  0.00  0.00    +0.000 A 
ATOM     19  C   UNL     1      -1.123  11.148  22.279  0.00  0.00    +0.000 A 
ATOM     20  C   UNL     1      -0.686  10.516  23.429  0.00  0.00    +0.000 A 
ATOM     21  N   UNL     1       0.286   9.584  23.441  0.00  0.00    +0.000 NA
ATOM     22  C   UNL     1       0.845   9.269  22.244  0.00  0.00    +0.000 A 
ENDBRANCH   6  17
TORSDOF 2
ENDMDL
MODEL 8
REMARK VINA RESULT:      -7.2      0.348      1.515
REMARK  Name = 
REMARK  4 active torsions:
REMARK  status: ('A' for Active; 'I' for Inactive)
REMARK    1  A    between atoms: C_1  and  C_2
REMARK    2  A    between atoms: C_5  and  N_6
REMARK    3  A    between atoms: C_11  and  C_12
REMARK    4  A    between atoms: C_19  and  C_20
REMARK                            x       y       z     vdW  Elec       q    Type
REMARK                         _______ _______ _______ _____ _____    ______ ____
ROOT
ATOM      1  N   UNL     1       3.142   5.397  17.794  0.00  0.00    +0.000 N 
ATOM      2  C   UNL     1       4.501   5.367  17.471  0.00  0.00    +0.000 A 
ATOM      3  N   UNL     1       5.412   5.629  18.420  0.00  0.00    +0.000 NA
ATOM      4  C   UNL     1       6.704   5.558  18.075  0.00  0.00    +0.000 A 
ATOM      5  C   UNL     1       7.127   5.237  16.812  0.00  0.00    +0.000 A 
ATOM      6  C   UNL     1       6.135   4.982  15.882  0.00  0.00    +0.000 A 
ATOM      7  N   UNL     1       4.822   5.040  16.210  0.00  0.00    +0.000 NA
ATOM      8  H   UNL     1       2.604   5.364  16.938  0.00  0.00    +0.000 HD
ENDROOT
BRANCH   1  13
ATOM      9  C   UNL     1       0.629   8.453  21.945  0.00  0.00    +0.000 C 
ATOM     10  C   UNL     1       1.330   7.659  20.885  0.00  0.00    +0.000 A 
ATOM     11  C   UNL     1       1.521   6.287  21.030  0.00  0.00    +0.000 A 
ATOM     12  C   UNL     1       2.129   5.552  20.011  0.00  0.00    +0.000 A 
ATOM     13  C   UNL     1       2.544   6.160  18.815  0.00  0.00    +0.000 A 
ATOM     14  C   UNL     1       2.408   7.554  18.687  0.00  0.00    +0.000 A 
ATOM     15  C   UNL     1       2.840   8.305  17.457  0.00  0.00    +0.000 C 
ATOM     16  C   UNL     1       1.788   8.286  19.720  0.00  0.00    +0.000 A 
ENDBRANCH   1  13
BRANCH   6  17
ATOM     17  C   UNL     1       6.437   4.614  14.488  0.00  0.00    +0.000 A 
ATOM     18  C   UNL     1       5.685   3.676  13.764  0.00  0.00    +0.000 A 
ATOM     19  C   UNL     1       6.002   3.381  12.436  0.00  0.00    +0.000 A 
ATOM     20  C   UNL     1       7.076   4.033  11.858  0.00  0.00    +0.000 A 
ATOM     21  N   UNL     1       7.837   4.934  12.509  0.00  0.00    +0.000 NA
ATOM     22  C   UNL     1       7.504   5.196  13.800  0.00  0.00    +0.000 A 
ENDBRANCH   6  17
TORSDOF 2
ENDMDL
MODEL 9
REMARK VINA RESULT:      -7.1      3.613      7.842
REMARK  Name = 
REMARK  4 active torsions:
REMARK  status: ('A' for Active; 'I' for Inactive)
REMARK    1  A    between atoms: C_1  and  C_2
REMARK    2  A    between atoms: C_5  and  N_6
REMARK    3  A    between atoms: C_11  and  C_12
REMARK    4  A    between atoms: C_19  and  C_20
REMARK                            x       y       z     vdW  Elec       q    Type
REMARK                         _______ _______ _______ _____ _____    ______ ____
ROOT
ATOM      1  N   UNL     1       2.892   6.996  18.151  0.00  0.00    +0.000 N 
ATOM      2  C   UNL     1       2.163   7.737  19.085  0.00  0.00    +0.000 A 
ATOM      3  N   UNL     1       2.021   7.270  20.334  0.00  0.00    +0.000 NA
ATOM      4  C   UNL     1       1.342   8.027  21.205  0.00  0.00    +0.000 A 
ATOM      5  C   UNL     1       0.792   9.238  20.877  0.00  0.00    +0.000 A 
ATOM      6  C   UNL     1       0.973   9.658  19.572  0.00  0.00    +0.000 A 
ATOM      7  N   UNL     1       1.663   8.913  18.675  0.00  0.00    +0.000 NA
ATOM      8  H   UNL     1       2.741   7.393  17.233  0.00  0.00    +0.000 HD
ENDROOT
BRANCH   1  13
ATOM      9  C   UNL     1       3.544   1.299  18.210  0.00  0.00    +0.000 C 
ATOM     10  C   UNL     1       3.379   2.787  18.143  0.00  0.00    +0.000 A 
ATOM     11  C   UNL     1       2.135   3.357  17.884  0.00  0.00    +0.000 A 
ATOM     12  C   UNL     1       1.986   4.744  17.877  0.00  0.00    +0.000 A 
ATOM     13  C   UNL     1       3.067   5.599  18.148  0.00  0.00    +0.000 A 
ATOM     14  C   UNL     1       4.338   5.032  18.352  0.00  0.00    +0.000 A 
ATOM     15  C   UNL     1       5.564   5.859  18.628  0.00  0.00    +0.000 C 
ATOM     16  C   UNL     1       4.476   3.630  18.362  0.00  0.00    +0.000 A 
ENDBRANCH   1  13
BRANCH   6  17
ATOM     17  C   UNL     1       0.450  10.943  19.077  0.00  0.00    +0.000 A 
ATOM     18  C   UNL     1      -0.894  11.137  18.722  0.00  0.00    +0.000 A 
ATOM     19  C   UNL     1      -1.342  12.384  18.279  0.00  0.00    +0.000 A 
ATOM     20  C   UNL     1      -0.426  13.417  18.195  0.00  0.00    +0.000 A 
ATOM     21  N   UNL     1       0.876  13.284  18.513  0.00  0.00    +0.000 NA
ATOM     22  C   UNL     1       1.279  12.058  18.937  0.00  0.00    +0.000 A 
ENDBRANCH   6  17
TORSDOF 2
ENDMDL
