MODEL 1
REMARK VINA RESULT:      -7.6      0.000      0.000
REMARK  Name = 
REMARK  6 active torsions:
REMARK  status: ('A' for Active; 'I' for Inactive)
REMARK    1  A    between atoms: C_1  and  C_2
REMARK    2  A    between atoms: C_2  and  C_3
REMARK    3  A    between atoms: C_2  and  C_4
REMARK    4  A    between atoms: C_2  and  C_5
REMARK    5  A    between atoms: N_7  and  C_8
REMARK    6  A    between atoms: N_24  and  O_25
REMARK                            x       y       z     vdW  Elec       q    Type
REMARK                         _______ _______ _______ _____ _____    ______ ____
ROOT
ATOM      1  C   UNL     1       1.145   8.776  20.812  0.00  0.00    +0.000 A 
ATOM      2  C   UNL     1       0.131   8.245  21.626  0.00  0.00    +0.000 A 
ATOM      3  C   UNL     1      -0.679   9.086  22.409  0.00  0.00    +0.000 A 
ATOM      4  C   UNL     1      -0.520  10.451  22.254  0.00  0.00    +0.000 A 
ATOM      5  C   UNL     1       0.465  10.981  21.431  0.00  0.00    +0.000 A 
ATOM      6  C   UNL     1       1.406  10.142  20.868  0.00  0.00    +0.000 A 
ATOM      7  C   UNL     1       0.228  12.428  21.355  0.00  0.00    +0.000 C 
ATOM      8  C   UNL     1       0.656  13.345  20.467  0.00  0.00    +0.000 C 
ATOM      9  N   UNL     1       0.438  14.715  20.422  0.00  0.00    +0.000 N 
ATOM     10  C   UNL     1       1.333  15.299  19.524  0.00  0.00    +0.000 A 
ATOM     11  C   UNL     1       1.498  16.628  19.201  0.00  0.00    +0.000 A 
ATOM     12  C   UNL     1       2.424  16.972  18.200  0.00  0.00    +0.000 A 
ATOM     13  C   UNL     1       3.164  15.987  17.526  0.00  0.00    +0.000 A 
ATOM     14  C   UNL     1       2.974  14.646  17.821  0.00  0.00    +0.000 A 
ATOM     15  C   UNL     1       2.043  14.328  18.800  0.00  0.00    +0.000 A 
ATOM     16  C   UNL     1       1.555  13.023  19.266  0.00  0.00    +0.000 C 
ATOM     17  N   UNL     1       1.745  11.854  18.748  0.00  0.00    +0.000 NA
ATOM     18  C   UNL     1      -0.835  12.731  22.378  0.00  0.00    +0.000 C 
ATOM     19  O   UNL     1      -1.261  13.824  22.705  0.00  0.00    +0.000 OA
ATOM     20  N   UNL     1      -1.255  11.482  22.839  0.00  0.00    +0.000 N 
ATOM     21  H   UNL     1       0.060  15.194  21.231  0.00  0.00    +0.000 HD
ATOM     22  H   UNL     1      -2.005  11.361  23.502  0.00  0.00    +0.000 HD
ENDROOT
BRANCH   1  25
ATOM     23  C   UNL     1       2.203   6.709  19.917  0.00  0.00    +0.000 C 
ATOM     24  O   UNL     1       1.975   5.995  20.892  0.00  0.00    +0.000 OA
ATOM     25  N   UNL     1       1.881   8.053  19.846  0.00  0.00    +0.000 N 
ATOM     26  H   UNL     1       1.911   8.473  18.927  0.00  0.00    +0.000 HD
BRANCH  23  28
ATOM     27  C   UNL     1       4.193   5.433  19.072  0.00  0.00    +0.000 C 
ATOM     28  C   UNL     1       2.889   6.135  18.649  0.00  0.00    +0.000 C 
ATOM     29  C   UNL     1       3.228   7.288  17.695  0.00  0.00    +0.000 C 
ATOM     30  C   UNL     1       2.014   5.103  17.915  0.00  0.00    +0.000 C 
ENDBRANCH  23  28
ENDBRANCH   1  25
BRANCH  17  31
ATOM     31  O   UNL     1       2.653  11.819  17.698  0.00  0.00    +0.000 OA
ATOM     32  H   UNL     1       2.084  11.602  16.939  0.00  0.00    +0.000 HD
ENDBRANCH  17  31
TORSDOF 3
ENDMDL
MODEL 2
REMARK VINA RESULT:      -7.2      4.865      6.867
REMARK  Name = 
REMARK  6 active torsions:
REMARK  status: ('A' for Active; 'I' for Inactive)
REMARK    1  A    between atoms: C_1  and  C_2
REMARK    2  A    between atoms: C_2  and  C_3
REMARK    3  A    between atoms: C_2  and  C_4
REMARK    4  A    between atoms: C_2  and  C_5
REMARK    5  A    between atoms: N_7  and  C_8
REMARK    6  A    between atoms: N_24  and  O_25
REMARK                            x       y       z     vdW  Elec       q    Type
REMARK                         _______ _______ _______ _____ _____    ______ ____
ROOT
ATOM      1  C   UNL     1      -2.208  10.461  17.127  0.00  0.00    +0.000 A 
ATOM      2  C   UNL     1      -2.683  10.571  15.810  0.00  0.00    +0.000 A 
ATOM      3  C   UNL     1      -4.001  10.988  15.552  0.00  0.00    +0.000 A 
ATOM      4  C   UNL     1      -4.763  11.398  16.630  0.00  0.00    +0.000 A 
ATOM      5  C   UNL     1      -4.288  11.314  17.932  0.00  0.00    +0.000 A 
ATOM      6  C   UNL     1      -3.091  10.673  18.181  0.00  0.00    +0.000 A 
ATOM      7  C   UNL     1      -5.263  12.001  18.790  0.00  0.00    +0.000 C 
ATOM      8  C   UNL     1      -5.145  12.495  20.037  0.00  0.00    +0.000 C 
ATOM      9  N   UNL     1      -6.086  13.124  20.841  0.00  0.00    +0.000 N 
ATOM     10  C   UNL     1      -5.618  13.169  22.156  0.00  0.00    +0.000 A 
ATOM     11  C   UNL     1      -6.238  13.661  23.283  0.00  0.00    +0.000 A 
ATOM     12  C   UNL     1      -5.530  13.666  24.497  0.00  0.00    +0.000 A 
ATOM     13  C   UNL     1      -4.210  13.191  24.571  0.00  0.00    +0.000 A 
ATOM     14  C   UNL     1      -3.569  12.731  23.431  0.00  0.00    +0.000 A 
ATOM     15  C   UNL     1      -4.280  12.750  22.240  0.00  0.00    +0.000 A 
ATOM     16  C   UNL     1      -3.860  12.423  20.871  0.00  0.00    +0.000 C 
ATOM     17  N   UNL     1      -2.668  12.208  20.418  0.00  0.00    +0.000 NA
ATOM     18  C   UNL     1      -6.455  12.293  17.915  0.00  0.00    +0.000 C 
ATOM     19  O   UNL     1      -7.523  12.771  18.251  0.00  0.00    +0.000 OA
ATOM     20  N   UNL     1      -6.050  11.936  16.628  0.00  0.00    +0.000 N 
ATOM     21  H   UNL     1      -7.068  13.087  20.595  0.00  0.00    +0.000 HD
ATOM     22  H   UNL     1      -6.626  12.069  15.811  0.00  0.00    +0.000 HD
ENDROOT
BRANCH   1  25
ATOM     23  C   UNL     1      -0.051  11.147  18.165  0.00  0.00    +0.000 C 
ATOM     24  O   UNL     1      -0.380  12.302  18.431  0.00  0.00    +0.000 OA
ATOM     25  N   UNL     1      -0.859  10.245  17.495  0.00  0.00    +0.000 N 
ATOM     26  H   UNL     1      -0.575   9.275  17.532  0.00  0.00    +0.000 HD
BRANCH  23  28
ATOM     27  C   UNL     1       1.337  10.347  20.097  0.00  0.00    +0.000 C 
ATOM     28  C   UNL     1       1.339  10.595  18.576  0.00  0.00    +0.000 C 
ATOM     29  C   UNL     1       2.414  11.637  18.240  0.00  0.00    +0.000 C 
ATOM     30  C   UNL     1       1.680   9.265  17.883  0.00  0.00    +0.000 C 
ENDBRANCH  23  28
ENDBRANCH   1  25
BRANCH  17  31
ATOM     31  O   UNL     1      -1.678  12.133  21.388  0.00  0.00    +0.000 OA
ATOM     32  H   UNL     1      -1.560  11.173  21.491  0.00  0.00    +0.000 HD
ENDBRANCH  17  31
TORSDOF 3
ENDMDL
MODEL 3
REMARK VINA RESULT:      -7.2      5.010      7.118
REMARK  Name = 
REMARK  6 active torsions:
REMARK  status: ('A' for Active; 'I' for Inactive)
REMARK    1  A    between atoms: C_1  and  C_2
REMARK    2  A    between atoms: C_2  and  C_3
REMARK    3  A    between atoms: C_2  and  C_4
REMARK    4  A    between atoms: C_2  and  C_5
REMARK    5  A    between atoms: N_7  and  C_8
REMARK    6  A    between atoms: N_24  and  O_25
REMARK                            x       y       z     vdW  Elec       q    Type
REMARK                         _______ _______ _______ _____ _____    ______ ____
ROOT
ATOM      1  C   UNL     1      -2.267  11.077  17.728  0.00  0.00    +0.000 A 
ATOM      2  C   UNL     1      -2.732  10.789  16.435  0.00  0.00    +0.000 A 
ATOM      3  C   UNL     1      -4.081  10.986  16.094  0.00  0.00    +0.000 A 
ATOM      4  C   UNL     1      -4.898  11.583  17.036  0.00  0.00    +0.000 A 
ATOM      5  C   UNL     1      -4.435  11.892  18.309  0.00  0.00    +0.000 A 
ATOM      6  C   UNL     1      -3.183  11.464  18.702  0.00  0.00    +0.000 A 
ATOM      7  C   UNL     1      -5.488  12.674  18.970  0.00  0.00    +0.000 C 
ATOM      8  C   UNL     1      -5.440  13.486  20.043  0.00  0.00    +0.000 C 
ATOM      9  N   UNL     1      -6.452  14.203  20.666  0.00  0.00    +0.000 N 
ATOM     10  C   UNL     1      -6.010  14.639  21.917  0.00  0.00    +0.000 A 
ATOM     11  C   UNL     1      -6.694  15.342  22.884  0.00  0.00    +0.000 A 
ATOM     12  C   UNL     1      -6.008  15.737  24.046  0.00  0.00    +0.000 A 
ATOM     13  C   UNL     1      -4.647  15.437  24.224  0.00  0.00    +0.000 A 
ATOM     14  C   UNL     1      -3.946  14.763  23.237  0.00  0.00    +0.000 A 
ATOM     15  C   UNL     1      -4.638  14.397  22.091  0.00  0.00    +0.000 A 
ATOM     16  C   UNL     1      -4.167  13.768  20.850  0.00  0.00    +0.000 C 
ATOM     17  N   UNL     1      -2.952  13.566  20.453  0.00  0.00    +0.000 NA
ATOM     18  C   UNL     1      -6.691  12.603  18.065  0.00  0.00    +0.000 C 
ATOM     19  O   UNL     1      -7.807  13.040  18.278  0.00  0.00    +0.000 OA
ATOM     20  N   UNL     1      -6.233  11.966  16.911  0.00  0.00    +0.000 N 
ATOM     21  H   UNL     1      -7.421  14.002  20.451  0.00  0.00    +0.000 HD
ATOM     22  H   UNL     1      -6.807  11.820  16.095  0.00  0.00    +0.000 HD
ENDROOT
BRANCH   1  25
ATOM     23  C   UNL     1      -0.143  12.243  18.298  0.00  0.00    +0.000 C 
ATOM     24  O   UNL     1      -0.525  13.381  18.027  0.00  0.00    +0.000 OA
ATOM     25  N   UNL     1      -0.909  11.104  18.123  0.00  0.00    +0.000 N 
ATOM     26  H   UNL     1      -0.579  10.267  18.583  0.00  0.00    +0.000 HD
BRANCH  23  28
ATOM     27  C   UNL     1       1.770  10.620  18.387  0.00  0.00    +0.000 C 
ATOM     28  C   UNL     1       1.273  11.993  18.881  0.00  0.00    +0.000 C 
ATOM     29  C   UNL     1       1.191  11.974  20.413  0.00  0.00    +0.000 C 
ATOM     30  C   UNL     1       2.295  13.052  18.435  0.00  0.00    +0.000 C 
ENDBRANCH  23  28
ENDBRANCH   1  25
BRANCH  17  31
ATOM     31  O   UNL     1      -1.973  13.850  21.396  0.00  0.00    +0.000 OA
ATOM     32  H   UNL     1      -1.993  13.058  21.961  0.00  0.00    +0.000 HD
ENDBRANCH  17  31
TORSDOF 3
ENDMDL
MODEL 4
REMARK VINA RESULT:      -7.0      4.908      7.252
REMARK  Name = 
REMARK  6 active torsions:
REMARK  status: ('A' for Active; 'I' for Inactive)
REMARK    1  A    between atoms: C_1  and  C_2
REMARK    2  A    between atoms: C_2  and  C_3
REMARK    3  A    between atoms: C_2  and  C_4
REMARK    4  A    between atoms: C_2  and  C_5
REMARK    5  A    between atoms: N_7  and  C_8
REMARK    6  A    between atoms: N_24  and  O_25
REMARK                            x       y       z     vdW  Elec       q    Type
REMARK                         _______ _______ _______ _____ _____    ______ ____
ROOT
ATOM      1  C   UNL     1      -1.890  11.368  17.873  0.00  0.00    +0.000 A 
ATOM      2  C   UNL     1      -2.288  10.966  16.588  0.00  0.00    +0.000 A 
ATOM      3  C   UNL     1      -3.646  10.956  16.224  0.00  0.00    +0.000 A 
ATOM      4  C   UNL     1      -4.554  11.470  17.132  0.00  0.00    +0.000 A 
ATOM      5  C   UNL     1      -4.161  11.891  18.396  0.00  0.00    +0.000 A 
ATOM      6  C   UNL     1      -2.867  11.660  18.820  0.00  0.00    +0.000 A 
ATOM      7  C   UNL     1      -5.324  12.543  19.012  0.00  0.00    +0.000 C 
ATOM      8  C   UNL     1      -5.408  13.396  20.050  0.00  0.00    +0.000 C 
ATOM      9  N   UNL     1      -6.521  13.987  20.632  0.00  0.00    +0.000 N 
ATOM     10  C   UNL     1      -6.166  14.530  21.869  0.00  0.00    +0.000 A 
ATOM     11  C   UNL     1      -6.957  15.167  22.798  0.00  0.00    +0.000 A 
ATOM     12  C   UNL     1      -6.353  15.701  23.950  0.00  0.00    +0.000 A 
ATOM     13  C   UNL     1      -4.967  15.603  24.156  0.00  0.00    +0.000 A 
ATOM     14  C   UNL     1      -4.162  14.996  23.205  0.00  0.00    +0.000 A 
ATOM     15  C   UNL     1      -4.777  14.491  22.067  0.00  0.00    +0.000 A 
ATOM     16  C   UNL     1      -4.201  13.886  20.859  0.00  0.00    +0.000 C 
ATOM     17  N   UNL     1      -2.964  13.841  20.485  0.00  0.00    +0.000 NA
ATOM     18  C   UNL     1      -6.489  12.267  18.097  0.00  0.00    +0.000 C 
ATOM     19  O   UNL     1      -7.659  12.550  18.280  0.00  0.00    +0.000 OA
ATOM     20  N   UNL     1      -5.928  11.655  16.976  0.00  0.00    +0.000 N 
ATOM     21  H   UNL     1      -7.449  13.643  20.415  0.00  0.00    +0.000 HD
ATOM     22  H   UNL     1      -6.462  11.398  16.161  0.00  0.00    +0.000 HD
ENDROOT
BRANCH   1  25
ATOM     23  C   UNL     1       0.031  12.844  18.446  0.00  0.00    +0.000 C 
ATOM     24  O   UNL     1      -0.512  13.908  18.151  0.00  0.00    +0.000 OA
ATOM     25  N   UNL     1      -0.556  11.601  18.282  0.00  0.00    +0.000 N 
ATOM     26  H   UNL     1      -0.112  10.829  18.760  0.00  0.00    +0.000 HD
BRANCH  23  28
ATOM     27  C   UNL     1       2.008  14.255  19.079  0.00  0.00    +0.000 C 
ATOM     28  C   UNL     1       1.460  12.815  19.047  0.00  0.00    +0.000 C 
ATOM     29  C   UNL     1       2.365  11.955  18.154  0.00  0.00    +0.000 C 
ATOM     30  C   UNL     1       1.490  12.267  20.484  0.00  0.00    +0.000 C 
ENDBRANCH  23  28
ENDBRANCH   1  25
BRANCH  17  31
ATOM     31  O   UNL     1      -2.050  14.298  21.426  0.00  0.00    +0.000 OA
ATOM     32  H   UNL     1      -2.407  13.933  22.255  0.00  0.00    +0.000 HD
ENDBRANCH  17  31
TORSDOF 3
ENDMDL
MODEL 5
REMARK VINA RESULT:      -6.9      4.685      7.828
REMARK  Name = 
REMARK  6 active torsions:
REMARK  status: ('A' for Active; 'I' for Inactive)
REMARK    1  A    between atoms: C_1  and  C_2
REMARK    2  A    between atoms: C_2  and  C_3
REMARK    3  A    between atoms: C_2  and  C_4
REMARK    4  A    between atoms: C_2  and  C_5
REMARK    5  A    between atoms: N_7  and  C_8
REMARK    6  A    between atoms: N_24  and  O_25
REMARK                            x       y       z     vdW  Elec       q    Type
REMARK                         _______ _______ _______ _____ _____    ______ ____
ROOT
ATOM      1  C   UNL     1      -6.128  12.437  19.909  0.00  0.00    +0.000 A 
ATOM      2  C   UNL     1      -6.816  11.284  19.497  0.00  0.00    +0.000 A 
ATOM      3  C   UNL     1      -6.233  10.382  18.591  0.00  0.00    +0.000 A 
ATOM      4  C   UNL     1      -4.921  10.609  18.219  0.00  0.00    +0.000 A 
ATOM      5  C   UNL     1      -4.228  11.736  18.643  0.00  0.00    +0.000 A 
ATOM      6  C   UNL     1      -4.898  12.730  19.328  0.00  0.00    +0.000 A 
ATOM      7  C   UNL     1      -2.830  11.562  18.227  0.00  0.00    +0.000 C 
ATOM      8  C   UNL     1      -1.703  12.163  18.653  0.00  0.00    +0.000 C 
ATOM      9  N   UNL     1      -0.390  12.000  18.232  0.00  0.00    +0.000 N 
ATOM     10  C   UNL     1       0.388  13.052  18.720  0.00  0.00    +0.000 A 
ATOM     11  C   UNL     1       1.725  13.312  18.515  0.00  0.00    +0.000 A 
ATOM     12  C   UNL     1       2.312  14.403  19.179  0.00  0.00    +0.000 A 
ATOM     13  C   UNL     1       1.563  15.214  20.047  0.00  0.00    +0.000 A 
ATOM     14  C   UNL     1       0.227  14.933  20.286  0.00  0.00    +0.000 A 
ATOM     15  C   UNL     1      -0.329  13.841  19.634  0.00  0.00    +0.000 A 
ATOM     16  C   UNL     1      -1.664  13.239  19.744  0.00  0.00    +0.000 C 
ATOM     17  N   UNL     1      -2.590  13.475  20.616  0.00  0.00    +0.000 NA
ATOM     18  C   UNL     1      -2.810  10.352  17.329  0.00  0.00    +0.000 C 
ATOM     19  O   UNL     1      -1.866   9.913  16.696  0.00  0.00    +0.000 OA
ATOM     20  N   UNL     1      -4.097   9.820  17.415  0.00  0.00    +0.000 N 
ATOM     21  H   UNL     1      -0.193  11.507  17.370  0.00  0.00    +0.000 HD
ATOM     22  H   UNL     1      -4.374   8.967  16.957  0.00  0.00    +0.000 HD
ENDROOT
BRANCH   1  25
ATOM     23  C   UNL     1      -6.093  13.240  22.265  0.00  0.00    +0.000 C 
ATOM     24  O   UNL     1      -5.372  12.348  22.711  0.00  0.00    +0.000 OA
ATOM     25  N   UNL     1      -6.530  13.301  20.953  0.00  0.00    +0.000 N 
ATOM     26  H   UNL     1      -6.924  14.183  20.653  0.00  0.00    +0.000 HD
BRANCH  23  28
ATOM     27  C   UNL     1      -7.297  15.442  22.287  0.00  0.00    +0.000 C 
ATOM     28  C   UNL     1      -6.579  14.403  23.169  0.00  0.00    +0.000 C 
ATOM     29  C   UNL     1      -5.365  15.064  23.835  0.00  0.00    +0.000 C 
ATOM     30  C   UNL     1      -7.569  13.940  24.252  0.00  0.00    +0.000 C 
ENDBRANCH  23  28
ENDBRANCH   1  25
BRANCH  17  31
ATOM     31  O   UNL     1      -2.337  14.545  21.464  0.00  0.00    +0.000 OA
ATOM     32  H   UNL     1      -1.412  14.390  21.723  0.00  0.00    +0.000 HD
ENDBRANCH  17  31
TORSDOF 3
ENDMDL
MODEL 6
REMARK VINA RESULT:      -6.9      6.896      8.980
REMARK  Name = 
REMARK  6 active torsions:
REMARK  status: ('A' for Active; 'I' for Inactive)
REMARK    1  A    between atoms: C_1  and  C_2
REMARK    2  A    between atoms: C_2  and  C_3
REMARK    3  A    between atoms: C_2  and  C_4
REMARK    4  A    between atoms: C_2  and  C_5
REMARK    5  A    between atoms: N_7  and  C_8
REMARK    6  A    between atoms: N_24  and  O_25
REMARK                            x       y       z     vdW  Elec       q    Type
REMARK                         _______ _______ _______ _____ _____    ______ ____
ROOT
ATOM      1  C   UNL     1       5.725  14.893  23.263  0.00  0.00    +0.000 A 
ATOM      2  C   UNL     1       4.462  15.393  22.906  0.00  0.00    +0.000 A 
ATOM      3  C   UNL     1       4.184  15.767  21.580  0.00  0.00    +0.000 A 
ATOM      4  C   UNL     1       5.153  15.511  20.627  0.00  0.00    +0.000 A 
ATOM      5  C   UNL     1       6.395  14.994  20.973  0.00  0.00    +0.000 A 
ATOM      6  C   UNL     1       6.734  14.868  22.306  0.00  0.00    +0.000 A 
ATOM      7  C   UNL     1       7.091  14.673  19.720  0.00  0.00    +0.000 C 
ATOM      8  C   UNL     1       8.143  13.869  19.477  0.00  0.00    +0.000 C 
ATOM      9  N   UNL     1       8.800  13.594  18.286  0.00  0.00    +0.000 N 
ATOM     10  C   UNL     1      10.019  12.971  18.561  0.00  0.00    +0.000 A 
ATOM     11  C   UNL     1      11.004  12.563  17.689  0.00  0.00    +0.000 A 
ATOM     12  C   UNL     1      12.122  11.881  18.201  0.00  0.00    +0.000 A 
ATOM     13  C   UNL     1      12.239  11.605  19.573  0.00  0.00    +0.000 A 
ATOM     14  C   UNL     1      11.233  11.979  20.448  0.00  0.00    +0.000 A 
ATOM     15  C   UNL     1      10.130  12.635  19.920  0.00  0.00    +0.000 A 
ATOM     16  C   UNL     1       8.880  13.070  20.559  0.00  0.00    +0.000 C 
ATOM     17  N   UNL     1       8.429  12.784  21.736  0.00  0.00    +0.000 NA
ATOM     18  C   UNL     1       6.247  15.255  18.615  0.00  0.00    +0.000 C 
ATOM     19  O   UNL     1       6.507  15.295  17.426  0.00  0.00    +0.000 OA
ATOM     20  N   UNL     1       5.086  15.700  19.247  0.00  0.00    +0.000 N 
ATOM     21  H   UNL     1       8.637  14.175  17.472  0.00  0.00    +0.000 HD
ATOM     22  H   UNL     1       4.302  16.095  18.750  0.00  0.00    +0.000 HD
ENDROOT
BRANCH   1  25
ATOM     23  C   UNL     1       6.013  12.957  24.801  0.00  0.00    +0.000 C 
ATOM     24  O   UNL     1       5.583  12.097  24.033  0.00  0.00    +0.000 OA
ATOM     25  N   UNL     1       6.051  14.309  24.509  0.00  0.00    +0.000 N 
ATOM     26  H   UNL     1       6.623  14.882  25.115  0.00  0.00    +0.000 HD
BRANCH  23  28
ATOM     27  C   UNL     1       8.104  12.674  26.162  0.00  0.00    +0.000 C 
ATOM     28  C   UNL     1       6.566  12.576  26.199  0.00  0.00    +0.000 C 
ATOM     29  C   UNL     1       6.164  11.131  26.523  0.00  0.00    +0.000 C 
ATOM     30  C   UNL     1       6.062  13.510  27.312  0.00  0.00    +0.000 C 
ENDBRANCH  23  28
ENDBRANCH   1  25
BRANCH  17  31
ATOM     31  O   UNL     1       9.316  12.096  22.552  0.00  0.00    +0.000 OA
ATOM     32  H   UNL     1       9.907  12.804  22.860  0.00  0.00    +0.000 HD
ENDBRANCH  17  31
TORSDOF 3
ENDMDL
MODEL 7
REMARK VINA RESULT:      -6.8      4.610      7.187
REMARK  Name = 
REMARK  6 active torsions:
REMARK  status: ('A' for Active; 'I' for Inactive)
REMARK    1  A    between atoms: C_1  and  C_2
REMARK    2  A    between atoms: C_2  and  C_3
REMARK    3  A    between atoms: C_2  and  C_4
REMARK    4  A    between atoms: C_2  and  C_5
REMARK    5  A    between atoms: N_7  and  C_8
REMARK    6  A    between atoms: N_24  and  O_25
REMARK                            x       y       z     vdW  Elec       q    Type
REMARK                         _______ _______ _______ _____ _____    ______ ____
ROOT
ATOM      1  C   UNL     1      -0.636  15.245  22.546  0.00  0.00    +0.000 A 
ATOM      2  C   UNL     1      -0.468  15.419  23.929  0.00  0.00    +0.000 A 
ATOM      3  C   UNL     1      -1.521  15.155  24.822  0.00  0.00    +0.000 A 
ATOM      4  C   UNL     1      -2.678  14.607  24.300  0.00  0.00    +0.000 A 
ATOM      5  C   UNL     1      -2.840  14.411  22.935  0.00  0.00    +0.000 A 
ATOM      6  C   UNL     1      -1.895  14.906  22.059  0.00  0.00    +0.000 A 
ATOM      7  C   UNL     1      -4.083  13.649  22.754  0.00  0.00    +0.000 C 
ATOM      8  C   UNL     1      -4.528  12.924  21.711  0.00  0.00    +0.000 C 
ATOM      9  N   UNL     1      -5.717  12.226  21.552  0.00  0.00    +0.000 N 
ATOM     10  C   UNL     1      -5.888  11.902  20.204  0.00  0.00    +0.000 A 
ATOM     11  C   UNL     1      -6.938  11.254  19.592  0.00  0.00    +0.000 A 
ATOM     12  C   UNL     1      -6.851  10.970  18.218  0.00  0.00    +0.000 A 
ATOM     13  C   UNL     1      -5.713  11.325  17.474  0.00  0.00    +0.000 A 
ATOM     14  C   UNL     1      -4.639  11.943  18.093  0.00  0.00    +0.000 A 
ATOM     15  C   UNL     1      -4.739  12.198  19.454  0.00  0.00    +0.000 A 
ATOM     16  C   UNL     1      -3.756  12.745  20.399  0.00  0.00    +0.000 C 
ATOM     17  N   UNL     1      -2.491  12.953  20.223  0.00  0.00    +0.000 NA
ATOM     18  C   UNL     1      -4.750  13.613  24.105  0.00  0.00    +0.000 C 
ATOM     19  O   UNL     1      -5.846  13.160  24.380  0.00  0.00    +0.000 OA
ATOM     20  N   UNL     1      -3.818  14.174  24.980  0.00  0.00    +0.000 N 
ATOM     21  H   UNL     1      -6.484  12.379  22.194  0.00  0.00    +0.000 HD
ATOM     22  H   UNL     1      -3.962  14.239  25.975  0.00  0.00    +0.000 HD
ENDROOT
BRANCH   1  25
ATOM     23  C   UNL     1       1.124  14.203  21.127  0.00  0.00    +0.000 C 
ATOM     24  O   UNL     1       1.026  13.066  21.587  0.00  0.00    +0.000 OA
ATOM     25  N   UNL     1       0.399  15.290  21.583  0.00  0.00    +0.000 N 
ATOM     26  H   UNL     1       0.398  16.109  20.991  0.00  0.00    +0.000 HD
BRANCH  23  28
ATOM     27  C   UNL     1       3.532  14.567  20.519  0.00  0.00    +0.000 C 
ATOM     28  C   UNL     1       2.097  14.513  19.960  0.00  0.00    +0.000 C 
ATOM     29  C   UNL     1       1.743  15.880  19.358  0.00  0.00    +0.000 C 
ATOM     30  C   UNL     1       2.062  13.442  18.856  0.00  0.00    +0.000 C 
ENDBRANCH  23  28
ENDBRANCH   1  25
BRANCH  17  31
ATOM     31  O   UNL     1      -2.043  12.772  18.922  0.00  0.00    +0.000 OA
ATOM     32  H   UNL     1      -1.292  13.389  18.873  0.00  0.00    +0.000 HD
ENDBRANCH  17  31
TORSDOF 3
ENDMDL
MODEL 8
REMARK VINA RESULT:      -6.8      4.626      6.477
REMARK  Name = 
REMARK  6 active torsions:
REMARK  status: ('A' for Active; 'I' for Inactive)
REMARK    1  A    between atoms: C_1  and  C_2
REMARK    2  A    between atoms: C_2  and  C_3
REMARK    3  A    between atoms: C_2  and  C_4
REMARK    4  A    between atoms: C_2  and  C_5
REMARK    5  A    between atoms: N_7  and  C_8
REMARK    6  A    between atoms: N_24  and  O_25
REMARK                            x       y       z     vdW  Elec       q    Type
REMARK                         _______ _______ _______ _____ _____    ______ ____
ROOT
ATOM      1  C   UNL     1      -4.878  12.612  21.755  0.00  0.00    +0.000 A 
ATOM      2  C   UNL     1      -5.640  13.124  22.818  0.00  0.00    +0.000 A 
ATOM      3  C   UNL     1      -5.021  13.763  23.906  0.00  0.00    +0.000 A 
ATOM      4  C   UNL     1      -3.657  13.975  23.830  0.00  0.00    +0.000 A 
ATOM      5  C   UNL     1      -2.902  13.492  22.769  0.00  0.00    +0.000 A 
ATOM      6  C   UNL     1      -3.490  12.655  21.841  0.00  0.00    +0.000 A 
ATOM      7  C   UNL     1      -1.552  14.053  22.911  0.00  0.00    +0.000 C 
ATOM      8  C   UNL     1      -0.555  14.183  22.016  0.00  0.00    +0.000 C 
ATOM      9  N   UNL     1       0.725  14.699  22.175  0.00  0.00    +0.000 N 
ATOM     10  C   UNL     1       1.511  14.337  21.079  0.00  0.00    +0.000 A 
ATOM     11  C   UNL     1       2.842  14.594  20.841  0.00  0.00    +0.000 A 
ATOM     12  C   UNL     1       3.403  14.188  19.617  0.00  0.00    +0.000 A 
ATOM     13  C   UNL     1       2.626  13.541  18.642  0.00  0.00    +0.000 A 
ATOM     14  C   UNL     1       1.277  13.313  18.862  0.00  0.00    +0.000 A 
ATOM     15  C   UNL     1       0.740  13.738  20.069  0.00  0.00    +0.000 A 
ATOM     16  C   UNL     1      -0.646  13.727  20.555  0.00  0.00    +0.000 C 
ATOM     17  N   UNL     1      -1.733  13.482  19.899  0.00  0.00    +0.000 NA
ATOM     18  C   UNL     1      -1.518  14.718  24.262  0.00  0.00    +0.000 C 
ATOM     19  O   UNL     1      -0.559  15.228  24.814  0.00  0.00    +0.000 OA
ATOM     20  N   UNL     1      -2.833  14.660  24.724  0.00  0.00    +0.000 N 
ATOM     21  H   UNL     1       1.095  14.858  23.104  0.00  0.00    +0.000 HD
ATOM     22  H   UNL     1      -3.133  15.076  25.591  0.00  0.00    +0.000 HD
ENDROOT
BRANCH   1  25
ATOM     23  C   UNL     1      -5.770  12.910  19.451  0.00  0.00    +0.000 C 
ATOM     24  O   UNL     1      -5.791  14.140  19.461  0.00  0.00    +0.000 OA
ATOM     25  N   UNL     1      -5.399  12.130  20.532  0.00  0.00    +0.000 N 
ATOM     26  H   UNL     1      -5.208  11.157  20.338  0.00  0.00    +0.000 HD
BRANCH  23  28
ATOM     27  C   UNL     1      -7.193  12.945  17.383  0.00  0.00    +0.000 C 
ATOM     28  C   UNL     1      -6.169  12.115  18.180  0.00  0.00    +0.000 C 
ATOM     29  C   UNL     1      -6.817  10.789  18.599  0.00  0.00    +0.000 C 
ATOM     30  C   UNL     1      -4.971  11.831  17.257  0.00  0.00    +0.000 C 
ENDBRANCH  23  28
ENDBRANCH   1  25
BRANCH  17  31
ATOM     31  O   UNL     1      -1.545  13.026  18.602  0.00  0.00    +0.000 OA
ATOM     32  H   UNL     1      -2.044  13.677  18.078  0.00  0.00    +0.000 HD
ENDBRANCH  17  31
TORSDOF 3
ENDMDL
MODEL 9
REMARK VINA RESULT:      -6.6      5.438      7.576
REMARK  Name = 
REMARK  6 active torsions:
REMARK  status: ('A' for Active; 'I' for Inactive)
REMARK    1  A    between atoms: C_1  and  C_2
REMARK    2  A    between atoms: C_2  and  C_3
REMARK    3  A    between atoms: C_2  and  C_4
REMARK    4  A    between atoms: C_2  and  C_5
REMARK    5  A    between atoms: N_7  and  C_8
REMARK    6  A    between atoms: N_24  and  O_25
REMARK                            x       y       z     vdW  Elec       q    Type
REMARK                         _______ _______ _______ _____ _____    ______ ____
ROOT
ATOM      1  C   UNL     1      -2.645  10.536  17.824  0.00  0.00    +0.000 A 
ATOM      2  C   UNL     1      -2.746  10.661  16.429  0.00  0.00    +0.000 A 
ATOM      3  C   UNL     1      -3.914  11.167  15.833  0.00  0.00    +0.000 A 
ATOM      4  C   UNL     1      -4.902  11.647  16.672  0.00  0.00    +0.000 A 
ATOM      5  C   UNL     1      -4.796  11.548  18.054  0.00  0.00    +0.000 A 
ATOM      6  C   UNL     1      -3.758  10.825  18.607  0.00  0.00    +0.000 A 
ATOM      7  C   UNL     1      -5.911  12.314  18.626  0.00  0.00    +0.000 C 
ATOM      8  C   UNL     1      -6.091  12.816  19.862  0.00  0.00    +0.000 C 
ATOM      9  N   UNL     1      -7.163  13.523  20.391  0.00  0.00    +0.000 N 
ATOM     10  C   UNL     1      -7.057  13.553  21.783  0.00  0.00    +0.000 A 
ATOM     11  C   UNL     1      -7.915  14.104  22.709  0.00  0.00    +0.000 A 
ATOM     12  C   UNL     1      -7.555  14.076  24.068  0.00  0.00    +0.000 A 
ATOM     13  C   UNL     1      -6.340  13.508  24.486  0.00  0.00    +0.000 A 
ATOM     14  C   UNL     1      -5.457  12.986  23.554  0.00  0.00    +0.000 A 
ATOM     15  C   UNL     1      -5.824  13.040  22.217  0.00  0.00    +0.000 A 
ATOM     16  C   UNL     1      -5.082  12.664  21.007  0.00  0.00    +0.000 C 
ATOM     17  N   UNL     1      -3.831  12.357  20.884  0.00  0.00    +0.000 NA
ATOM     18  C   UNL     1      -6.803  12.679  17.468  0.00  0.00    +0.000 C 
ATOM     19  O   UNL     1      -7.885  13.237  17.512  0.00  0.00    +0.000 OA
ATOM     20  N   UNL     1      -6.100  12.276  16.332  0.00  0.00    +0.000 N 
ATOM     21  H   UNL     1      -8.044  13.553  19.894  0.00  0.00    +0.000 HD
ATOM     22  H   UNL     1      -6.427  12.438  15.393  0.00  0.00    +0.000 HD
ENDROOT
BRANCH   1  25
ATOM     23  C   UNL     1      -0.637  11.144  19.162  0.00  0.00    +0.000 C 
ATOM     24  O   UNL     1      -0.777  12.364  19.087  0.00  0.00    +0.000 OA
ATOM     25  N   UNL     1      -1.462  10.228  18.535  0.00  0.00    +0.000 N 
ATOM     26  H   UNL     1      -1.386   9.269  18.847  0.00  0.00    +0.000 HD
BRANCH  23  28
ATOM     27  C   UNL     1       1.285  11.658  20.694  0.00  0.00    +0.000 C 
ATOM     28  C   UNL     1       0.513  10.521  19.997  0.00  0.00    +0.000 C 
ATOM     29  C   UNL     1       1.467   9.770  19.059  0.00  0.00    +0.000 C 
ATOM     30  C   UNL     1       0.004   9.561  21.086  0.00  0.00    +0.000 C 
ENDBRANCH  23  28
ENDBRANCH   1  25
BRANCH  17  31
ATOM     31  O   UNL     1      -3.141  12.225  22.082  0.00  0.00    +0.000 OA
ATOM     32  H   UNL     1      -3.520  12.941  22.620  0.00  0.00    +0.000 HD
ENDBRANCH  17  31
TORSDOF 3
ENDMDL
