MODEL 1
REMARK VINA RESULT:      -6.3      0.000      0.000
REMARK  Name = 
REMARK  2 active torsions:
REMARK  status: ('A' for Active; 'I' for Inactive)
REMARK    1  A    between atoms: C_1  and  N_2
REMARK    2  A    between atoms: C_5  and  C_6
REMARK                            x       y       z     vdW  Elec       q    Type
REMARK                         _______ _______ _______ _____ _____    ______ ____
ROOT
ATOM      1  C   UNL     1       1.027   3.567  20.643  0.00  0.00    +0.000 C 
ATOM      2  N   UNL     1       2.240   3.946  19.916  0.00  0.00    +0.000 NA
ATOM      3  C   UNL     1       3.243   2.879  20.005  0.00  0.00    +0.000 C 
ATOM      4  C   UNL     1       4.538   3.278  19.298  0.00  0.00    +0.000 C 
ATOM      5  C   UNL     1       4.279   3.665  17.836  0.00  0.00    +0.000 C 
ATOM      6  C   UNL     1       3.166   4.719  17.758  0.00  0.00    +0.000 C 
ATOM      7  C   UNL     1       1.920   4.268  18.520  0.00  0.00    +0.000 C 
ENDROOT
BRANCH   5   8
ATOM      8  C   UNL     1       5.535   4.147  17.169  0.00  0.00    +0.000 A 
ATOM      9  C   UNL     1       5.676   4.516  15.895  0.00  0.00    +0.000 A 
ATOM     10  C   UNL     1       7.083   4.889  15.787  0.00  0.00    +0.000 A 
ATOM     11  O   UNL     1       7.624   5.295  14.777  0.00  0.00    +0.000 OA
ATOM     12  N   UNL     1       7.641   4.693  17.017  0.00  0.00    +0.000 N 
ATOM     13  O   UNL     1       6.688   4.223  17.942  0.00  0.00    +0.000 OA
ATOM     14  H   UNL     1       8.595   4.867  17.293  0.00  0.00    +0.000 HD
ENDBRANCH   5   8
TORSDOF 1
ENDMDL
MODEL 2
REMARK VINA RESULT:      -6.2      0.903      1.239
REMARK  Name = 
REMARK  2 active torsions:
REMARK  status: ('A' for Active; 'I' for Inactive)
REMARK    1  A    between atoms: C_1  and  N_2
REMARK    2  A    between atoms: C_5  and  C_6
REMARK                            x       y       z     vdW  Elec       q    Type
REMARK                         _______ _______ _______ _____ _____    ______ ____
ROOT
ATOM      1  C   UNL     1       1.142   3.041  20.384  0.00  0.00    +0.000 C 
ATOM      2  N   UNL     1       2.370   3.247  19.614  0.00  0.00    +0.000 NA
ATOM      3  C   UNL     1       2.088   3.178  18.175  0.00  0.00    +0.000 C 
ATOM      4  C   UNL     1       3.367   3.337  17.354  0.00  0.00    +0.000 C 
ATOM      5  C   UNL     1       4.096   4.640  17.705  0.00  0.00    +0.000 C 
ATOM      6  C   UNL     1       4.305   4.737  19.223  0.00  0.00    +0.000 C 
ATOM      7  C   UNL     1       2.992   4.527  19.978  0.00  0.00    +0.000 C 
ENDROOT
BRANCH   5   8
ATOM      8  C   UNL     1       5.400   4.751  16.967  0.00  0.00    +0.000 A 
ATOM      9  C   UNL     1       5.574   5.118  15.697  0.00  0.00    +0.000 A 
ATOM     10  C   UNL     1       7.019   5.054  15.504  0.00  0.00    +0.000 A 
ATOM     11  O   UNL     1       7.601   5.324  14.471  0.00  0.00    +0.000 OA
ATOM     12  N   UNL     1       7.560   4.643  16.688  0.00  0.00    +0.000 N 
ATOM     13  O   UNL     1       6.563   4.439  17.663  0.00  0.00    +0.000 OA
ATOM     14  H   UNL     1       8.535   4.507  16.903  0.00  0.00    +0.000 HD
ENDBRANCH   5   8
TORSDOF 1
ENDMDL
MODEL 3
REMARK VINA RESULT:      -6.1      1.099      1.183
REMARK  Name = 
REMARK  2 active torsions:
REMARK  status: ('A' for Active; 'I' for Inactive)
REMARK    1  A    between atoms: C_1  and  N_2
REMARK    2  A    between atoms: C_5  and  C_6
REMARK                            x       y       z     vdW  Elec       q    Type
REMARK                         _______ _______ _______ _____ _____    ______ ____
ROOT
ATOM      1  C   UNL     1       1.281   2.737  21.548  0.00  0.00    +0.000 C 
ATOM      2  N   UNL     1       2.515   3.035  20.818  0.00  0.00    +0.000 NA
ATOM      3  C   UNL     1       2.619   2.188  19.624  0.00  0.00    +0.000 C 
ATOM      4  C   UNL     1       3.927   2.446  18.877  0.00  0.00    +0.000 C 
ATOM      5  C   UNL     1       4.077   3.928  18.510  0.00  0.00    +0.000 C 
ATOM      6  C   UNL     1       3.878   4.804  19.755  0.00  0.00    +0.000 C 
ATOM      7  C   UNL     1       2.571   4.461  20.471  0.00  0.00    +0.000 C 
ENDROOT
BRANCH   5   8
ATOM      8  C   UNL     1       5.404   4.198  17.860  0.00  0.00    +0.000 A 
ATOM      9  C   UNL     1       5.624   4.495  16.579  0.00  0.00    +0.000 A 
ATOM     10  C   UNL     1       7.072   4.656  16.495  0.00  0.00    +0.000 A 
ATOM     11  O   UNL     1       7.688   4.942  15.486  0.00  0.00    +0.000 OA
ATOM     12  N   UNL     1       7.570   4.426  17.745  0.00  0.00    +0.000 N 
ATOM     13  O   UNL     1       6.539   4.134  18.660  0.00  0.00    +0.000 OA
ATOM     14  H   UNL     1       8.532   4.470  18.040  0.00  0.00    +0.000 HD
ENDBRANCH   5   8
TORSDOF 1
ENDMDL
MODEL 4
REMARK VINA RESULT:      -6.1      2.972      5.754
REMARK  Name = 
REMARK  2 active torsions:
REMARK  status: ('A' for Active; 'I' for Inactive)
REMARK    1  A    between atoms: C_1  and  N_2
REMARK    2  A    between atoms: C_5  and  C_6
REMARK                            x       y       z     vdW  Elec       q    Type
REMARK                         _______ _______ _______ _____ _____    ______ ____
ROOT
ATOM      1  C   UNL     1       6.946   5.169  16.243  0.00  0.00    +0.000 C 
ATOM      2  N   UNL     1       5.962   4.641  17.190  0.00  0.00    +0.000 NA
ATOM      3  C   UNL     1       5.568   5.679  18.150  0.00  0.00    +0.000 C 
ATOM      4  C   UNL     1       4.581   5.133  19.181  0.00  0.00    +0.000 C 
ATOM      5  C   UNL     1       3.349   4.521  18.503  0.00  0.00    +0.000 C 
ATOM      6  C   UNL     1       3.782   3.500  17.441  0.00  0.00    +0.000 C 
ATOM      7  C   UNL     1       4.798   4.105  16.472  0.00  0.00    +0.000 C 
ENDROOT
BRANCH   5   8
ATOM      8  C   UNL     1       2.424   3.900  19.511  0.00  0.00    +0.000 A 
ATOM      9  C   UNL     1       2.758   3.375  20.690  0.00  0.00    +0.000 A 
ATOM     10  C   UNL     1       1.489   2.923  21.250  0.00  0.00    +0.000 A 
ATOM     11  O   UNL     1       1.352   2.387  22.333  0.00  0.00    +0.000 OA
ATOM     12  N   UNL     1       0.522   3.220  20.334  0.00  0.00    +0.000 N 
ATOM     13  O   UNL     1       1.070   3.854  19.200  0.00  0.00    +0.000 OA
ATOM     14  H   UNL     1      -0.469   3.055  20.411  0.00  0.00    +0.000 HD
ENDBRANCH   5   8
TORSDOF 1
ENDMDL
MODEL 5
REMARK VINA RESULT:      -6.1      1.299      1.299
REMARK  Name = 
REMARK  2 active torsions:
REMARK  status: ('A' for Active; 'I' for Inactive)
REMARK    1  A    between atoms: C_1  and  N_2
REMARK    2  A    between atoms: C_5  and  C_6
REMARK                            x       y       z     vdW  Elec       q    Type
REMARK                         _______ _______ _______ _____ _____    ______ ____
ROOT
ATOM      1  C   UNL     1       1.631   3.080  21.181  0.00  0.00    +0.000 C 
ATOM      2  N   UNL     1       2.517   3.713  20.202  0.00  0.00    +0.000 NA
ATOM      3  C   UNL     1       3.730   2.908  20.016  0.00  0.00    +0.000 C 
ATOM      4  C   UNL     1       4.693   3.580  19.037  0.00  0.00    +0.000 C 
ATOM      5  C   UNL     1       4.013   3.862  17.691  0.00  0.00    +0.000 C 
ATOM      6  C   UNL     1       2.701   4.628  17.912  0.00  0.00    +0.000 C 
ATOM      7  C   UNL     1       1.809   3.919  18.932  0.00  0.00    +0.000 C 
ENDROOT
BRANCH   5   8
ATOM      8  C   UNL     1       4.929   4.606  16.763  0.00  0.00    +0.000 A 
ATOM      9  C   UNL     1       6.041   4.142  16.190  0.00  0.00    +0.000 A 
ATOM     10  C   UNL     1       6.529   5.267  15.399  0.00  0.00    +0.000 A 
ATOM     11  O   UNL     1       7.529   5.256  14.707  0.00  0.00    +0.000 OA
ATOM     12  N   UNL     1       5.654   6.297  15.592  0.00  0.00    +0.000 N 
ATOM     13  O   UNL     1       4.605   5.923  16.455  0.00  0.00    +0.000 OA
ATOM     14  H   UNL     1       5.688   7.217  15.181  0.00  0.00    +0.000 HD
ENDBRANCH   5   8
TORSDOF 1
ENDMDL
MODEL 6
REMARK VINA RESULT:      -6.0      1.794      2.331
REMARK  Name = 
REMARK  2 active torsions:
REMARK  status: ('A' for Active; 'I' for Inactive)
REMARK    1  A    between atoms: C_1  and  N_2
REMARK    2  A    between atoms: C_5  and  C_6
REMARK                            x       y       z     vdW  Elec       q    Type
REMARK                         _______ _______ _______ _____ _____    ______ ____
ROOT
ATOM      1  C   UNL     1       2.719   4.979  20.138  0.00  0.00    +0.000 C 
ATOM      2  N   UNL     1       3.456   5.084  18.877  0.00  0.00    +0.000 NA
ATOM      3  C   UNL     1       4.819   5.569  19.120  0.00  0.00    +0.000 C 
ATOM      4  C   UNL     1       5.587   5.736  17.810  0.00  0.00    +0.000 C 
ATOM      5  C   UNL     1       5.608   4.431  17.004  0.00  0.00    +0.000 C 
ATOM      6  C   UNL     1       4.180   3.893  16.835  0.00  0.00    +0.000 C 
ATOM      7  C   UNL     1       3.462   3.791  18.181  0.00  0.00    +0.000 C 
ENDROOT
BRANCH   5   8
ATOM      8  C   UNL     1       6.280   4.621  15.675  0.00  0.00    +0.000 A 
ATOM      9  C   UNL     1       6.028   3.958  14.546  0.00  0.00    +0.000 A 
ATOM     10  C   UNL     1       6.956   4.536  13.579  0.00  0.00    +0.000 A 
ATOM     11  O   UNL     1       7.043   4.210  12.411  0.00  0.00    +0.000 OA
ATOM     12  N   UNL     1       7.678   5.486  14.241  0.00  0.00    +0.000 N 
ATOM     13  O   UNL     1       7.279   5.584  15.589  0.00  0.00    +0.000 OA
ATOM     14  H   UNL     1       8.396   6.085  13.865  0.00  0.00    +0.000 HD
ENDBRANCH   5   8
TORSDOF 1
ENDMDL
MODEL 7
REMARK VINA RESULT:      -6.0      0.949      1.168
REMARK  Name = 
REMARK  2 active torsions:
REMARK  status: ('A' for Active; 'I' for Inactive)
REMARK    1  A    between atoms: C_1  and  N_2
REMARK    2  A    between atoms: C_5  and  C_6
REMARK                            x       y       z     vdW  Elec       q    Type
REMARK                         _______ _______ _______ _____ _____    ______ ____
ROOT
ATOM      1  C   UNL     1       0.664   3.117  19.901  0.00  0.00    +0.000 C 
ATOM      2  N   UNL     1       1.826   3.531  19.113  0.00  0.00    +0.000 NA
ATOM      3  C   UNL     1       2.670   4.446  19.890  0.00  0.00    +0.000 C 
ATOM      4  C   UNL     1       3.862   4.933  19.065  0.00  0.00    +0.000 C 
ATOM      5  C   UNL     1       4.684   3.756  18.525  0.00  0.00    +0.000 C 
ATOM      6  C   UNL     1       3.771   2.765  17.791  0.00  0.00    +0.000 C 
ATOM      7  C   UNL     1       2.582   2.356  18.661  0.00  0.00    +0.000 C 
ENDROOT
BRANCH   5   8
ATOM      8  C   UNL     1       5.799   4.231  17.638  0.00  0.00    +0.000 A 
ATOM      9  C   UNL     1       5.719   4.533  16.341  0.00  0.00    +0.000 A 
ATOM     10  C   UNL     1       7.077   4.933  15.986  0.00  0.00    +0.000 A 
ATOM     11  O   UNL     1       7.433   5.297  14.881  0.00  0.00    +0.000 OA
ATOM     12  N   UNL     1       7.833   4.819  17.116  0.00  0.00    +0.000 N 
ATOM     13  O   UNL     1       7.059   4.377  18.207  0.00  0.00    +0.000 OA
ATOM     14  H   UNL     1       8.813   5.030  17.223  0.00  0.00    +0.000 HD
ENDBRANCH   5   8
TORSDOF 1
ENDMDL
MODEL 8
REMARK VINA RESULT:      -6.0      1.787      2.258
REMARK  Name = 
REMARK  2 active torsions:
REMARK  status: ('A' for Active; 'I' for Inactive)
REMARK    1  A    between atoms: C_1  and  N_2
REMARK    2  A    between atoms: C_5  and  C_6
REMARK                            x       y       z     vdW  Elec       q    Type
REMARK                         _______ _______ _______ _____ _____    ______ ____
ROOT
ATOM      1  C   UNL     1       0.845   2.329  18.907  0.00  0.00    +0.000 C 
ATOM      2  N   UNL     1       2.111   2.993  18.589  0.00  0.00    +0.000 NA
ATOM      3  C   UNL     1       1.901   4.435  18.412  0.00  0.00    +0.000 C 
ATOM      4  C   UNL     1       3.201   5.139  18.026  0.00  0.00    +0.000 C 
ATOM      5  C   UNL     1       4.307   4.870  19.055  0.00  0.00    +0.000 C 
ATOM      6  C   UNL     1       4.453   3.360  19.292  0.00  0.00    +0.000 C 
ATOM      7  C   UNL     1       3.107   2.720  19.633  0.00  0.00    +0.000 C 
ENDROOT
BRANCH   5   8
ATOM      8  C   UNL     1       5.610   5.483  18.628  0.00  0.00    +0.000 A 
ATOM      9  C   UNL     1       5.833   6.215  17.536  0.00  0.00    +0.000 A 
ATOM     10  C   UNL     1       7.251   6.549  17.615  0.00  0.00    +0.000 A 
ATOM     11  O   UNL     1       7.859   7.222  16.804  0.00  0.00    +0.000 OA
ATOM     12  N   UNL     1       7.733   5.967  18.752  0.00  0.00    +0.000 N 
ATOM     13  O   UNL     1       6.718   5.275  19.442  0.00  0.00    +0.000 OA
ATOM     14  H   UNL     1       8.673   6.011  19.113  0.00  0.00    +0.000 HD
ENDBRANCH   5   8
TORSDOF 1
ENDMDL
MODEL 9
REMARK VINA RESULT:      -6.0      2.773      5.255
REMARK  Name = 
REMARK  2 active torsions:
REMARK  status: ('A' for Active; 'I' for Inactive)
REMARK    1  A    between atoms: C_1  and  N_2
REMARK    2  A    between atoms: C_5  and  C_6
REMARK                            x       y       z     vdW  Elec       q    Type
REMARK                         _______ _______ _______ _____ _____    ______ ____
ROOT
ATOM      1  C   UNL     1       7.399   7.328  17.493  0.00  0.00    +0.000 C 
ATOM      2  N   UNL     1       6.239   6.469  17.739  0.00  0.00    +0.000 NA
ATOM      3  C   UNL     1       5.789   5.848  16.488  0.00  0.00    +0.000 C 
ATOM      4  C   UNL     1       4.545   4.989  16.714  0.00  0.00    +0.000 C 
ATOM      5  C   UNL     1       4.789   3.928  17.795  0.00  0.00    +0.000 C 
ATOM      6  C   UNL     1       5.342   4.586  19.067  0.00  0.00    +0.000 C 
ATOM      7  C   UNL     1       6.558   5.459  18.756  0.00  0.00    +0.000 C 
ENDROOT
BRANCH   5   8
ATOM      8  C   UNL     1       3.539   3.147  18.084  0.00  0.00    +0.000 A 
ATOM      9  C   UNL     1       2.287   3.606  18.080  0.00  0.00    +0.000 A 
ATOM     10  C   UNL     1       1.480   2.439  18.423  0.00  0.00    +0.000 A 
ATOM     11  O   UNL     1       0.267   2.430  18.518  0.00  0.00    +0.000 OA
ATOM     12  N   UNL     1       2.344   1.399  18.606  0.00  0.00    +0.000 N 
ATOM     13  O   UNL     1       3.678   1.799  18.394  0.00  0.00    +0.000 OA
ATOM     14  H   UNL     1       2.116   0.445  18.838  0.00  0.00    +0.000 HD
ENDBRANCH   5   8
TORSDOF 1
ENDMDL
