MODEL 1
REMARK VINA RESULT:      -8.6      0.000      0.000
REMARK  Name = 
REMARK  8 active torsions:
REMARK  status: ('A' for Active; 'I' for Inactive)
REMARK    1  A    between atoms: C_1  and  N_2
REMARK    2  A    between atoms: N_2  and  C_3
REMARK    3  A    between atoms: C_4  and  C_6
REMARK    4  A    between atoms: C_10  and  C_11
REMARK    5  A    between atoms: C_14  and  C_15
REMARK    6  A    between atoms: C_16  and  C_17
REMARK    7  A    between atoms: C_17  and  O_18
REMARK    8  A    between atoms: C_25  and  C_27
REMARK                            x       y       z     vdW  Elec       q    Type
REMARK                         _______ _______ _______ _____ _____    ______ ____
ROOT
ATOM      1  C   UNL     1       0.106  11.397  20.525  0.00  0.00    +0.000 C 
ATOM      2  C   UNL     1      -0.142  12.140  19.160  0.00  0.00    +0.000 C 
ATOM      3  N   UNL     1       0.112  13.343  20.068  0.00  0.00    +0.000 NA
ATOM      4  C   UNL     1      -0.126  14.528  19.288  0.00  0.00    +0.000 C 
ATOM      5  C   UNL     1       0.038  15.825  20.049  0.00  0.00    +0.000 C 
ATOM      6  C   UNL     1      -0.920  15.854  21.214  0.00  0.00    +0.000 C 
ATOM      7  C   UNL     1      -0.295  15.196  22.439  0.00  0.00    +0.000 C 
ATOM      8  N   UNL     1      -1.122  14.112  22.938  0.00  0.00    +0.000 N 
ATOM      9  C   UNL     1      -2.346  14.318  23.588  0.00  0.00    +0.000 C 
ATOM     10  O   UNL     1      -3.051  13.357  23.938  0.00  0.00    +0.000 OA
ATOM     11  C   UNL     1      -0.676  12.758  22.575  0.00  0.00    +0.000 C 
ATOM     12  C   UNL     1      -0.820  12.538  21.058  0.00  0.00    +0.000 C 
ENDROOT
BRANCH   1  16
ATOM     13  C   UNL     1       1.624   7.356  20.100  0.00  0.00    +0.000 A 
ATOM     14  C   UNL     1       1.724   8.315  19.105  0.00  0.00    +0.000 A 
ATOM     15  C   UNL     1       1.111   9.532  19.286  0.00  0.00    +0.000 A 
ATOM     16  C   UNL     1       0.352   9.880  20.436  0.00  0.00    +0.000 A 
ATOM     17  C   UNL     1       0.154   8.874  21.372  0.00  0.00    +0.000 A 
ATOM     18  C   UNL     1       0.798   7.631  21.213  0.00  0.00    +0.000 A 
BRANCH  13  23
ATOM     19  C   UNL     1       4.435   4.957  19.403  0.00  0.00    +0.000 A 
ATOM     20  C   UNL     1       3.892   3.740  19.833  0.00  0.00    +0.000 A 
ATOM     21  C   UNL     1       2.575   3.681  20.280  0.00  0.00    +0.000 A 
ATOM     22  C   UNL     1       1.815   4.849  20.325  0.00  0.00    +0.000 A 
ATOM     23  C   UNL     1       2.347   6.087  19.901  0.00  0.00    +0.000 A 
ATOM     24  C   UNL     1       3.637   6.097  19.374  0.00  0.00    +0.000 A 
BRANCH  19  28
ATOM     25  C   UNL     1       7.572   4.567  17.301  0.00  0.00    +0.000 C 
ATOM     26  N   UNL     1       6.158   4.663  17.604  0.00  0.00    +0.000 N 
ATOM     27  C   UNL     1       5.230   4.477  16.492  0.00  0.00    +0.000 C 
ATOM     28  C   UNL     1       5.836   4.999  18.926  0.00  0.00    +0.000 C 
ATOM     29  O   UNL     1       6.697   5.326  19.742  0.00  0.00    +0.000 OA
ENDBRANCH  19  28
ENDBRANCH  13  23
ENDBRANCH   1  16
BRANCH   9  30
ATOM     30  C   UNL     1      -2.776  15.817  23.842  0.00  0.00    +0.000 C 
ATOM     31  C   UNL     1      -4.136  16.249  23.232  0.00  0.00    +0.000 C 
ATOM     32  C   UNL     1      -4.555  16.837  24.580  0.00  0.00    +0.000 C 
ATOM     33  C   UNL     1      -3.335  16.183  25.238  0.00  0.00    +0.000 C 
ENDBRANCH   9  30
BRANCH   2  34
ATOM     34  C   UNL     1      -1.522  12.124  18.430  0.00  0.00    +0.000 C 
BRANCH  34  35
ATOM     35  O   UNL     1      -1.362  12.188  17.020  0.00  0.00    +0.000 OA
ATOM     36  H   UNL     1      -0.676  12.847  16.828  0.00  0.00    +0.000 HD
ENDBRANCH  34  35
ENDBRANCH   2  34
TORSDOF 6
ENDMDL
MODEL 2
REMARK VINA RESULT:      -8.4      1.521      1.808
REMARK  Name = 
REMARK  8 active torsions:
REMARK  status: ('A' for Active; 'I' for Inactive)
REMARK    1  A    between atoms: C_1  and  N_2
REMARK    2  A    between atoms: N_2  and  C_3
REMARK    3  A    between atoms: C_4  and  C_6
REMARK    4  A    between atoms: C_10  and  C_11
REMARK    5  A    between atoms: C_14  and  C_15
REMARK    6  A    between atoms: C_16  and  C_17
REMARK    7  A    between atoms: C_17  and  O_18
REMARK    8  A    between atoms: C_25  and  C_27
REMARK                            x       y       z     vdW  Elec       q    Type
REMARK                         _______ _______ _______ _____ _____    ______ ____
ROOT
ATOM      1  C   UNL     1       0.532  10.966  19.665  0.00  0.00    +0.000 C 
ATOM      2  C   UNL     1      -0.022  11.679  18.376  0.00  0.00    +0.000 C 
ATOM      3  N   UNL     1       0.130  12.890  19.296  0.00  0.00    +0.000 NA
ATOM      4  C   UNL     1      -0.417  14.026  18.605  0.00  0.00    +0.000 C 
ATOM      5  C   UNL     1      -0.388  15.316  19.395  0.00  0.00    +0.000 C 
ATOM      6  C   UNL     1      -1.175  15.145  20.672  0.00  0.00    +0.000 C 
ATOM      7  C   UNL     1      -0.286  14.588  21.778  0.00  0.00    +0.000 C 
ATOM      8  N   UNL     1      -0.833  13.362  22.329  0.00  0.00    +0.000 N 
ATOM      9  C   UNL     1      -1.978  13.328  23.137  0.00  0.00    +0.000 C 
ATOM     10  O   UNL     1      -2.448  12.246  23.530  0.00  0.00    +0.000 OA
ATOM     11  C   UNL     1      -0.204  12.120  21.854  0.00  0.00    +0.000 C 
ATOM     12  C   UNL     1      -0.505  11.908  20.360  0.00  0.00    +0.000 C 
ENDROOT
BRANCH   1  16
ATOM     13  C   UNL     1       2.661   7.280  18.829  0.00  0.00    +0.000 A 
ATOM     14  C   UNL     1       2.396   8.241  17.867  0.00  0.00    +0.000 A 
ATOM     15  C   UNL     1       1.614   9.322  18.199  0.00  0.00    +0.000 A 
ATOM     16  C   UNL     1       1.032   9.522  19.480  0.00  0.00    +0.000 A 
ATOM     17  C   UNL     1       1.200   8.496  20.401  0.00  0.00    +0.000 A 
ATOM     18  C   UNL     1       2.020   7.396  20.083  0.00  0.00    +0.000 A 
BRANCH  13  23
ATOM     19  C   UNL     1       5.468   5.397  17.182  0.00  0.00    +0.000 A 
ATOM     20  C   UNL     1       5.512   4.220  17.939  0.00  0.00    +0.000 A 
ATOM     21  C   UNL     1       4.574   3.999  18.944  0.00  0.00    +0.000 A 
ATOM     22  C   UNL     1       3.611   4.973  19.207  0.00  0.00    +0.000 A 
ATOM     23  C   UNL     1       3.554   6.169  18.458  0.00  0.00    +0.000 A 
ATOM     24  C   UNL     1       4.449   6.320  17.401  0.00  0.00    +0.000 A 
BRANCH  19  28
ATOM     25  C   UNL     1       7.490   5.106  13.983  0.00  0.00    +0.000 C 
ATOM     26  N   UNL     1       6.361   4.959  14.879  0.00  0.00    +0.000 N 
ATOM     27  C   UNL     1       5.209   4.218  14.374  0.00  0.00    +0.000 C 
ATOM     28  C   UNL     1       6.471   5.612  16.115  0.00  0.00    +0.000 C 
ATOM     29  O   UNL     1       7.405   6.373  16.367  0.00  0.00    +0.000 OA
ENDBRANCH  19  28
ENDBRANCH  13  23
ENDBRANCH   1  16
BRANCH   9  30
ATOM     30  C   UNL     1      -2.632  14.717  23.507  0.00  0.00    +0.000 C 
ATOM     31  C   UNL     1      -4.069  14.958  22.975  0.00  0.00    +0.000 C 
ATOM     32  C   UNL     1      -4.518  15.384  24.373  0.00  0.00    +0.000 C 
ATOM     33  C   UNL     1      -3.181  14.898  24.943  0.00  0.00    +0.000 C 
ENDBRANCH   9  30
BRANCH   2  34
ATOM     34  C   UNL     1      -1.461  11.425  17.826  0.00  0.00    +0.000 C 
BRANCH  34  35
ATOM     35  O   UNL     1      -1.757  10.036  17.772  0.00  0.00    +0.000 OA
ATOM     36  H   UNL     1      -2.261   9.809  18.569  0.00  0.00    +0.000 HD
ENDBRANCH  34  35
ENDBRANCH   2  34
TORSDOF 6
ENDMDL
MODEL 3
REMARK VINA RESULT:      -8.3      1.726      2.425
REMARK  Name = 
REMARK  8 active torsions:
REMARK  status: ('A' for Active; 'I' for Inactive)
REMARK    1  A    between atoms: C_1  and  N_2
REMARK    2  A    between atoms: N_2  and  C_3
REMARK    3  A    between atoms: C_4  and  C_6
REMARK    4  A    between atoms: C_10  and  C_11
REMARK    5  A    between atoms: C_14  and  C_15
REMARK    6  A    between atoms: C_16  and  C_17
REMARK    7  A    between atoms: C_17  and  O_18
REMARK    8  A    between atoms: C_25  and  C_27
REMARK                            x       y       z     vdW  Elec       q    Type
REMARK                         _______ _______ _______ _____ _____    ______ ____
ROOT
ATOM      1  C   UNL     1       0.536  11.617  19.687  0.00  0.00    +0.000 C 
ATOM      2  C   UNL     1      -0.000  12.470  18.478  0.00  0.00    +0.000 C 
ATOM      3  N   UNL     1       0.214  13.582  19.503  0.00  0.00    +0.000 NA
ATOM      4  C   UNL     1      -0.290  14.800  18.928  0.00  0.00    +0.000 C 
ATOM      5  C   UNL     1      -0.197  16.008  19.834  0.00  0.00    +0.000 C 
ATOM      6  C   UNL     1      -0.977  15.753  21.101  0.00  0.00    +0.000 C 
ATOM      7  C   UNL     1      -0.102  15.058  22.138  0.00  0.00    +0.000 C 
ATOM      8  N   UNL     1      -0.696  13.810  22.581  0.00  0.00    +0.000 N 
ATOM      9  C   UNL     1      -1.833  13.750  23.398  0.00  0.00    +0.000 C 
ATOM     10  O   UNL     1      -2.345  12.657  23.696  0.00  0.00    +0.000 OA
ATOM     11  C   UNL     1      -0.127  12.593  21.984  0.00  0.00    +0.000 C 
ATOM     12  C   UNL     1      -0.451  12.533  20.481  0.00  0.00    +0.000 C 
ENDROOT
BRANCH   1  16
ATOM     13  C   UNL     1       2.478   7.941  18.450  0.00  0.00    +0.000 A 
ATOM     14  C   UNL     1       2.203   8.986  17.583  0.00  0.00    +0.000 A 
ATOM     15  C   UNL     1       1.481  10.062  18.040  0.00  0.00    +0.000 A 
ATOM     16  C   UNL     1       0.971  10.177  19.362  0.00  0.00    +0.000 A 
ATOM     17  C   UNL     1       1.145   9.075  20.188  0.00  0.00    +0.000 A 
ATOM     18  C   UNL     1       1.905   7.977  19.742  0.00  0.00    +0.000 A 
BRANCH  13  23
ATOM     19  C   UNL     1       3.572   4.450  17.582  0.00  0.00    +0.000 A 
ATOM     20  C   UNL     1       4.650   4.688  16.721  0.00  0.00    +0.000 A 
ATOM     21  C   UNL     1       5.076   5.991  16.479  0.00  0.00    +0.000 A 
ATOM     22  C   UNL     1       4.402   7.054  17.078  0.00  0.00    +0.000 A 
ATOM     23  C   UNL     1       3.309   6.834  17.946  0.00  0.00    +0.000 A 
ATOM     24  C   UNL     1       2.964   5.516  18.238  0.00  0.00    +0.000 A 
BRANCH  19  28
ATOM     25  C   UNL     1       3.353   0.884  18.866  0.00  0.00    +0.000 C 
ATOM     26  N   UNL     1       3.735   2.281  18.833  0.00  0.00    +0.000 N 
ATOM     27  C   UNL     1       4.636   2.744  19.884  0.00  0.00    +0.000 C 
ATOM     28  C   UNL     1       3.136   3.057  17.831  0.00  0.00    +0.000 C 
ATOM     29  O   UNL     1       2.239   2.613  17.114  0.00  0.00    +0.000 OA
ENDBRANCH  19  28
ENDBRANCH  13  23
ENDBRANCH   1  16
BRANCH   9  30
ATOM     30  C   UNL     1      -2.422  15.125  23.905  0.00  0.00    +0.000 C 
ATOM     31  C   UNL     1      -3.794  15.540  23.311  0.00  0.00    +0.000 C 
ATOM     32  C   UNL     1      -4.323  15.815  24.718  0.00  0.00    +0.000 C 
ATOM     33  C   UNL     1      -3.070  15.160  25.310  0.00  0.00    +0.000 C 
ENDBRANCH   9  30
BRANCH   2  34
ATOM     34  C   UNL     1      -1.454  12.329  17.926  0.00  0.00    +0.000 C 
BRANCH  34  35
ATOM     35  O   UNL     1      -1.567  11.224  17.041  0.00  0.00    +0.000 OA
ATOM     36  H   UNL     1      -2.456  11.245  16.652  0.00  0.00    +0.000 HD
ENDBRANCH  34  35
ENDBRANCH   2  34
TORSDOF 6
ENDMDL
MODEL 4
REMARK VINA RESULT:      -8.2      1.221      1.380
REMARK  Name = 
REMARK  8 active torsions:
REMARK  status: ('A' for Active; 'I' for Inactive)
REMARK    1  A    between atoms: C_1  and  N_2
REMARK    2  A    between atoms: N_2  and  C_3
REMARK    3  A    between atoms: C_4  and  C_6
REMARK    4  A    between atoms: C_10  and  C_11
REMARK    5  A    between atoms: C_14  and  C_15
REMARK    6  A    between atoms: C_16  and  C_17
REMARK    7  A    between atoms: C_17  and  O_18
REMARK    8  A    between atoms: C_25  and  C_27
REMARK                            x       y       z     vdW  Elec       q    Type
REMARK                         _______ _______ _______ _____ _____    ______ ____
ROOT
ATOM      1  C   UNL     1       0.467  10.994  20.178  0.00  0.00    +0.000 C 
ATOM      2  C   UNL     1       0.151  11.759  18.839  0.00  0.00    +0.000 C 
ATOM      3  N   UNL     1       0.369  12.950  19.772  0.00  0.00    +0.000 NA
ATOM      4  C   UNL     1       0.054  14.141  19.029  0.00  0.00    +0.000 C 
ATOM      5  C   UNL     1       0.174  15.424  19.820  0.00  0.00    +0.000 C 
ATOM      6  C   UNL     1      -0.757  15.377  21.007  0.00  0.00    +0.000 C 
ATOM      7  C   UNL     1      -0.072  14.720  22.199  0.00  0.00    +0.000 C 
ATOM      8  N   UNL     1      -0.833  13.585  22.688  0.00  0.00    +0.000 N 
ATOM      9  C   UNL     1      -2.050  13.715  23.371  0.00  0.00    +0.000 C 
ATOM     10  O   UNL     1      -2.700  12.711  23.710  0.00  0.00    +0.000 OA
ATOM     11  C   UNL     1      -0.331  12.264  22.279  0.00  0.00    +0.000 C 
ATOM     12  C   UNL     1      -0.500  12.075  20.762  0.00  0.00    +0.000 C 
ENDROOT
BRANCH   1  16
ATOM     13  C   UNL     1       2.139   7.047  19.518  0.00  0.00    +0.000 A 
ATOM     14  C   UNL     1       2.049   8.011  18.527  0.00  0.00    +0.000 A 
ATOM     15  C   UNL     1       1.398   9.190  18.799  0.00  0.00    +0.000 A 
ATOM     16  C   UNL     1       0.784   9.494  20.044  0.00  0.00    +0.000 A 
ATOM     17  C   UNL     1       0.772   8.477  20.990  0.00  0.00    +0.000 A 
ATOM     18  C   UNL     1       1.457   7.274  20.734  0.00  0.00    +0.000 A 
BRANCH  13  23
ATOM     19  C   UNL     1       4.515   4.693  17.798  0.00  0.00    +0.000 A 
ATOM     20  C   UNL     1       4.638   3.665  18.740  0.00  0.00    +0.000 A 
ATOM     21  C   UNL     1       3.886   3.695  19.911  0.00  0.00    +0.000 A 
ATOM     22  C   UNL     1       3.033   4.772  20.148  0.00  0.00    +0.000 A 
ATOM     23  C   UNL     1       2.899   5.821  19.212  0.00  0.00    +0.000 A 
ATOM     24  C   UNL     1       3.597   5.717  18.011  0.00  0.00    +0.000 A 
BRANCH  19  28
ATOM     25  C   UNL     1       7.164   5.330  15.155  0.00  0.00    +0.000 C 
ATOM     26  N   UNL     1       6.554   5.302  16.469  0.00  0.00    +0.000 N 
ATOM     27  C   UNL     1       7.317   5.892  17.564  0.00  0.00    +0.000 C 
ATOM     28  C   UNL     1       5.320   4.641  16.557  0.00  0.00    +0.000 C 
ATOM     29  O   UNL     1       4.853   4.007  15.611  0.00  0.00    +0.000 OA
ENDBRANCH  19  28
ENDBRANCH  13  23
ENDBRANCH   1  16
BRANCH   9  30
ATOM     30  C   UNL     1      -2.546  15.184  23.673  0.00  0.00    +0.000 C 
ATOM     31  C   UNL     1      -3.926  15.574  23.079  0.00  0.00    +0.000 C 
ATOM     32  C   UNL     1      -4.367  16.099  24.446  0.00  0.00    +0.000 C 
ATOM     33  C   UNL     1      -3.118  15.479  25.080  0.00  0.00    +0.000 C 
ENDBRANCH   9  30
BRANCH   2  34
ATOM     34  C   UNL     1      -1.243  11.693  18.140  0.00  0.00    +0.000 C 
BRANCH  34  35
ATOM     35  O   UNL     1      -1.286  10.659  17.166  0.00  0.00    +0.000 OA
ATOM     36  H   UNL     1      -2.134  10.198  17.260  0.00  0.00    +0.000 HD
ENDBRANCH  34  35
ENDBRANCH   2  34
TORSDOF 6
ENDMDL
MODEL 5
REMARK VINA RESULT:      -8.2      2.642      3.962
REMARK  Name = 
REMARK  8 active torsions:
REMARK  status: ('A' for Active; 'I' for Inactive)
REMARK    1  A    between atoms: C_1  and  N_2
REMARK    2  A    between atoms: N_2  and  C_3
REMARK    3  A    between atoms: C_4  and  C_6
REMARK    4  A    between atoms: C_10  and  C_11
REMARK    5  A    between atoms: C_14  and  C_15
REMARK    6  A    between atoms: C_16  and  C_17
REMARK    7  A    between atoms: C_17  and  O_18
REMARK    8  A    between atoms: C_25  and  C_27
REMARK                            x       y       z     vdW  Elec       q    Type
REMARK                         _______ _______ _______ _____ _____    ______ ____
ROOT
ATOM      1  C   UNL     1       0.511  10.461  19.882  0.00  0.00    +0.000 C 
ATOM      2  C   UNL     1      -0.610  10.553  20.982  0.00  0.00    +0.000 C 
ATOM      3  N   UNL     1      -0.798  11.911  20.308  0.00  0.00    +0.000 NA
ATOM      4  C   UNL     1      -1.780  12.637  21.069  0.00  0.00    +0.000 C 
ATOM      5  C   UNL     1      -2.060  14.034  20.562  0.00  0.00    +0.000 C 
ATOM      6  C   UNL     1      -0.787  14.845  20.582  0.00  0.00    +0.000 C 
ATOM      7  C   UNL     1      -0.013  14.659  19.282  0.00  0.00    +0.000 C 
ATOM      8  N   UNL     1       1.337  14.189  19.532  0.00  0.00    +0.000 N 
ATOM      9  C   UNL     1       2.337  14.995  20.093  0.00  0.00    +0.000 C 
ATOM     10  O   UNL     1       3.460  14.528  20.352  0.00  0.00    +0.000 OA
ATOM     11  C   UNL     1       1.557  12.752  19.311  0.00  0.00    +0.000 C 
ATOM     12  C   UNL     1       0.782  11.927  20.354  0.00  0.00    +0.000 C 
ENDROOT
BRANCH   1  16
ATOM     13  C   UNL     1       2.882   6.965  18.899  0.00  0.00    +0.000 A 
ATOM     14  C   UNL     1       2.572   7.956  17.983  0.00  0.00    +0.000 A 
ATOM     15  C   UNL     1       1.719   8.967  18.355  0.00  0.00    +0.000 A 
ATOM     16  C   UNL     1       1.105   9.063  19.633  0.00  0.00    +0.000 A 
ATOM     17  C   UNL     1       1.323   8.003  20.503  0.00  0.00    +0.000 A 
ATOM     18  C   UNL     1       2.216   6.975  20.145  0.00  0.00    +0.000 A 
BRANCH  13  23
ATOM     19  C   UNL     1       5.741   5.311  17.101  0.00  0.00    +0.000 A 
ATOM     20  C   UNL     1       5.944   4.161  17.874  0.00  0.00    +0.000 A 
ATOM     21  C   UNL     1       5.098   3.878  18.942  0.00  0.00    +0.000 A 
ATOM     22  C   UNL     1       4.068   4.765  19.252  0.00  0.00    +0.000 A 
ATOM     23  C   UNL     1       3.850   5.932  18.488  0.00  0.00    +0.000 A 
ATOM     24  C   UNL     1       4.657   6.141  17.372  0.00  0.00    +0.000 A 
BRANCH  19  28
ATOM     25  C   UNL     1       7.537   5.162  13.760  0.00  0.00    +0.000 C 
ATOM     26  N   UNL     1       6.488   4.941  14.735  0.00  0.00    +0.000 N 
ATOM     27  C   UNL     1       5.349   4.134  14.308  0.00  0.00    +0.000 C 
ATOM     28  C   UNL     1       6.648   5.592  15.966  0.00  0.00    +0.000 C 
ATOM     29  O   UNL     1       7.550   6.408  16.157  0.00  0.00    +0.000 OA
ENDBRANCH  19  28
ENDBRANCH  13  23
ENDBRANCH   1  16
BRANCH   9  30
ATOM     30  C   UNL     1       1.962  16.502  20.381  0.00  0.00    +0.000 C 
ATOM     31  C   UNL     1       2.010  16.945  21.867  0.00  0.00    +0.000 C 
ATOM     32  C   UNL     1       2.854  18.159  21.481  0.00  0.00    +0.000 C 
ATOM     33  C   UNL     1       3.025  17.584  20.071  0.00  0.00    +0.000 C 
ENDBRANCH   9  30
BRANCH   2  34
ATOM     34  C   UNL     1      -0.290  10.595  22.510  0.00  0.00    +0.000 C 
BRANCH  34  35
ATOM     35  O   UNL     1      -0.744   9.420  23.167  0.00  0.00    +0.000 OA
ATOM     36  H   UNL     1       0.017   8.828  23.275  0.00  0.00    +0.000 HD
ENDBRANCH  34  35
ENDBRANCH   2  34
TORSDOF 6
ENDMDL
MODEL 6
REMARK VINA RESULT:      -8.2      3.221      4.793
REMARK  Name = 
REMARK  8 active torsions:
REMARK  status: ('A' for Active; 'I' for Inactive)
REMARK    1  A    between atoms: C_1  and  N_2
REMARK    2  A    between atoms: N_2  and  C_3
REMARK    3  A    between atoms: C_4  and  C_6
REMARK    4  A    between atoms: C_10  and  C_11
REMARK    5  A    between atoms: C_14  and  C_15
REMARK    6  A    between atoms: C_16  and  C_17
REMARK    7  A    between atoms: C_17  and  O_18
REMARK    8  A    between atoms: C_25  and  C_27
REMARK                            x       y       z     vdW  Elec       q    Type
REMARK                         _______ _______ _______ _____ _____    ______ ____
ROOT
ATOM      1  C   UNL     1       1.093   9.604  19.115  0.00  0.00    +0.000 C 
ATOM      2  C   UNL     1       0.267   9.527  20.452  0.00  0.00    +0.000 C 
ATOM      3  N   UNL     1      -0.365  10.771  19.829  0.00  0.00    +0.000 NA
ATOM      4  C   UNL     1      -1.276  11.322  20.797  0.00  0.00    +0.000 C 
ATOM      5  C   UNL     1      -1.964  12.595  20.358  0.00  0.00    +0.000 C 
ATOM      6  C   UNL     1      -0.930  13.654  20.062  0.00  0.00    +0.000 C 
ATOM      7  C   UNL     1      -0.459  13.553  18.616  0.00  0.00    +0.000 C 
ATOM      8  N   UNL     1       0.982  13.393  18.538  0.00  0.00    +0.000 N 
ATOM      9  C   UNL     1       1.885  14.423  18.832  0.00  0.00    +0.000 C 
ATOM     10  O   UNL     1       3.111  14.218  18.817  0.00  0.00    +0.000 OA
ATOM     11  C   UNL     1       1.452  12.022  18.285  0.00  0.00    +0.000 C 
ATOM     12  C   UNL     1       1.140  11.120  19.492  0.00  0.00    +0.000 C 
ENDROOT
BRANCH   1  16
ATOM     13  C   UNL     1       4.044   6.620  18.016  0.00  0.00    +0.000 A 
ATOM     14  C   UNL     1       3.770   7.740  17.247  0.00  0.00    +0.000 A 
ATOM     15  C   UNL     1       2.737   8.568  17.616  0.00  0.00    +0.000 A 
ATOM     16  C   UNL     1       1.902   8.347  18.744  0.00  0.00    +0.000 A 
ATOM     17  C   UNL     1       2.103   7.162  19.438  0.00  0.00    +0.000 A 
ATOM     18  C   UNL     1       3.173   6.317  19.087  0.00  0.00    +0.000 A 
BRANCH  13  23
ATOM     19  C   UNL     1       6.728   5.064  15.892  0.00  0.00    +0.000 A 
ATOM     20  C   UNL     1       7.580   4.514  16.856  0.00  0.00    +0.000 A 
ATOM     21  C   UNL     1       7.243   4.579  18.206  0.00  0.00    +0.000 A 
ATOM     22  C   UNL     1       6.067   5.224  18.587  0.00  0.00    +0.000 A 
ATOM     23  C   UNL     1       5.197   5.789  17.628  0.00  0.00    +0.000 A 
ATOM     24  C   UNL     1       5.517   5.628  16.282  0.00  0.00    +0.000 A 
BRANCH  19  28
ATOM     25  C   UNL     1       6.953   4.017  12.250  0.00  0.00    +0.000 C 
ATOM     26  N   UNL     1       6.390   4.156  13.578  0.00  0.00    +0.000 N 
ATOM     27  C   UNL     1       5.115   3.490  13.827  0.00  0.00    +0.000 C 
ATOM     28  C   UNL     1       7.100   4.980  14.461  0.00  0.00    +0.000 C 
ATOM     29  O   UNL     1       8.063   5.652  14.092  0.00  0.00    +0.000 OA
ENDBRANCH  19  28
ENDBRANCH  13  23
ENDBRANCH   1  16
BRANCH   9  30
ATOM     30  C   UNL     1       1.268  15.833  19.187  0.00  0.00    +0.000 C 
ATOM     31  C   UNL     1       1.698  16.444  20.547  0.00  0.00    +0.000 C 
ATOM     32  C   UNL     1       2.038  17.761  19.851  0.00  0.00    +0.000 C 
ATOM     33  C   UNL     1       1.865  17.079  18.489  0.00  0.00    +0.000 C 
ENDBRANCH   9  30
BRANCH   2  34
ATOM     34  C   UNL     1       0.917   9.730  21.856  0.00  0.00    +0.000 C 
BRANCH  34  35
ATOM     35  O   UNL     1       1.758   8.638  22.201  0.00  0.00    +0.000 OA
ATOM     36  H   UNL     1       1.499   7.879  21.654  0.00  0.00    +0.000 HD
ENDBRANCH  34  35
ENDBRANCH   2  34
TORSDOF 6
ENDMDL
MODEL 7
REMARK VINA RESULT:      -8.1      1.025      1.112
REMARK  Name = 
REMARK  8 active torsions:
REMARK  status: ('A' for Active; 'I' for Inactive)
REMARK    1  A    between atoms: C_1  and  N_2
REMARK    2  A    between atoms: N_2  and  C_3
REMARK    3  A    between atoms: C_4  and  C_6
REMARK    4  A    between atoms: C_10  and  C_11
REMARK    5  A    between atoms: C_14  and  C_15
REMARK    6  A    between atoms: C_16  and  C_17
REMARK    7  A    between atoms: C_17  and  O_18
REMARK    8  A    between atoms: C_25  and  C_27
REMARK                            x       y       z     vdW  Elec       q    Type
REMARK                         _______ _______ _______ _____ _____    ______ ____
ROOT
ATOM      1  C   UNL     1       0.301  11.329  21.380  0.00  0.00    +0.000 C 
ATOM      2  C   UNL     1       0.983  12.322  20.368  0.00  0.00    +0.000 C 
ATOM      3  N   UNL     1       0.717  13.279  21.530  0.00  0.00    +0.000 NA
ATOM      4  C   UNL     1       1.082  14.600  21.091  0.00  0.00    +0.000 C 
ATOM      5  C   UNL     1       0.840  15.690  22.112  0.00  0.00    +0.000 C 
ATOM      6  C   UNL     1      -0.624  15.727  22.476  0.00  0.00    +0.000 C 
ATOM      7  C   UNL     1      -0.916  14.760  23.618  0.00  0.00    +0.000 C 
ATOM      8  N   UNL     1      -1.949  13.806  23.253  0.00  0.00    +0.000 N 
ATOM      9  C   UNL     1      -3.298  14.155  23.110  0.00  0.00    +0.000 C 
ATOM     10  O   UNL     1      -4.135  13.318  22.730  0.00  0.00    +0.000 OA
ATOM     11  C   UNL     1      -1.468  12.468  22.877  0.00  0.00    +0.000 C 
ATOM     12  C   UNL     1      -0.678  12.535  21.559  0.00  0.00    +0.000 C 
ENDROOT
BRANCH   1  16
ATOM     13  C   UNL     1       1.555   7.300  20.378  0.00  0.00    +0.000 A 
ATOM     14  C   UNL     1       1.768   8.391  19.551  0.00  0.00    +0.000 A 
ATOM     15  C   UNL     1       1.233   9.608  19.900  0.00  0.00    +0.000 A 
ATOM     16  C   UNL     1       0.446   9.830  21.062  0.00  0.00    +0.000 A 
ATOM     17  C   UNL     1       0.135   8.709  21.820  0.00  0.00    +0.000 A 
ATOM     18  C   UNL     1       0.698   7.461  21.490  0.00  0.00    +0.000 A 
BRANCH  13  23
ATOM     19  C   UNL     1       4.209   4.846  19.340  0.00  0.00    +0.000 A 
ATOM     20  C   UNL     1       3.594   3.619  19.616  0.00  0.00    +0.000 A 
ATOM     21  C   UNL     1       2.279   3.582  20.070  0.00  0.00    +0.000 A 
ATOM     22  C   UNL     1       1.592   4.778  20.276  0.00  0.00    +0.000 A 
ATOM     23  C   UNL     1       2.197   6.026  20.007  0.00  0.00    +0.000 A 
ATOM     24  C   UNL     1       3.482   6.026  19.469  0.00  0.00    +0.000 A 
BRANCH  19  28
ATOM     25  C   UNL     1       7.305   4.528  17.167  0.00  0.00    +0.000 C 
ATOM     26  N   UNL     1       5.901   4.667  17.496  0.00  0.00    +0.000 N 
ATOM     27  C   UNL     1       4.958   4.663  16.382  0.00  0.00    +0.000 C 
ATOM     28  C   UNL     1       5.606   4.864  18.853  0.00  0.00    +0.000 C 
ATOM     29  O   UNL     1       6.490   5.046  19.690  0.00  0.00    +0.000 OA
ENDBRANCH  19  28
ENDBRANCH  13  23
ENDBRANCH   1  16
BRANCH   9  30
ATOM     30  C   UNL     1      -3.690  15.648  23.447  0.00  0.00    +0.000 C 
ATOM     31  C   UNL     1      -5.106  16.098  23.001  0.00  0.00    +0.000 C 
ATOM     32  C   UNL     1      -5.372  16.653  24.400  0.00  0.00    +0.000 C 
ATOM     33  C   UNL     1      -4.091  15.979  24.904  0.00  0.00    +0.000 C 
ENDBRANCH   9  30
BRANCH   2  34
ATOM     34  C   UNL     1       0.332  12.715  19.005  0.00  0.00    +0.000 C 
BRANCH  34  35
ATOM     35  O   UNL     1       1.290  12.721  17.956  0.00  0.00    +0.000 OA
ATOM     36  H   UNL     1       2.102  12.311  18.293  0.00  0.00    +0.000 HD
ENDBRANCH  34  35
ENDBRANCH   2  34
TORSDOF 6
ENDMDL
MODEL 8
REMARK VINA RESULT:      -8.1      2.707      4.423
REMARK  Name = 
REMARK  8 active torsions:
REMARK  status: ('A' for Active; 'I' for Inactive)
REMARK    1  A    between atoms: C_1  and  N_2
REMARK    2  A    between atoms: N_2  and  C_3
REMARK    3  A    between atoms: C_4  and  C_6
REMARK    4  A    between atoms: C_10  and  C_11
REMARK    5  A    between atoms: C_14  and  C_15
REMARK    6  A    between atoms: C_16  and  C_17
REMARK    7  A    between atoms: C_17  and  O_18
REMARK    8  A    between atoms: C_25  and  C_27
REMARK                            x       y       z     vdW  Elec       q    Type
REMARK                         _______ _______ _______ _____ _____    ______ ____
ROOT
ATOM      1  C   UNL     1       0.829  11.769  19.771  0.00  0.00    +0.000 C 
ATOM      2  C   UNL     1      -0.391  12.480  20.465  0.00  0.00    +0.000 C 
ATOM      3  N   UNL     1       0.108  13.624  19.584  0.00  0.00    +0.000 NA
ATOM      4  C   UNL     1      -0.670  14.790  19.911  0.00  0.00    +0.000 C 
ATOM      5  C   UNL     1      -0.276  16.040  19.156  0.00  0.00    +0.000 C 
ATOM      6  C   UNL     1       1.169  16.370  19.440  0.00  0.00    +0.000 C 
ATOM      7  C   UNL     1       2.087  15.639  18.468  0.00  0.00    +0.000 C 
ATOM      8  N   UNL     1       3.064  14.826  19.171  0.00  0.00    +0.000 N 
ATOM      9  C   UNL     1       4.139  15.369  19.886  0.00  0.00    +0.000 C 
ATOM     10  O   UNL     1       4.911  14.636  20.528  0.00  0.00    +0.000 OA
ATOM     11  C   UNL     1       2.766  13.387  19.226  0.00  0.00    +0.000 C 
ATOM     12  C   UNL     1       1.521  13.133  20.095  0.00  0.00    +0.000 C 
ENDROOT
BRANCH   1  16
ATOM     13  C   UNL     1       1.802   7.542  19.831  0.00  0.00    +0.000 A 
ATOM     14  C   UNL     1       1.857   8.320  18.686  0.00  0.00    +0.000 A 
ATOM     15  C   UNL     1       1.419   9.622  18.740  0.00  0.00    +0.000 A 
ATOM     16  C   UNL     1       0.887  10.236  19.906  0.00  0.00    +0.000 A 
ATOM     17  C   UNL     1       0.722   9.417  21.014  0.00  0.00    +0.000 A 
ATOM     18  C   UNL     1       1.190   8.090  20.981  0.00  0.00    +0.000 A 
BRANCH  13  23
ATOM     19  C   UNL     1       3.999   4.654  18.845  0.00  0.00    +0.000 A 
ATOM     20  C   UNL     1       3.646   3.684  19.791  0.00  0.00    +0.000 A 
ATOM     21  C   UNL     1       2.632   3.940  20.710  0.00  0.00    +0.000 A 
ATOM     22  C   UNL     1       1.994   5.180  20.698  0.00  0.00    +0.000 A 
ATOM     23  C   UNL     1       2.339   6.172  19.754  0.00  0.00    +0.000 A 
ATOM     24  C   UNL     1       3.294   5.853  18.792  0.00  0.00    +0.000 A 
BRANCH  19  28
ATOM     25  C   UNL     1       7.291   4.666  16.956  0.00  0.00    +0.000 C 
ATOM     26  N   UNL     1       6.371   4.866  18.057  0.00  0.00    +0.000 N 
ATOM     27  C   UNL     1       6.907   5.498  19.259  0.00  0.00    +0.000 C 
ATOM     28  C   UNL     1       5.076   4.362  17.873  0.00  0.00    +0.000 C 
ATOM     29  O   UNL     1       4.780   3.672  16.897  0.00  0.00    +0.000 OA
ENDBRANCH  19  28
ENDBRANCH  13  23
ENDBRANCH   1  16
BRANCH   9  30
ATOM     30  C   UNL     1       4.310  16.939  19.838  0.00  0.00    +0.000 C 
ATOM     31  C   UNL     1       4.209  17.678  21.199  0.00  0.00    +0.000 C 
ATOM     32  C   UNL     1       5.509  18.421  20.894  0.00  0.00    +0.000 C 
ATOM     33  C   UNL     1       5.741  17.506  19.686  0.00  0.00    +0.000 C 
ENDBRANCH   9  30
BRANCH   2  34
ATOM     34  C   UNL     1      -0.434  12.776  21.997  0.00  0.00    +0.000 C 
BRANCH  34  35
ATOM     35  O   UNL     1      -1.524  12.111  22.623  0.00  0.00    +0.000 OA
ATOM     36  H   UNL     1      -1.220  11.790  23.486  0.00  0.00    +0.000 HD
ENDBRANCH  34  35
ENDBRANCH   2  34
TORSDOF 6
ENDMDL
MODEL 9
REMARK VINA RESULT:      -8.1      2.179      2.962
REMARK  Name = 
REMARK  8 active torsions:
REMARK  status: ('A' for Active; 'I' for Inactive)
REMARK    1  A    between atoms: C_1  and  N_2
REMARK    2  A    between atoms: N_2  and  C_3
REMARK    3  A    between atoms: C_4  and  C_6
REMARK    4  A    between atoms: C_10  and  C_11
REMARK    5  A    between atoms: C_14  and  C_15
REMARK    6  A    between atoms: C_16  and  C_17
REMARK    7  A    between atoms: C_17  and  O_18
REMARK    8  A    between atoms: C_25  and  C_27
REMARK                            x       y       z     vdW  Elec       q    Type
REMARK                         _______ _______ _______ _____ _____    ______ ____
ROOT
ATOM      1  C   UNL     1      -0.359  11.487  21.555  0.00  0.00    +0.000 C 
ATOM      2  C   UNL     1       0.273  12.812  20.988  0.00  0.00    +0.000 C 
ATOM      3  N   UNL     1      -0.403  13.364  22.243  0.00  0.00    +0.000 NA
ATOM      4  C   UNL     1      -0.252  14.794  22.219  0.00  0.00    +0.000 C 
ATOM      5  C   UNL     1      -0.907  15.514  23.377  0.00  0.00    +0.000 C 
ATOM      6  C   UNL     1      -2.387  15.219  23.385  0.00  0.00    +0.000 C 
ATOM      7  C   UNL     1      -2.675  13.945  24.172  0.00  0.00    +0.000 C 
ATOM      8  N   UNL     1      -3.394  12.976  23.365  0.00  0.00    +0.000 N 
ATOM      9  C   UNL     1      -4.735  13.132  22.993  0.00  0.00    +0.000 C 
ATOM     10  O   UNL     1      -5.289  12.308  22.245  0.00  0.00    +0.000 OA
ATOM     11  C   UNL     1      -2.577  11.883  22.815  0.00  0.00    +0.000 C 
ATOM     12  C   UNL     1      -1.588  12.429  21.771  0.00  0.00    +0.000 C 
ENDROOT
BRANCH   1  16
ATOM     13  C   UNL     1       1.750   8.284  19.528  0.00  0.00    +0.000 A 
ATOM     14  C   UNL     1       1.307   9.430  18.886  0.00  0.00    +0.000 A 
ATOM     15  C   UNL     1       0.547  10.336  19.586  0.00  0.00    +0.000 A 
ATOM     16  C   UNL     1       0.159  10.173  20.943  0.00  0.00    +0.000 A 
ATOM     17  C   UNL     1       0.502   8.968  21.542  0.00  0.00    +0.000 A 
ATOM     18  C   UNL     1       1.303   8.042  20.846  0.00  0.00    +0.000 A 
BRANCH  13  23
ATOM     19  C   UNL     1       3.033   5.117  17.957  0.00  0.00    +0.000 A 
ATOM     20  C   UNL     1       4.004   5.604  17.073  0.00  0.00    +0.000 A 
ATOM     21  C   UNL     1       4.301   6.963  17.040  0.00  0.00    +0.000 A 
ATOM     22  C   UNL     1       3.602   7.837  17.873  0.00  0.00    +0.000 A 
ATOM     23  C   UNL     1       2.616   7.366  18.767  0.00  0.00    +0.000 A 
ATOM     24  C   UNL     1       2.406   5.990  18.841  0.00  0.00    +0.000 A 
BRANCH  19  28
ATOM     25  C   UNL     1       3.267   1.367  18.495  0.00  0.00    +0.000 C 
ATOM     26  N   UNL     1       3.551   2.774  18.689  0.00  0.00    +0.000 N 
ATOM     27  C   UNL     1       4.597   3.110  19.651  0.00  0.00    +0.000 C 
ATOM     28  C   UNL     1       2.735   3.668  17.982  0.00  0.00    +0.000 C 
ATOM     29  O   UNL     1       1.752   3.286  17.346  0.00  0.00    +0.000 OA
ENDBRANCH  19  28
ENDBRANCH  13  23
ENDBRANCH   1  16
BRANCH   9  30
ATOM     30  C   UNL     1      -5.492  14.396  23.563  0.00  0.00    +0.000 C 
ATOM     31  C   UNL     1      -5.951  15.446  22.516  0.00  0.00    +0.000 C 
ATOM     32  C   UNL     1      -7.353  15.442  23.124  0.00  0.00    +0.000 C 
ATOM     33  C   UNL     1      -6.973  14.227  23.977  0.00  0.00    +0.000 C 
ENDBRANCH   9  30
BRANCH   2  34
ATOM     34  C   UNL     1      -0.181  13.452  19.639  0.00  0.00    +0.000 C 
BRANCH  34  35
ATOM     35  O   UNL     1       0.904  14.088  18.976  0.00  0.00    +0.000 OA
ATOM     36  H   UNL     1       0.998  13.679  18.101  0.00  0.00    +0.000 HD
ENDBRANCH  34  35
ENDBRANCH   2  34
TORSDOF 6
ENDMDL
