MODEL 1
REMARK VINA RESULT:      -7.7      0.000      0.000
REMARK  Name = 
REMARK  4 active torsions:
REMARK  status: ('A' for Active; 'I' for Inactive)
REMARK    1  A    between atoms: C_2  and  O_3
REMARK    2  A    between atoms: C_2  and  C_4
REMARK    3  A    between atoms: C_17  and  O_18
REMARK    4  A    between atoms: C_20  and  O_21
REMARK                            x       y       z     vdW  Elec       q    Type
REMARK                         _______ _______ _______ _____ _____    ______ ____
ROOT
ATOM      1  C   UNL     1       6.908   4.846  14.355  0.00  0.00    +0.000 A 
ATOM      2  C   UNL     1       5.966   3.871  14.082  0.00  0.00    +0.000 A 
ATOM      3  N   UNL     1       5.058   3.405  14.983  0.00  0.00    +0.000 NA
ATOM      4  C   UNL     1       5.019   3.915  16.216  0.00  0.00    +0.000 A 
ATOM      5  N   UNL     1       4.102   3.449  17.081  0.00  0.00    +0.000 NA
ATOM      6  C   UNL     1       3.971   3.970  18.329  0.00  0.00    +0.000 A 
ATOM      7  N   UNL     1       3.005   3.470  19.186  0.00  0.00    +0.000 N 
ATOM      8  C   UNL     1       2.131   2.360  18.829  0.00  0.00    +0.000 C 
ATOM      9  C   UNL     1       0.764   2.795  19.353  0.00  0.00    +0.000 C 
ATOM     10  C   UNL     1       1.091   3.637  20.574  0.00  0.00    +0.000 C 
ATOM     11  C   UNL     1       2.407   4.318  20.215  0.00  0.00    +0.000 C 
ATOM     12  C   UNL     1       4.824   4.989  18.732  0.00  0.00    +0.000 A 
ATOM     13  F   UNL     1       4.753   5.557  19.949  0.00  0.00    +0.000 F 
ATOM     14  C   UNL     1       5.800   5.452  17.872  0.00  0.00    +0.000 A 
ATOM     15  C   UNL     1       5.923   4.927  16.581  0.00  0.00    +0.000 A 
ATOM     16  C   UNL     1       6.883   5.369  15.639  0.00  0.00    +0.000 A 
ENDROOT
BRANCH   1  18
ATOM     17  O   UNL     1       8.794   5.991  13.502  0.00  0.00    +0.000 OA
ATOM     18  C   UNL     1       7.838   5.266  13.280  0.00  0.00    +0.000 C 
BRANCH  18  19
ATOM     19  O   UNL     1       7.556   4.792  12.050  0.00  0.00    +0.000 OA
ATOM     20  H   UNL     1       7.929   3.896  11.888  0.00  0.00    +0.000 HD
ENDBRANCH  18  19
ENDBRANCH   1  18
BRANCH  14  21
ATOM     21  O   UNL     1       6.646   6.452  18.299  0.00  0.00    +0.000 OA
ATOM     22  H   UNL     1       6.308   6.750  19.171  0.00  0.00    +0.000 HD
ENDBRANCH  14  21
BRANCH  16  23
ATOM     23  O   UNL     1       7.810   6.335  15.975  0.00  0.00    +0.000 OA
ATOM     24  H   UNL     1       7.311   7.133  16.270  0.00  0.00    +0.000 HD
ENDBRANCH  16  23
TORSDOF 4
ENDMDL
MODEL 2
REMARK VINA RESULT:      -7.4      3.664      4.459
REMARK  Name = 
REMARK  4 active torsions:
REMARK  status: ('A' for Active; 'I' for Inactive)
REMARK    1  A    between atoms: C_2  and  O_3
REMARK    2  A    between atoms: C_2  and  C_4
REMARK    3  A    between atoms: C_17  and  O_18
REMARK    4  A    between atoms: C_20  and  O_21
REMARK                            x       y       z     vdW  Elec       q    Type
REMARK                         _______ _______ _______ _____ _____    ______ ____
ROOT
ATOM      1  C   UNL     1       5.615   5.097  16.645  0.00  0.00    +0.000 A 
ATOM      2  C   UNL     1       5.377   6.370  16.160  0.00  0.00    +0.000 A 
ATOM      3  N   UNL     1       4.466   7.235  16.683  0.00  0.00    +0.000 NA
ATOM      4  C   UNL     1       3.750   6.884  17.754  0.00  0.00    +0.000 A 
ATOM      5  N   UNL     1       2.869   7.763  18.261  0.00  0.00    +0.000 NA
ATOM      6  C   UNL     1       2.157   7.490  19.385  0.00  0.00    +0.000 A 
ATOM      7  N   UNL     1       1.267   8.427  19.882  0.00  0.00    +0.000 N 
ATOM      8  C   UNL     1       1.016   9.703  19.224  0.00  0.00    +0.000 C 
ATOM      9  C   UNL     1       0.968  10.701  20.380  0.00  0.00    +0.000 C 
ATOM     10  C   UNL     1       0.415   9.891  21.539  0.00  0.00    +0.000 C 
ATOM     11  C   UNL     1       0.966   8.488  21.311  0.00  0.00    +0.000 C 
ATOM     12  C   UNL     1       2.322   6.260  20.010  0.00  0.00    +0.000 A 
ATOM     13  F   UNL     1       1.656   5.920  21.128  0.00  0.00    +0.000 F 
ATOM     14  C   UNL     1       3.192   5.328  19.480  0.00  0.00    +0.000 A 
ATOM     15  C   UNL     1       3.937   5.618  18.332  0.00  0.00    +0.000 A 
ATOM     16  C   UNL     1       4.865   4.721  17.749  0.00  0.00    +0.000 A 
ENDROOT
BRANCH   1  18
ATOM     17  O   UNL     1       7.808   4.602  15.910  0.00  0.00    +0.000 OA
ATOM     18  C   UNL     1       6.640   4.257  15.983  0.00  0.00    +0.000 C 
BRANCH  18  19
ATOM     19  O   UNL     1       6.195   3.091  15.473  0.00  0.00    +0.000 OA
ATOM     20  H   UNL     1       6.715   2.314  15.778  0.00  0.00    +0.000 HD
ENDBRANCH  18  19
ENDBRANCH   1  18
BRANCH  14  21
ATOM     21  O   UNL     1       3.327   4.109  20.108  0.00  0.00    +0.000 OA
ATOM     22  H   UNL     1       3.287   3.427  19.404  0.00  0.00    +0.000 HD
ENDBRANCH  14  21
BRANCH  16  23
ATOM     23  O   UNL     1       5.046   3.454  18.269  0.00  0.00    +0.000 OA
ATOM     24  H   UNL     1       4.738   3.474  19.205  0.00  0.00    +0.000 HD
ENDBRANCH  16  23
TORSDOF 4
ENDMDL
MODEL 3
REMARK VINA RESULT:      -7.3      4.040      5.882
REMARK  Name = 
REMARK  4 active torsions:
REMARK  status: ('A' for Active; 'I' for Inactive)
REMARK    1  A    between atoms: C_2  and  O_3
REMARK    2  A    between atoms: C_2  and  C_4
REMARK    3  A    between atoms: C_17  and  O_18
REMARK    4  A    between atoms: C_20  and  O_21
REMARK                            x       y       z     vdW  Elec       q    Type
REMARK                         _______ _______ _______ _____ _____    ______ ____
ROOT
ATOM      1  C   UNL     1       3.961   2.976  19.700  0.00  0.00    +0.000 A 
ATOM      2  C   UNL     1       3.105   3.327  20.728  0.00  0.00    +0.000 A 
ATOM      3  N   UNL     1       2.509   4.545  20.852  0.00  0.00    +0.000 NA
ATOM      4  C   UNL     1       2.715   5.485  19.927  0.00  0.00    +0.000 A 
ATOM      5  N   UNL     1       2.101   6.673  20.064  0.00  0.00    +0.000 NA
ATOM      6  C   UNL     1       2.219   7.648  19.125  0.00  0.00    +0.000 A 
ATOM      7  N   UNL     1       1.562   8.854  19.298  0.00  0.00    +0.000 N 
ATOM      8  C   UNL     1       0.767   9.157  20.481  0.00  0.00    +0.000 C 
ATOM      9  C   UNL     1      -0.472   9.850  19.915  0.00  0.00    +0.000 C 
ATOM     10  C   UNL     1       0.043  10.564  18.677  0.00  0.00    +0.000 C 
ATOM     11  C   UNL     1       1.138   9.647  18.145  0.00  0.00    +0.000 C 
ATOM     12  C   UNL     1       3.017   7.423  18.010  0.00  0.00    +0.000 A 
ATOM     13  F   UNL     1       3.180   8.338  17.038  0.00  0.00    +0.000 F 
ATOM     14  C   UNL     1       3.689   6.224  17.873  0.00  0.00    +0.000 A 
ATOM     15  C   UNL     1       3.552   5.215  18.832  0.00  0.00    +0.000 A 
ATOM     16  C   UNL     1       4.190   3.954  18.744  0.00  0.00    +0.000 A 
ENDROOT
BRANCH   1  18
ATOM     17  O   UNL     1       5.271   1.211  20.574  0.00  0.00    +0.000 OA
ATOM     18  C   UNL     1       4.541   1.613  19.682  0.00  0.00    +0.000 C 
BRANCH  18  19
ATOM     19  O   UNL     1       4.205   0.853  18.621  0.00  0.00    +0.000 OA
ATOM     20  H   UNL     1       3.736   0.026  18.872  0.00  0.00    +0.000 HD
ENDBRANCH  18  19
ENDBRANCH   1  18
BRANCH  14  21
ATOM     21  O   UNL     1       4.487   6.030  16.767  0.00  0.00    +0.000 OA
ATOM     22  H   UNL     1       4.665   5.066  16.718  0.00  0.00    +0.000 HD
ENDBRANCH  14  21
BRANCH  16  23
ATOM     23  O   UNL     1       5.049   3.668  17.701  0.00  0.00    +0.000 OA
ATOM     24  H   UNL     1       5.889   3.335  18.095  0.00  0.00    +0.000 HD
ENDBRANCH  16  23
TORSDOF 4
ENDMDL
MODEL 4
REMARK VINA RESULT:      -7.1      4.680      7.272
REMARK  Name = 
REMARK  4 active torsions:
REMARK  status: ('A' for Active; 'I' for Inactive)
REMARK    1  A    between atoms: C_2  and  O_3
REMARK    2  A    between atoms: C_2  and  C_4
REMARK    3  A    between atoms: C_17  and  O_18
REMARK    4  A    between atoms: C_20  and  O_21
REMARK                            x       y       z     vdW  Elec       q    Type
REMARK                         _______ _______ _______ _____ _____    ______ ____
ROOT
ATOM      1  C   UNL     1       0.794   9.618  19.510  0.00  0.00    +0.000 A 
ATOM      2  C   UNL     1       1.289   9.979  18.271  0.00  0.00    +0.000 A 
ATOM      3  N   UNL     1       2.214   9.263  17.573  0.00  0.00    +0.000 NA
ATOM      4  C   UNL     1       2.680   8.114  18.068  0.00  0.00    +0.000 A 
ATOM      5  N   UNL     1       3.580   7.418  17.351  0.00  0.00    +0.000 NA
ATOM      6  C   UNL     1       4.045   6.213  17.770  0.00  0.00    +0.000 A 
ATOM      7  N   UNL     1       4.963   5.522  16.997  0.00  0.00    +0.000 N 
ATOM      8  C   UNL     1       5.501   6.051  15.750  0.00  0.00    +0.000 C 
ATOM      9  C   UNL     1       5.495   4.844  14.814  0.00  0.00    +0.000 C 
ATOM     10  C   UNL     1       5.723   3.662  15.740  0.00  0.00    +0.000 C 
ATOM     11  C   UNL     1       5.024   4.062  17.035  0.00  0.00    +0.000 C 
ATOM     12  C   UNL     1       3.603   5.699  18.983  0.00  0.00    +0.000 A 
ATOM     13  F   UNL     1       4.015   4.512  19.461  0.00  0.00    +0.000 F 
ATOM     14  C   UNL     1       2.711   6.419  19.752  0.00  0.00    +0.000 A 
ATOM     15  C   UNL     1       2.219   7.652  19.311  0.00  0.00    +0.000 A 
ATOM     16  C   UNL     1       1.285   8.432  20.036  0.00  0.00    +0.000 A 
ENDROOT
BRANCH   1  18
ATOM     17  O   UNL     1      -1.229  10.842  19.583  0.00  0.00    +0.000 OA
ATOM     18  C   UNL     1      -0.215  10.486  20.161  0.00  0.00    +0.000 C 
BRANCH  18  19
ATOM     19  O   UNL     1       0.065  10.852  21.428  0.00  0.00    +0.000 OA
ATOM     20  H   UNL     1       0.934  11.305  21.515  0.00  0.00    +0.000 HD
ENDBRANCH  18  19
ENDBRANCH   1  18
BRANCH  14  21
ATOM     21  O   UNL     1       2.299   5.897  20.960  0.00  0.00    +0.000 OA
ATOM     22  H   UNL     1       1.907   5.019  20.764  0.00  0.00    +0.000 HD
ENDBRANCH  14  21
BRANCH  16  23
ATOM     23  O   UNL     1       0.839   8.027  21.279  0.00  0.00    +0.000 OA
ATOM     24  H   UNL     1       0.029   8.549  21.485  0.00  0.00    +0.000 HD
ENDBRANCH  16  23
TORSDOF 4
ENDMDL
MODEL 5
REMARK VINA RESULT:      -7.0      4.277      6.152
REMARK  Name = 
REMARK  4 active torsions:
REMARK  status: ('A' for Active; 'I' for Inactive)
REMARK    1  A    between atoms: C_2  and  O_3
REMARK    2  A    between atoms: C_2  and  C_4
REMARK    3  A    between atoms: C_17  and  O_18
REMARK    4  A    between atoms: C_20  and  O_21
REMARK                            x       y       z     vdW  Elec       q    Type
REMARK                         _______ _______ _______ _____ _____    ______ ____
ROOT
ATOM      1  C   UNL     1       3.512   3.374  19.519  0.00  0.00    +0.000 A 
ATOM      2  C   UNL     1       2.725   3.631  20.626  0.00  0.00    +0.000 A 
ATOM      3  N   UNL     1       2.167   4.840  20.910  0.00  0.00    +0.000 NA
ATOM      4  C   UNL     1       2.342   5.867  20.075  0.00  0.00    +0.000 A 
ATOM      5  N   UNL     1       1.766   7.046  20.369  0.00  0.00    +0.000 NA
ATOM      6  C   UNL     1       1.853   8.110  19.530  0.00  0.00    +0.000 A 
ATOM      7  N   UNL     1       1.236   9.304  19.864  0.00  0.00    +0.000 N 
ATOM      8  C   UNL     1       0.517   9.497  21.117  0.00  0.00    +0.000 C 
ATOM      9  C   UNL     1      -0.735  10.266  20.700  0.00  0.00    +0.000 C 
ATOM     10  C   UNL     1      -0.275  11.096  19.513  0.00  0.00    +0.000 C 
ATOM     11  C   UNL     1       0.766  10.219  18.826  0.00  0.00    +0.000 C 
ATOM     12  C   UNL     1       2.580   7.988  18.352  0.00  0.00    +0.000 A 
ATOM     13  F   UNL     1       2.708   8.996  17.471  0.00  0.00    +0.000 F 
ATOM     14  C   UNL     1       3.213   6.798  18.053  0.00  0.00    +0.000 A 
ATOM     15  C   UNL     1       3.108   5.697  18.910  0.00  0.00    +0.000 A 
ATOM     16  C   UNL     1       3.709   4.441  18.655  0.00  0.00    +0.000 A 
ENDROOT
BRANCH   1  18
ATOM     17  O   UNL     1       3.617   1.253  18.476  0.00  0.00    +0.000 OA
ATOM     18  C   UNL     1       4.057   2.009  19.327  0.00  0.00    +0.000 C 
BRANCH  18  19
ATOM     19  O   UNL     1       5.066   1.665  20.152  0.00  0.00    +0.000 OA
ATOM     20  H   UNL     1       4.891   0.834  20.648  0.00  0.00    +0.000 HD
ENDBRANCH  18  19
ENDBRANCH   1  18
BRANCH  14  21
ATOM     21  O   UNL     1       3.942   6.705  16.887  0.00  0.00    +0.000 OA
ATOM     22  H   UNL     1       3.691   5.853  16.469  0.00  0.00    +0.000 HD
ENDBRANCH  14  21
BRANCH  16  23
ATOM     23  O   UNL     1       4.500   4.249  17.539  0.00  0.00    +0.000 OA
ATOM     24  H   UNL     1       4.818   3.316  17.561  0.00  0.00    +0.000 HD
ENDBRANCH  16  23
TORSDOF 4
ENDMDL
MODEL 6
REMARK VINA RESULT:      -6.9      2.694      6.456
REMARK  Name = 
REMARK  4 active torsions:
REMARK  status: ('A' for Active; 'I' for Inactive)
REMARK    1  A    between atoms: C_2  and  O_3
REMARK    2  A    between atoms: C_2  and  C_4
REMARK    3  A    between atoms: C_17  and  O_18
REMARK    4  A    between atoms: C_20  and  O_21
REMARK                            x       y       z     vdW  Elec       q    Type
REMARK                         _______ _______ _______ _____ _____    ______ ____
ROOT
ATOM      1  C   UNL     1       2.667   3.146  19.725  0.00  0.00    +0.000 A 
ATOM      2  C   UNL     1       2.259   2.435  18.611  0.00  0.00    +0.000 A 
ATOM      3  N   UNL     1       2.760   2.614  17.358  0.00  0.00    +0.000 NA
ATOM      4  C   UNL     1       3.733   3.505  17.149  0.00  0.00    +0.000 A 
ATOM      5  N   UNL     1       4.222   3.650  15.906  0.00  0.00    +0.000 NA
ATOM      6  C   UNL     1       5.254   4.493  15.640  0.00  0.00    +0.000 A 
ATOM      7  N   UNL     1       5.736   4.605  14.347  0.00  0.00    +0.000 N 
ATOM      8  C   UNL     1       5.156   3.883  13.223  0.00  0.00    +0.000 C 
ATOM      9  C   UNL     1       6.374   3.402  12.436  0.00  0.00    +0.000 C 
ATOM     10  C   UNL     1       7.415   4.481  12.679  0.00  0.00    +0.000 C 
ATOM     11  C   UNL     1       7.133   4.959  14.098  0.00  0.00    +0.000 C 
ATOM     12  C   UNL     1       5.797   5.246  16.673  0.00  0.00    +0.000 A 
ATOM     13  F   UNL     1       6.821   6.099  16.488  0.00  0.00    +0.000 F 
ATOM     14  C   UNL     1       5.280   5.142  17.949  0.00  0.00    +0.000 A 
ATOM     15  C   UNL     1       4.229   4.260  18.225  0.00  0.00    +0.000 A 
ATOM     16  C   UNL     1       3.666   4.083  19.512  0.00  0.00    +0.000 A 
ENDROOT
BRANCH   1  18
ATOM     17  O   UNL     1       2.704   2.557  22.015  0.00  0.00    +0.000 OA
ATOM     18  C   UNL     1       2.040   2.850  21.034  0.00  0.00    +0.000 C 
BRANCH  18  19
ATOM     19  O   UNL     1       0.694   2.929  21.065  0.00  0.00    +0.000 OA
ATOM     20  H   UNL     1       0.260   2.359  20.392  0.00  0.00    +0.000 HD
ENDBRANCH  18  19
ENDBRANCH   1  18
BRANCH  14  21
ATOM     21  O   UNL     1       5.824   5.911  18.955  0.00  0.00    +0.000 OA
ATOM     22  H   UNL     1       6.046   6.778  18.552  0.00  0.00    +0.000 HD
ENDBRANCH  14  21
BRANCH  16  23
ATOM     23  O   UNL     1       4.104   4.836  20.584  0.00  0.00    +0.000 OA
ATOM     24  H   UNL     1       3.611   5.689  20.566  0.00  0.00    +0.000 HD
ENDBRANCH  16  23
TORSDOF 4
ENDMDL
MODEL 7
REMARK VINA RESULT:      -6.8      6.337      9.139
REMARK  Name = 
REMARK  4 active torsions:
REMARK  status: ('A' for Active; 'I' for Inactive)
REMARK    1  A    between atoms: C_2  and  O_3
REMARK    2  A    between atoms: C_2  and  C_4
REMARK    3  A    between atoms: C_17  and  O_18
REMARK    4  A    between atoms: C_20  and  O_21
REMARK                            x       y       z     vdW  Elec       q    Type
REMARK                         _______ _______ _______ _____ _____    ______ ____
ROOT
ATOM      1  C   UNL     1      -0.497  10.776  22.110  0.00  0.00    +0.000 A 
ATOM      2  C   UNL     1       0.003   9.713  22.838  0.00  0.00    +0.000 A 
ATOM      3  N   UNL     1       0.745   8.700  22.311  0.00  0.00    +0.000 NA
ATOM      4  C   UNL     1       1.059   8.709  21.013  0.00  0.00    +0.000 A 
ATOM      5  N   UNL     1       1.807   7.706  20.521  0.00  0.00    +0.000 NA
ATOM      6  C   UNL     1       2.212   7.690  19.225  0.00  0.00    +0.000 A 
ATOM      7  N   UNL     1       2.991   6.644  18.759  0.00  0.00    +0.000 N 
ATOM      8  C   UNL     1       3.373   5.512  19.594  0.00  0.00    +0.000 C 
ATOM      9  C   UNL     1       4.840   5.280  19.238  0.00  0.00    +0.000 C 
ATOM     10  C   UNL     1       4.934   5.702  17.782  0.00  0.00    +0.000 C 
ATOM     11  C   UNL     1       3.933   6.845  17.659  0.00  0.00    +0.000 C 
ATOM     12  C   UNL     1       1.820   8.720  18.379  0.00  0.00    +0.000 A 
ATOM     13  F   UNL     1       2.185   8.774  17.085  0.00  0.00    +0.000 F 
ATOM     14  C   UNL     1       1.017   9.737  18.856  0.00  0.00    +0.000 A 
ATOM     15  C   UNL     1       0.615   9.761  20.195  0.00  0.00    +0.000 A 
ATOM     16  C   UNL     1      -0.187  10.783  20.758  0.00  0.00    +0.000 A 
ENDROOT
BRANCH   1  18
ATOM     17  O   UNL     1      -2.313  11.546  23.416  0.00  0.00    +0.000 OA
ATOM     18  C   UNL     1      -1.289  11.815  22.809  0.00  0.00    +0.000 C 
BRANCH  18  19
ATOM     19  O   UNL     1      -0.802  13.069  22.728  0.00  0.00    +0.000 OA
ATOM     20  H   UNL     1      -0.729  13.395  21.802  0.00  0.00    +0.000 HD
ENDBRANCH  18  19
ENDBRANCH   1  18
BRANCH  14  21
ATOM     21  O   UNL     1       0.627  10.739  17.994  0.00  0.00    +0.000 OA
ATOM     22  H   UNL     1       0.709  11.581  18.491  0.00  0.00    +0.000 HD
ENDBRANCH  14  21
BRANCH  16  23
ATOM     23  O   UNL     1      -0.672  11.813  19.976  0.00  0.00    +0.000 OA
ATOM     24  H   UNL     1      -1.136  12.444  20.574  0.00  0.00    +0.000 HD
ENDBRANCH  16  23
TORSDOF 4
ENDMDL
MODEL 8
REMARK VINA RESULT:      -6.7      5.594      8.260
REMARK  Name = 
REMARK  4 active torsions:
REMARK  status: ('A' for Active; 'I' for Inactive)
REMARK    1  A    between atoms: C_2  and  O_3
REMARK    2  A    between atoms: C_2  and  C_4
REMARK    3  A    between atoms: C_17  and  O_18
REMARK    4  A    between atoms: C_20  and  O_21
REMARK                            x       y       z     vdW  Elec       q    Type
REMARK                         _______ _______ _______ _____ _____    ______ ____
ROOT
ATOM      1  C   UNL     1       0.033  10.345  21.290  0.00  0.00    +0.000 A 
ATOM      2  C   UNL     1       0.280   9.234  22.074  0.00  0.00    +0.000 A 
ATOM      3  N   UNL     1       0.964   8.134  21.656  0.00  0.00    +0.000 NA
ATOM      4  C   UNL     1       1.474   8.094  20.422  0.00  0.00    +0.000 A 
ATOM      5  N   UNL     1       2.160   7.003  20.040  0.00  0.00    +0.000 NA
ATOM      6  C   UNL     1       2.756   6.928  18.821  0.00  0.00    +0.000 A 
ATOM      7  N   UNL     1       3.463   5.791  18.470  0.00  0.00    +0.000 N 
ATOM      8  C   UNL     1       3.570   4.627  19.340  0.00  0.00    +0.000 C 
ATOM      9  C   UNL     1       5.034   4.213  19.211  0.00  0.00    +0.000 C 
ATOM     10  C   UNL     1       5.403   4.609  17.792  0.00  0.00    +0.000 C 
ATOM     11  C   UNL     1       4.580   5.866  17.530  0.00  0.00    +0.000 C 
ATOM     12  C   UNL     1       2.628   7.991  17.937  0.00  0.00    +0.000 A 
ATOM     13  F   UNL     1       3.192   7.991  16.716  0.00  0.00    +0.000 F 
ATOM     14  C   UNL     1       1.892   9.103  18.296  0.00  0.00    +0.000 A 
ATOM     15  C   UNL     1       1.294   9.187  19.558  0.00  0.00    +0.000 A 
ATOM     16  C   UNL     1       0.547  10.304  20.003  0.00  0.00    +0.000 A 
ENDROOT
BRANCH   1  18
ATOM     17  O   UNL     1      -0.492  11.902  22.992  0.00  0.00    +0.000 OA
ATOM     18  C   UNL     1      -0.724  11.479  21.871  0.00  0.00    +0.000 C 
BRANCH  18  19
ATOM     19  O   UNL     1      -1.678  12.007  21.078  0.00  0.00    +0.000 OA
ATOM     20  H   UNL     1      -1.742  12.986  21.152  0.00  0.00    +0.000 HD
ENDBRANCH  18  19
ENDBRANCH   1  18
BRANCH  14  21
ATOM     21  O   UNL     1       1.766  10.139  17.397  0.00  0.00    +0.000 OA
ATOM     22  H   UNL     1       2.398  10.834  17.682  0.00  0.00    +0.000 HD
ENDBRANCH  14  21
BRANCH  16  23
ATOM     23  O   UNL     1       0.319  11.380  19.167  0.00  0.00    +0.000 OA
ATOM     24  H   UNL     1       0.930  12.102  19.443  0.00  0.00    +0.000 HD
ENDBRANCH  16  23
TORSDOF 4
ENDMDL
MODEL 9
REMARK VINA RESULT:      -6.6      4.498      6.384
REMARK  Name = 
REMARK  4 active torsions:
REMARK  status: ('A' for Active; 'I' for Inactive)
REMARK    1  A    between atoms: C_2  and  O_3
REMARK    2  A    between atoms: C_2  and  C_4
REMARK    3  A    between atoms: C_17  and  O_18
REMARK    4  A    between atoms: C_20  and  O_21
REMARK                            x       y       z     vdW  Elec       q    Type
REMARK                         _______ _______ _______ _____ _____    ______ ____
ROOT
ATOM      1  C   UNL     1       2.755   3.490  19.210  0.00  0.00    +0.000 A 
ATOM      2  C   UNL     1       2.191   3.531  20.472  0.00  0.00    +0.000 A 
ATOM      3  N   UNL     1       1.795   4.671  21.101  0.00  0.00    +0.000 NA
ATOM      4  C   UNL     1       1.914   5.850  20.485  0.00  0.00    +0.000 A 
ATOM      5  N   UNL     1       1.500   6.959  21.122  0.00  0.00    +0.000 NA
ATOM      6  C   UNL     1       1.536   8.178  20.524  0.00  0.00    +0.000 A 
ATOM      7  N   UNL     1       1.089   9.295  21.210  0.00  0.00    +0.000 N 
ATOM      8  C   UNL     1       0.611   9.237  22.586  0.00  0.00    +0.000 C 
ATOM      9  C   UNL     1      -0.622  10.139  22.578  0.00  0.00    +0.000 C 
ATOM     10  C   UNL     1      -0.299  11.189  21.529  0.00  0.00    +0.000 C 
ATOM     11  C   UNL     1       0.531  10.440  20.493  0.00  0.00    +0.000 C 
ATOM     12  C   UNL     1       2.040   8.287  19.235  0.00  0.00    +0.000 A 
ATOM     13  F   UNL     1       2.104   9.459  18.577  0.00  0.00    +0.000 F 
ATOM     14  C   UNL     1       2.509   7.165  18.580  0.00  0.00    +0.000 A 
ATOM     15  C   UNL     1       2.455   5.907  19.190  0.00  0.00    +0.000 A 
ATOM     16  C   UNL     1       2.894   4.713  18.570  0.00  0.00    +0.000 A 
ENDROOT
BRANCH   1  18
ATOM     17  O   UNL     1       4.042   1.508  19.112  0.00  0.00    +0.000 OA
ATOM     18  C   UNL     1       3.140   2.179  18.638  0.00  0.00    +0.000 C 
BRANCH  18  19
ATOM     19  O   UNL     1       2.426   1.781  17.565  0.00  0.00    +0.000 OA
ATOM     20  H   UNL     1       1.712   1.144  17.793  0.00  0.00    +0.000 HD
ENDBRANCH  18  19
ENDBRANCH   1  18
BRANCH  14  21
ATOM     21  O   UNL     1       3.020   7.301  17.307  0.00  0.00    +0.000 OA
ATOM     22  H   UNL     1       3.504   8.154  17.291  0.00  0.00    +0.000 HD
ENDBRANCH  14  21
BRANCH  16  23
ATOM     23  O   UNL     1       3.466   4.737  17.313  0.00  0.00    +0.000 OA
ATOM     24  H   UNL     1       2.849   5.225  16.719  0.00  0.00    +0.000 HD
ENDBRANCH  16  23
TORSDOF 4
ENDMDL
