MODEL 1
REMARK VINA RESULT:      -7.2      0.000      0.000
REMARK  Name = 
REMARK  4 active torsions:
REMARK  status: ('A' for Active; 'I' for Inactive)
REMARK    1  A    between atoms: C_1  and  C_2
REMARK    2  A    between atoms: C_2  and  C_5
REMARK    3  A    between atoms: N_3  and  O_4
REMARK    4  A    between atoms: C_8  and  C_9
REMARK                            x       y       z     vdW  Elec       q    Type
REMARK                         _______ _______ _______ _____ _____    ______ ____
ROOT
ATOM      1  C   UNL     1       6.856   4.965  16.314  0.00  0.00    +0.000 A 
ATOM      2  N   UNL     1       7.625   5.297  15.233  0.00  0.00    +0.000 NA
ATOM      3  C   UNL     1       7.261   4.808  14.026  0.00  0.00    +0.000 A 
ATOM      4  C   UNL     1       6.152   4.003  13.824  0.00  0.00    +0.000 A 
ATOM      5  C   UNL     1       5.380   3.675  14.946  0.00  0.00    +0.000 A 
ATOM      6  C   UNL     1       5.725   4.157  16.213  0.00  0.00    +0.000 A 
ATOM      7 CL   UNL     1       4.664   3.763  17.512  0.00  0.00    +0.000 Cl
ENDROOT
BRANCH   4   8
ATOM      8  C   UNL     1       5.787   3.517  12.455  0.00  0.00    +0.000 C 
ATOM      9  F   UNL     1       5.960   2.178  12.289  0.00  0.00    +0.000 F 
ATOM     10  F   UNL     1       4.487   3.770  12.144  0.00  0.00    +0.000 F 
ATOM     11  F   UNL     1       6.530   4.114  11.484  0.00  0.00    +0.000 F 
ENDBRANCH   4   8
BRANCH   1  13
ATOM     12  C   UNL     1       7.384   7.072  17.660  0.00  0.00    +0.000 C 
ATOM     13  C   UNL     1       7.346   5.555  17.601  0.00  0.00    +0.000 C 
ATOM     14  N   UNL     1       7.744   4.782  18.570  0.00  0.00    +0.000 NA
BRANCH  14  15
ATOM     15  O   UNL     1       8.180   5.505  19.683  0.00  0.00    +0.000 OA
ATOM     16  H   UNL     1       8.377   4.800  20.327  0.00  0.00    +0.000 HD
ENDBRANCH  14  15
ENDBRANCH   1  13
TORSDOF 3
ENDMDL
MODEL 2
REMARK VINA RESULT:      -6.9      0.380      1.057
REMARK  Name = 
REMARK  4 active torsions:
REMARK  status: ('A' for Active; 'I' for Inactive)
REMARK    1  A    between atoms: C_1  and  C_2
REMARK    2  A    between atoms: C_2  and  C_5
REMARK    3  A    between atoms: N_3  and  O_4
REMARK    4  A    between atoms: C_8  and  C_9
REMARK                            x       y       z     vdW  Elec       q    Type
REMARK                         _______ _______ _______ _____ _____    ______ ____
ROOT
ATOM      1  C   UNL     1       6.681   4.946  16.381  0.00  0.00    +0.000 A 
ATOM      2  N   UNL     1       7.586   5.265  15.406  0.00  0.00    +0.000 NA
ATOM      3  C   UNL     1       7.357   4.803  14.156  0.00  0.00    +0.000 A 
ATOM      4  C   UNL     1       6.257   4.036  13.809  0.00  0.00    +0.000 A 
ATOM      5  C   UNL     1       5.344   3.721  14.822  0.00  0.00    +0.000 A 
ATOM      6  C   UNL     1       5.546   4.176  16.130  0.00  0.00    +0.000 A 
ATOM      7 CL   UNL     1       4.323   3.800  17.284  0.00  0.00    +0.000 Cl
ENDROOT
BRANCH   4   8
ATOM      8  C   UNL     1       6.047   3.579  12.398  0.00  0.00    +0.000 C 
ATOM      9  F   UNL     1       6.802   4.254  11.489  0.00  0.00    +0.000 F 
ATOM     10  F   UNL     1       6.342   2.263  12.229  0.00  0.00    +0.000 F 
ATOM     11  F   UNL     1       4.756   3.730  11.996  0.00  0.00    +0.000 F 
ENDBRANCH   4   8
BRANCH   1  13
ATOM     12  C   UNL     1       7.419   6.971  17.753  0.00  0.00    +0.000 C 
ATOM     13  C   UNL     1       7.028   5.504  17.727  0.00  0.00    +0.000 C 
ATOM     14  N   UNL     1       7.021   4.737  18.779  0.00  0.00    +0.000 NA
BRANCH  14  15
ATOM     15  O   UNL     1       7.385   5.423  19.940  0.00  0.00    +0.000 OA
ATOM     16  H   UNL     1       8.088   4.856  20.307  0.00  0.00    +0.000 HD
ENDBRANCH  14  15
ENDBRANCH   1  13
TORSDOF 3
ENDMDL
MODEL 3
REMARK VINA RESULT:      -6.8      5.270      6.311
REMARK  Name = 
REMARK  4 active torsions:
REMARK  status: ('A' for Active; 'I' for Inactive)
REMARK    1  A    between atoms: C_1  and  C_2
REMARK    2  A    between atoms: C_2  and  C_5
REMARK    3  A    between atoms: N_3  and  O_4
REMARK    4  A    between atoms: C_8  and  C_9
REMARK                            x       y       z     vdW  Elec       q    Type
REMARK                         _______ _______ _______ _____ _____    ______ ____
ROOT
ATOM      1  C   UNL     1       4.990   4.530  18.665  0.00  0.00    +0.000 A 
ATOM      2  N   UNL     1       4.859   3.374  19.384  0.00  0.00    +0.000 NA
ATOM      3  C   UNL     1       3.653   3.104  19.932  0.00  0.00    +0.000 A 
ATOM      4  C   UNL     1       2.545   3.925  19.796  0.00  0.00    +0.000 A 
ATOM      5  C   UNL     1       2.702   5.103  19.056  0.00  0.00    +0.000 A 
ATOM      6  C   UNL     1       3.935   5.422  18.477  0.00  0.00    +0.000 A 
ATOM      7 CL   UNL     1       4.000   6.853  17.520  0.00  0.00    +0.000 Cl
ENDROOT
BRANCH   4   8
ATOM      8  C   UNL     1       1.228   3.553  20.404  0.00  0.00    +0.000 C 
ATOM      9  F   UNL     1       0.408   4.618  20.620  0.00  0.00    +0.000 F 
ATOM     10  F   UNL     1       0.523   2.687  19.628  0.00  0.00    +0.000 F 
ATOM     11  F   UNL     1       1.374   2.943  21.612  0.00  0.00    +0.000 F 
ENDBRANCH   4   8
BRANCH   1  13
ATOM     12  C   UNL     1       7.310   5.560  18.959  0.00  0.00    +0.000 C 
ATOM     13  C   UNL     1       6.364   4.735  18.104  0.00  0.00    +0.000 C 
ATOM     14  N   UNL     1       6.675   4.254  16.935  0.00  0.00    +0.000 NA
BRANCH  14  15
ATOM     15  O   UNL     1       7.989   4.555  16.569  0.00  0.00    +0.000 OA
ATOM     16  H   UNL     1       7.963   5.525  16.474  0.00  0.00    +0.000 HD
ENDBRANCH  14  15
ENDBRANCH   1  13
TORSDOF 3
ENDMDL
MODEL 4
REMARK VINA RESULT:      -6.8      4.625      5.685
REMARK  Name = 
REMARK  4 active torsions:
REMARK  status: ('A' for Active; 'I' for Inactive)
REMARK    1  A    between atoms: C_1  and  C_2
REMARK    2  A    between atoms: C_2  and  C_5
REMARK    3  A    between atoms: N_3  and  O_4
REMARK    4  A    between atoms: C_8  and  C_9
REMARK                            x       y       z     vdW  Elec       q    Type
REMARK                         _______ _______ _______ _____ _____    ______ ____
ROOT
ATOM      1  C   UNL     1       5.188   4.514  18.856  0.00  0.00    +0.000 A 
ATOM      2  N   UNL     1       5.036   3.341  19.542  0.00  0.00    +0.000 NA
ATOM      3  C   UNL     1       3.788   2.830  19.650  0.00  0.00    +0.000 A 
ATOM      4  C   UNL     1       2.665   3.422  19.097  0.00  0.00    +0.000 A 
ATOM      5  C   UNL     1       2.844   4.623  18.400  0.00  0.00    +0.000 A 
ATOM      6  C   UNL     1       4.118   5.187  18.269  0.00  0.00    +0.000 A 
ATOM      7 CL   UNL     1       4.241   6.622  17.324  0.00  0.00    +0.000 Cl
ENDROOT
BRANCH   4   8
ATOM      8  C   UNL     1       1.313   2.789  19.229  0.00  0.00    +0.000 C 
ATOM      9  F   UNL     1       0.488   3.045  18.177  0.00  0.00    +0.000 F 
ATOM     10  F   UNL     1       1.382   1.435  19.333  0.00  0.00    +0.000 F 
ATOM     11  F   UNL     1       0.651   3.219  20.336  0.00  0.00    +0.000 F 
ENDBRANCH   4   8
BRANCH   1  13
ATOM     12  C   UNL     1       7.335   4.743  17.489  0.00  0.00    +0.000 C 
ATOM     13  C   UNL     1       6.607   4.994  18.797  0.00  0.00    +0.000 C 
ATOM     14  N   UNL     1       7.156   5.549  19.838  0.00  0.00    +0.000 NA
BRANCH  14  15
ATOM     15  O   UNL     1       8.483   5.918  19.606  0.00  0.00    +0.000 OA
ATOM     16  H   UNL     1       8.665   5.510  18.739  0.00  0.00    +0.000 HD
ENDBRANCH  14  15
ENDBRANCH   1  13
TORSDOF 3
ENDMDL
MODEL 5
REMARK VINA RESULT:      -6.8      4.550      5.578
REMARK  Name = 
REMARK  4 active torsions:
REMARK  status: ('A' for Active; 'I' for Inactive)
REMARK    1  A    between atoms: C_1  and  C_2
REMARK    2  A    between atoms: C_2  and  C_5
REMARK    3  A    between atoms: N_3  and  O_4
REMARK    4  A    between atoms: C_8  and  C_9
REMARK                            x       y       z     vdW  Elec       q    Type
REMARK                         _______ _______ _______ _____ _____    ______ ____
ROOT
ATOM      1  C   UNL     1       5.233   4.510  18.878  0.00  0.00    +0.000 A 
ATOM      2  N   UNL     1       4.962   3.326  19.507  0.00  0.00    +0.000 NA
ATOM      3  C   UNL     1       3.678   2.904  19.534  0.00  0.00    +0.000 A 
ATOM      4  C   UNL     1       2.628   3.598  18.954  0.00  0.00    +0.000 A 
ATOM      5  C   UNL     1       2.928   4.808  18.317  0.00  0.00    +0.000 A 
ATOM      6  C   UNL     1       4.244   5.281  18.270  0.00  0.00    +0.000 A 
ATOM      7 CL   UNL     1       4.518   6.738  17.392  0.00  0.00    +0.000 Cl
ENDROOT
BRANCH   4   8
ATOM      8  C   UNL     1       1.230   3.062  18.995  0.00  0.00    +0.000 C 
ATOM      9  F   UNL     1       0.516   3.486  20.073  0.00  0.00    +0.000 F 
ATOM     10  F   UNL     1       0.506   3.416  17.900  0.00  0.00    +0.000 F 
ATOM     11  F   UNL     1       1.203   1.702  19.040  0.00  0.00    +0.000 F 
ENDBRANCH   4   8
BRANCH   1  13
ATOM     12  C   UNL     1       7.443   4.687  17.607  0.00  0.00    +0.000 C 
ATOM     13  C   UNL     1       6.683   4.885  18.907  0.00  0.00    +0.000 C 
ATOM     14  N   UNL     1       7.230   5.312  20.009  0.00  0.00    +0.000 NA
BRANCH  14  15
ATOM     15  O   UNL     1       8.588   5.599  19.852  0.00  0.00    +0.000 OA
ATOM     16  H   UNL     1       8.798   5.163  19.005  0.00  0.00    +0.000 HD
ENDBRANCH  14  15
ENDBRANCH   1  13
TORSDOF 3
ENDMDL
MODEL 6
REMARK VINA RESULT:      -6.7      4.997      5.976
REMARK  Name = 
REMARK  4 active torsions:
REMARK  status: ('A' for Active; 'I' for Inactive)
REMARK    1  A    between atoms: C_1  and  C_2
REMARK    2  A    between atoms: C_2  and  C_5
REMARK    3  A    between atoms: N_3  and  O_4
REMARK    4  A    between atoms: C_8  and  C_9
REMARK                            x       y       z     vdW  Elec       q    Type
REMARK                         _______ _______ _______ _____ _____    ______ ____
ROOT
ATOM      1  C   UNL     1       4.424   4.283  17.291  0.00  0.00    +0.000 A 
ATOM      2  N   UNL     1       4.177   2.953  17.492  0.00  0.00    +0.000 NA
ATOM      3  C   UNL     1       3.107   2.616  18.247  0.00  0.00    +0.000 A 
ATOM      4  C   UNL     1       2.247   3.540  18.817  0.00  0.00    +0.000 A 
ATOM      5  C   UNL     1       2.519   4.896  18.599  0.00  0.00    +0.000 A 
ATOM      6  C   UNL     1       3.619   5.286  17.827  0.00  0.00    +0.000 A 
ATOM      7 CL   UNL     1       3.819   6.976  17.553  0.00  0.00    +0.000 Cl
ENDROOT
BRANCH   4   8
ATOM      8  C   UNL     1       1.061   3.101  19.621  0.00  0.00    +0.000 C 
ATOM      9  F   UNL     1       1.372   2.224  20.614  0.00  0.00    +0.000 F 
ATOM     10  F   UNL     1       0.427   4.143  20.223  0.00  0.00    +0.000 F 
ATOM     11  F   UNL     1       0.123   2.481  18.855  0.00  0.00    +0.000 F 
ENDBRANCH   4   8
BRANCH   1  13
ATOM     12  C   UNL     1       5.354   4.970  15.012  0.00  0.00    +0.000 C 
ATOM     13  C   UNL     1       5.631   4.546  16.443  0.00  0.00    +0.000 C 
ATOM     14  N   UNL     1       6.826   4.371  16.929  0.00  0.00    +0.000 NA
BRANCH  14  15
ATOM     15  O   UNL     1       7.826   4.649  15.994  0.00  0.00    +0.000 OA
ATOM     16  H   UNL     1       8.119   3.758  15.730  0.00  0.00    +0.000 HD
ENDBRANCH  14  15
ENDBRANCH   1  13
TORSDOF 3
ENDMDL
MODEL 7
REMARK VINA RESULT:      -6.7      4.927      5.872
REMARK  Name = 
REMARK  4 active torsions:
REMARK  status: ('A' for Active; 'I' for Inactive)
REMARK    1  A    between atoms: C_1  and  C_2
REMARK    2  A    between atoms: C_2  and  C_5
REMARK    3  A    between atoms: N_3  and  O_4
REMARK    4  A    between atoms: C_8  and  C_9
REMARK                            x       y       z     vdW  Elec       q    Type
REMARK                         _______ _______ _______ _____ _____    ______ ____
ROOT
ATOM      1  C   UNL     1       4.358   4.983  17.367  0.00  0.00    +0.000 A 
ATOM      2  N   UNL     1       4.357   3.618  17.463  0.00  0.00    +0.000 NA
ATOM      3  C   UNL     1       3.335   3.032  18.127  0.00  0.00    +0.000 A 
ATOM      4  C   UNL     1       2.289   3.735  18.703  0.00  0.00    +0.000 A 
ATOM      5  C   UNL     1       2.311   5.130  18.593  0.00  0.00    +0.000 A 
ATOM      6  C   UNL     1       3.353   5.776  17.918  0.00  0.00    +0.000 A 
ATOM      7 CL   UNL     1       3.243   7.489  17.770  0.00  0.00    +0.000 Cl
ENDROOT
BRANCH   4   8
ATOM      8  C   UNL     1       1.171   3.023  19.401  0.00  0.00    +0.000 C 
ATOM      9  F   UNL     1       0.381   3.846  20.144  0.00  0.00    +0.000 F 
ATOM     10  F   UNL     1       0.340   2.385  18.534  0.00  0.00    +0.000 F 
ATOM     11  F   UNL     1       1.625   2.069  20.258  0.00  0.00    +0.000 F 
ENDBRANCH   4   8
BRANCH   1  13
ATOM     12  C   UNL     1       5.516   5.311  15.113  0.00  0.00    +0.000 C 
ATOM     13  C   UNL     1       5.533   5.529  16.616  0.00  0.00    +0.000 C 
ATOM     14  N   UNL     1       6.507   6.113  17.252  0.00  0.00    +0.000 NA
BRANCH  14  15
ATOM     15  O   UNL     1       7.520   6.545  16.393  0.00  0.00    +0.000 OA
ATOM     16  H   UNL     1       7.908   5.704  16.088  0.00  0.00    +0.000 HD
ENDBRANCH  14  15
ENDBRANCH   1  13
TORSDOF 3
ENDMDL
MODEL 8
REMARK VINA RESULT:      -6.7      5.220      6.294
REMARK  Name = 
REMARK  4 active torsions:
REMARK  status: ('A' for Active; 'I' for Inactive)
REMARK    1  A    between atoms: C_1  and  C_2
REMARK    2  A    between atoms: C_2  and  C_5
REMARK    3  A    between atoms: N_3  and  O_4
REMARK    4  A    between atoms: C_8  and  C_9
REMARK                            x       y       z     vdW  Elec       q    Type
REMARK                         _______ _______ _______ _____ _____    ______ ____
ROOT
ATOM      1  C   UNL     1       4.643   4.219  18.105  0.00  0.00    +0.000 A 
ATOM      2  N   UNL     1       4.383   3.001  18.669  0.00  0.00    +0.000 NA
ATOM      3  C   UNL     1       3.231   2.858  19.363  0.00  0.00    +0.000 A 
ATOM      4  C   UNL     1       2.301   3.872  19.524  0.00  0.00    +0.000 A 
ATOM      5  C   UNL     1       2.587   5.111  18.939  0.00  0.00    +0.000 A 
ATOM      6  C   UNL     1       3.771   5.301  18.216  0.00  0.00    +0.000 A 
ATOM      7 CL   UNL     1       3.990   6.838  17.470  0.00  0.00    +0.000 Cl
ENDROOT
BRANCH   4   8
ATOM      8  C   UNL     1       1.029   3.641  20.281  0.00  0.00    +0.000 C 
ATOM      9  F   UNL     1       0.131   2.866  19.613  0.00  0.00    +0.000 F 
ATOM     10  F   UNL     1       1.240   3.028  21.476  0.00  0.00    +0.000 F 
ATOM     11  F   UNL     1       0.382   4.804  20.563  0.00  0.00    +0.000 F 
ENDBRANCH   4   8
BRANCH   1  13
ATOM     12  C   UNL     1       5.844   4.182  15.850  0.00  0.00    +0.000 C 
ATOM     13  C   UNL     1       5.944   4.271  17.362  0.00  0.00    +0.000 C 
ATOM     14  N   UNL     1       7.069   4.346  18.012  0.00  0.00    +0.000 NA
BRANCH  14  15
ATOM     15  O   UNL     1       8.175   4.368  17.159  0.00  0.00    +0.000 OA
ATOM     16  H   UNL     1       8.468   5.296  17.219  0.00  0.00    +0.000 HD
ENDBRANCH  14  15
ENDBRANCH   1  13
TORSDOF 3
ENDMDL
MODEL 9
REMARK VINA RESULT:      -6.6      5.290      6.273
REMARK  Name = 
REMARK  4 active torsions:
REMARK  status: ('A' for Active; 'I' for Inactive)
REMARK    1  A    between atoms: C_1  and  C_2
REMARK    2  A    between atoms: C_2  and  C_5
REMARK    3  A    between atoms: N_3  and  O_4
REMARK    4  A    between atoms: C_8  and  C_9
REMARK                            x       y       z     vdW  Elec       q    Type
REMARK                         _______ _______ _______ _____ _____    ______ ____
ROOT
ATOM      1  C   UNL     1       5.098   4.936  18.398  0.00  0.00    +0.000 A 
ATOM      2  N   UNL     1       5.239   3.728  19.022  0.00  0.00    +0.000 NA
ATOM      3  C   UNL     1       4.208   3.280  19.774  0.00  0.00    +0.000 A 
ATOM      4  C   UNL     1       3.019   3.971  19.936  0.00  0.00    +0.000 A 
ATOM      5  C   UNL     1       2.896   5.207  19.288  0.00  0.00    +0.000 A 
ATOM      6  C   UNL     1       3.941   5.707  18.505  0.00  0.00    +0.000 A 
ATOM      7 CL   UNL     1       3.659   7.197  17.687  0.00  0.00    +0.000 Cl
ENDROOT
BRANCH   4   8
ATOM      8  C   UNL     1       1.902   3.406  20.760  0.00  0.00    +0.000 C 
ATOM      9  F   UNL     1       1.644   2.096  20.501  0.00  0.00    +0.000 F 
ATOM     10  F   UNL     1       2.150   3.485  22.095  0.00  0.00    +0.000 F 
ATOM     11  F   UNL     1       0.730   4.066  20.556  0.00  0.00    +0.000 F 
ENDBRANCH   4   8
BRANCH   1  13
ATOM     12  C   UNL     1       7.465   5.898  18.386  0.00  0.00    +0.000 C 
ATOM     13  C   UNL     1       6.297   5.339  17.594  0.00  0.00    +0.000 C 
ATOM     14  N   UNL     1       6.282   5.239  16.296  0.00  0.00    +0.000 NA
BRANCH  14  15
ATOM     15  O   UNL     1       7.475   5.674  15.716  0.00  0.00    +0.000 OA
ATOM     16  H   UNL     1       7.784   6.347  16.350  0.00  0.00    +0.000 HD
ENDBRANCH  14  15
ENDBRANCH   1  13
TORSDOF 3
ENDMDL
