MODEL 1
REMARK VINA RESULT:      -8.7      0.000      0.000
REMARK  Name = 
REMARK  5 active torsions:
REMARK  status: ('A' for Active; 'I' for Inactive)
REMARK    1  A    between atoms: N_3  and  C_4
REMARK    2  A    between atoms: N_10  and  C_11
REMARK    3  A    between atoms: C_15  and  C_16
REMARK    4  A    between atoms: C_16  and  C_18
REMARK    5  A    between atoms: C_19  and  C_20
REMARK                            x       y       z     vdW  Elec       q    Type
REMARK                         _______ _______ _______ _____ _____    ______ ____
ROOT
ATOM      1  C   UNL     1       6.537   6.723  17.017  0.00  0.00    +0.000 A 
ATOM      2  C   UNL     1       7.067   5.695  16.228  0.00  0.00    +0.000 A 
ATOM      3  C   UNL     1       6.560   4.398  16.288  0.00  0.00    +0.000 A 
ATOM      4  C   UNL     1       5.495   4.111  17.131  0.00  0.00    +0.000 A 
ATOM      5  C   UNL     1       4.909   5.131  17.889  0.00  0.00    +0.000 A 
ATOM      6  C   UNL     1       5.432   6.437  17.833  0.00  0.00    +0.000 A 
ENDROOT
BRANCH   1  10
ATOM      7  O   UNL     1       8.592   7.733  18.771  0.00  0.00    +0.000 OA
ATOM      8  C   UNL     1       8.069   8.460  17.933  0.00  0.00    +0.000 C 
ATOM      9  N   UNL     1       8.356   9.811  17.799  0.00  0.00    +0.000 N 
ATOM     10  N   UNL     1       7.089   8.031  17.044  0.00  0.00    +0.000 N 
ATOM     11  H   UNL     1       7.711  10.373  17.267  0.00  0.00    +0.000 HD
ATOM     12  H   UNL     1       6.635   8.731  16.477  0.00  0.00    +0.000 HD
BRANCH   9  13
ATOM     13  C   UNL     1       9.318  10.514  18.574  0.00  0.00    +0.000 A 
ATOM     14  C   UNL     1       9.191  10.713  19.954  0.00  0.00    +0.000 A 
ATOM     15  C   UNL     1      10.136  11.453  20.667  0.00  0.00    +0.000 A 
ATOM     16  C   UNL     1      11.234  11.993  20.012  0.00  0.00    +0.000 A 
ATOM     17  C   UNL     1      11.392  11.780  18.644  0.00  0.00    +0.000 A 
ATOM     18  C   UNL     1      10.443  11.038  17.928  0.00  0.00    +0.000 A 
ENDBRANCH   9  13
ENDBRANCH   1  10
BRANCH   5  19
ATOM     19  C   UNL     1       3.773   4.829  18.808  0.00  0.00    +0.000 C 
ATOM     20  O   UNL     1       3.421   3.674  19.010  0.00  0.00    +0.000 OA
BRANCH  19  21
ATOM     21  C   UNL     1       3.113   5.992  19.469  0.00  0.00    +0.000 C 
ATOM     22  C   UNL     1       2.391   6.877  18.768  0.00  0.00    +0.000 C 
BRANCH  22  23
ATOM     23  C   UNL     1       1.807   8.048  19.428  0.00  0.00    +0.000 A 
ATOM     24  C   UNL     1       1.508   8.003  20.797  0.00  0.00    +0.000 A 
ATOM     25  C   UNL     1       0.910   9.098  21.428  0.00  0.00    +0.000 A 
ATOM     26  C   UNL     1       0.607  10.241  20.689  0.00  0.00    +0.000 A 
ATOM     27 CL   UNL     1      -0.135  11.588  21.459  0.00  0.00    +0.000 Cl
ATOM     28  C   UNL     1       0.900  10.295  19.328  0.00  0.00    +0.000 A 
ATOM     29  C   UNL     1       1.497   9.198  18.697  0.00  0.00    +0.000 A 
ENDBRANCH  22  23
ENDBRANCH  19  21
ENDBRANCH   5  19
TORSDOF 5
ENDMDL
MODEL 2
REMARK VINA RESULT:      -8.7      0.696      1.189
REMARK  Name = 
REMARK  5 active torsions:
REMARK  status: ('A' for Active; 'I' for Inactive)
REMARK    1  A    between atoms: N_3  and  C_4
REMARK    2  A    between atoms: N_10  and  C_11
REMARK    3  A    between atoms: C_15  and  C_16
REMARK    4  A    between atoms: C_16  and  C_18
REMARK    5  A    between atoms: C_19  and  C_20
REMARK                            x       y       z     vdW  Elec       q    Type
REMARK                         _______ _______ _______ _____ _____    ______ ____
ROOT
ATOM      1  C   UNL     1       6.596   6.979  17.031  0.00  0.00    +0.000 A 
ATOM      2  C   UNL     1       7.282   5.809  16.683  0.00  0.00    +0.000 A 
ATOM      3  C   UNL     1       6.671   4.559  16.756  0.00  0.00    +0.000 A 
ATOM      4  C   UNL     1       5.348   4.460  17.165  0.00  0.00    +0.000 A 
ATOM      5  C   UNL     1       4.620   5.617  17.465  0.00  0.00    +0.000 A 
ATOM      6  C   UNL     1       5.246   6.877  17.399  0.00  0.00    +0.000 A 
ENDROOT
BRANCH   1  10
ATOM      7  O   UNL     1       8.602   7.932  18.873  0.00  0.00    +0.000 OA
ATOM      8  C   UNL     1       8.168   8.659  17.984  0.00  0.00    +0.000 C 
ATOM      9  N   UNL     1       8.538   9.987  17.828  0.00  0.00    +0.000 N 
ATOM     10  N   UNL     1       7.218   8.256  17.053  0.00  0.00    +0.000 N 
ATOM     11  H   UNL     1       7.957  10.566  17.243  0.00  0.00    +0.000 HD
ATOM     12  H   UNL     1       6.836   8.960  16.440  0.00  0.00    +0.000 HD
BRANCH   9  13
ATOM     13  C   UNL     1       9.492  10.661  18.637  0.00  0.00    +0.000 A 
ATOM     14  C   UNL     1       9.306  10.896  20.005  0.00  0.00    +0.000 A 
ATOM     15  C   UNL     1      10.249  11.606  20.751  0.00  0.00    +0.000 A 
ATOM     16  C   UNL     1      11.402  12.081  20.142  0.00  0.00    +0.000 A 
ATOM     17  C   UNL     1      11.617  11.832  18.788  0.00  0.00    +0.000 A 
ATOM     18  C   UNL     1      10.671  11.119  18.039  0.00  0.00    +0.000 A 
ENDBRANCH   9  13
ENDBRANCH   1  10
BRANCH   5  19
ATOM     19  C   UNL     1       3.202   5.519  17.917  0.00  0.00    +0.000 C 
ATOM     20  O   UNL     1       2.526   4.533  17.651  0.00  0.00    +0.000 OA
BRANCH  19  21
ATOM     21  C   UNL     1       2.669   6.661  18.715  0.00  0.00    +0.000 C 
ATOM     22  C   UNL     1       1.982   7.656  18.138  0.00  0.00    +0.000 C 
BRANCH  22  23
ATOM     23  C   UNL     1       1.524   8.800  18.931  0.00  0.00    +0.000 A 
ATOM     24  C   UNL     1       1.428  10.068  18.341  0.00  0.00    +0.000 A 
ATOM     25  C   UNL     1       1.034  11.175  19.099  0.00  0.00    +0.000 A 
ATOM     26  C   UNL     1       0.741  11.017  20.453  0.00  0.00    +0.000 A 
ATOM     27 CL   UNL     1       0.263  12.376  21.392  0.00  0.00    +0.000 Cl
ATOM     28  C   UNL     1       0.835   9.760  21.049  0.00  0.00    +0.000 A 
ATOM     29  C   UNL     1       1.229   8.654  20.290  0.00  0.00    +0.000 A 
ENDBRANCH  22  23
ENDBRANCH  19  21
ENDBRANCH   5  19
TORSDOF 5
ENDMDL
MODEL 3
REMARK VINA RESULT:      -8.7      1.062      1.664
REMARK  Name = 
REMARK  5 active torsions:
REMARK  status: ('A' for Active; 'I' for Inactive)
REMARK    1  A    between atoms: N_3  and  C_4
REMARK    2  A    between atoms: N_10  and  C_11
REMARK    3  A    between atoms: C_15  and  C_16
REMARK    4  A    between atoms: C_16  and  C_18
REMARK    5  A    between atoms: C_19  and  C_20
REMARK                            x       y       z     vdW  Elec       q    Type
REMARK                         _______ _______ _______ _____ _____    ______ ____
ROOT
ATOM      1  C   UNL     1       6.959   6.085  17.472  0.00  0.00    +0.000 A 
ATOM      2  C   UNL     1       7.397   5.466  16.295  0.00  0.00    +0.000 A 
ATOM      3  C   UNL     1       6.562   4.620  15.566  0.00  0.00    +0.000 A 
ATOM      4  C   UNL     1       5.262   4.394  15.995  0.00  0.00    +0.000 A 
ATOM      5  C   UNL     1       4.779   5.045  17.137  0.00  0.00    +0.000 A 
ATOM      6  C   UNL     1       5.630   5.890  17.876  0.00  0.00    +0.000 A 
ENDROOT
BRANCH   1  10
ATOM      7  O   UNL     1       7.375   8.936  17.328  0.00  0.00    +0.000 OA
ATOM      8  C   UNL     1       7.981   8.254  18.148  0.00  0.00    +0.000 C 
ATOM      9  N   UNL     1       8.944   8.760  19.009  0.00  0.00    +0.000 N 
ATOM     10  N   UNL     1       7.812   6.880  18.283  0.00  0.00    +0.000 N 
ATOM     11  H   UNL     1       9.557   8.100  19.461  0.00  0.00    +0.000 HD
ATOM     12  H   UNL     1       8.443   6.391  18.900  0.00  0.00    +0.000 HD
BRANCH   9  13
ATOM     13  C   UNL     1       9.319  10.128  19.088  0.00  0.00    +0.000 A 
ATOM     14  C   UNL     1       9.681  10.889  17.970  0.00  0.00    +0.000 A 
ATOM     15  C   UNL     1      10.090  12.217  18.100  0.00  0.00    +0.000 A 
ATOM     16  C   UNL     1      10.127  12.812  19.354  0.00  0.00    +0.000 A 
ATOM     17  C   UNL     1       9.743  12.080  20.475  0.00  0.00    +0.000 A 
ATOM     18  C   UNL     1       9.332  10.746  20.344  0.00  0.00    +0.000 A 
ENDBRANCH   9  13
ENDBRANCH   1  10
BRANCH   5  19
ATOM     19  C   UNL     1       3.388   4.797  17.613  0.00  0.00    +0.000 C 
ATOM     20  O   UNL     1       2.811   3.750  17.346  0.00  0.00    +0.000 OA
BRANCH  19  21
ATOM     21  C   UNL     1       2.756   5.870  18.435  0.00  0.00    +0.000 C 
ATOM     22  C   UNL     1       2.427   7.055  17.903  0.00  0.00    +0.000 C 
BRANCH  22  23
ATOM     23  C   UNL     1       1.867   8.117  18.744  0.00  0.00    +0.000 A 
ATOM     24  C   UNL     1       1.539   9.357  18.180  0.00  0.00    +0.000 A 
ATOM     25  C   UNL     1       1.045  10.392  18.980  0.00  0.00    +0.000 A 
ATOM     26  C   UNL     1       0.883  10.188  20.350  0.00  0.00    +0.000 A 
ATOM     27 CL   UNL     1       0.283  11.460  21.341  0.00  0.00    +0.000 Cl
ATOM     28  C   UNL     1       1.209   8.959  20.921  0.00  0.00    +0.000 A 
ATOM     29  C   UNL     1       1.703   7.925  20.119  0.00  0.00    +0.000 A 
ENDBRANCH  22  23
ENDBRANCH  19  21
ENDBRANCH   5  19
TORSDOF 5
ENDMDL
MODEL 4
REMARK VINA RESULT:      -8.6      0.650      1.187
REMARK  Name = 
REMARK  5 active torsions:
REMARK  status: ('A' for Active; 'I' for Inactive)
REMARK    1  A    between atoms: N_3  and  C_4
REMARK    2  A    between atoms: N_10  and  C_11
REMARK    3  A    between atoms: C_15  and  C_16
REMARK    4  A    between atoms: C_16  and  C_18
REMARK    5  A    between atoms: C_19  and  C_20
REMARK                            x       y       z     vdW  Elec       q    Type
REMARK                         _______ _______ _______ _____ _____    ______ ____
ROOT
ATOM      1  C   UNL     1       6.524   6.995  17.091  0.00  0.00    +0.000 A 
ATOM      2  C   UNL     1       7.130   5.808  16.659  0.00  0.00    +0.000 A 
ATOM      3  C   UNL     1       6.495   4.576  16.800  0.00  0.00    +0.000 A 
ATOM      4  C   UNL     1       5.228   4.511  17.362  0.00  0.00    +0.000 A 
ATOM      5  C   UNL     1       4.574   5.687  17.750  0.00  0.00    +0.000 A 
ATOM      6  C   UNL     1       5.224   6.929  17.616  0.00  0.00    +0.000 A 
ENDROOT
BRANCH   1  10
ATOM      7  O   UNL     1       8.588   7.974  18.852  0.00  0.00    +0.000 OA
ATOM      8  C   UNL     1       8.158   8.672  17.938  0.00  0.00    +0.000 C 
ATOM      9  N   UNL     1       8.561   9.981  17.715  0.00  0.00    +0.000 N 
ATOM     10  N   UNL     1       7.180   8.253  17.042  0.00  0.00    +0.000 N 
ATOM     11  H   UNL     1       7.984  10.549  17.114  0.00  0.00    +0.000 HD
ATOM     12  H   UNL     1       6.807   8.940  16.405  0.00  0.00    +0.000 HD
BRANCH   9  13
ATOM     13  C   UNL     1       9.547  10.665  18.476  0.00  0.00    +0.000 A 
ATOM     14  C   UNL     1      10.721  11.184  17.916  0.00  0.00    +0.000 A 
ATOM     15  C   UNL     1      11.687  11.805  18.710  0.00  0.00    +0.000 A 
ATOM     16  C   UNL     1      11.485  11.931  20.078  0.00  0.00    +0.000 A 
ATOM     17  C   UNL     1      10.310  11.446  20.648  0.00  0.00    +0.000 A 
ATOM     18  C   UNL     1       9.341  10.822  19.851  0.00  0.00    +0.000 A 
ENDBRANCH   9  13
ENDBRANCH   1  10
BRANCH   5  19
ATOM     19  C   UNL     1       3.218   5.625  18.368  0.00  0.00    +0.000 C 
ATOM     20  O   UNL     1       2.628   4.558  18.478  0.00  0.00    +0.000 OA
BRANCH  19  21
ATOM     21  C   UNL     1       2.639   6.912  18.852  0.00  0.00    +0.000 C 
ATOM     22  C   UNL     1       1.998   6.992  20.026  0.00  0.00    +0.000 C 
BRANCH  22  23
ATOM     23  C   UNL     1       1.380   8.251  20.450  0.00  0.00    +0.000 A 
ATOM     24  C   UNL     1       1.090   8.467  21.805  0.00  0.00    +0.000 A 
ATOM     25  C   UNL     1       0.462   9.646  22.216  0.00  0.00    +0.000 A 
ATOM     26  C   UNL     1       0.116  10.611  21.270  0.00  0.00    +0.000 A 
ATOM     27 CL   UNL     1      -0.664  12.061  21.769  0.00  0.00    +0.000 Cl
ATOM     28  C   UNL     1       0.398  10.404  19.921  0.00  0.00    +0.000 A 
ATOM     29  C   UNL     1       1.027   9.224  19.511  0.00  0.00    +0.000 A 
ENDBRANCH  22  23
ENDBRANCH  19  21
ENDBRANCH   5  19
TORSDOF 5
ENDMDL
MODEL 5
REMARK VINA RESULT:      -8.5      1.146      1.174
REMARK  Name = 
REMARK  5 active torsions:
REMARK  status: ('A' for Active; 'I' for Inactive)
REMARK    1  A    between atoms: N_3  and  C_4
REMARK    2  A    between atoms: N_10  and  C_11
REMARK    3  A    between atoms: C_15  and  C_16
REMARK    4  A    between atoms: C_16  and  C_18
REMARK    5  A    between atoms: C_19  and  C_20
REMARK                            x       y       z     vdW  Elec       q    Type
REMARK                         _______ _______ _______ _____ _____    ______ ____
ROOT
ATOM      1  C   UNL     1       6.923   6.062  17.375  0.00  0.00    +0.000 A 
ATOM      2  C   UNL     1       7.300   5.578  16.117  0.00  0.00    +0.000 A 
ATOM      3  C   UNL     1       6.457   4.755  15.373  0.00  0.00    +0.000 A 
ATOM      4  C   UNL     1       5.207   4.415  15.871  0.00  0.00    +0.000 A 
ATOM      5  C   UNL     1       4.781   4.930  17.101  0.00  0.00    +0.000 A 
ATOM      6  C   UNL     1       5.640   5.753  17.854  0.00  0.00    +0.000 A 
ENDROOT
BRANCH   1  10
ATOM      7  O   UNL     1       7.301   8.922  17.352  0.00  0.00    +0.000 OA
ATOM      8  C   UNL     1       7.942   8.210  18.119  0.00  0.00    +0.000 C 
ATOM      9  N   UNL     1       8.927   8.688  18.971  0.00  0.00    +0.000 N 
ATOM     10  N   UNL     1       7.793   6.829  18.195  0.00  0.00    +0.000 N 
ATOM     11  H   UNL     1       9.562   8.016  19.371  0.00  0.00    +0.000 HD
ATOM     12  H   UNL     1       8.449   6.320  18.767  0.00  0.00    +0.000 HD
BRANCH   9  13
ATOM     13  C   UNL     1       9.288  10.056  19.103  0.00  0.00    +0.000 A 
ATOM     14  C   UNL     1       9.295  10.731  20.329  0.00  0.00    +0.000 A 
ATOM     15  C   UNL     1       9.609  12.089  20.405  0.00  0.00    +0.000 A 
ATOM     16  C   UNL     1       9.938  12.791  19.253  0.00  0.00    +0.000 A 
ATOM     17  C   UNL     1       9.966  12.129  18.028  0.00  0.00    +0.000 A 
ATOM     18  C   UNL     1       9.650  10.766  17.952  0.00  0.00    +0.000 A 
ENDBRANCH   9  13
ENDBRANCH   1  10
BRANCH   5  19
ATOM     19  C   UNL     1       3.445   4.559  17.650  0.00  0.00    +0.000 C 
ATOM     20  O   UNL     1       3.123   3.384  17.776  0.00  0.00    +0.000 OA
BRANCH  19  21
ATOM     21  C   UNL     1       2.544   5.680  18.047  0.00  0.00    +0.000 C 
ATOM     22  C   UNL     1       3.027   6.897  18.332  0.00  0.00    +0.000 C 
BRANCH  22  23
ATOM     23  C   UNL     1       2.130   7.965  18.783  0.00  0.00    +0.000 A 
ATOM     24  C   UNL     1       1.758   8.043  20.132  0.00  0.00    +0.000 A 
ATOM     25  C   UNL     1       0.869   9.031  20.566  0.00  0.00    +0.000 A 
ATOM     26  C   UNL     1       0.346   9.942  19.649  0.00  0.00    +0.000 A 
ATOM     27 CL   UNL     1      -0.754  11.155  20.175  0.00  0.00    +0.000 Cl
ATOM     28  C   UNL     1       0.709   9.871  18.305  0.00  0.00    +0.000 A 
ATOM     29  C   UNL     1       1.598   8.882  17.871  0.00  0.00    +0.000 A 
ENDBRANCH  22  23
ENDBRANCH  19  21
ENDBRANCH   5  19
TORSDOF 5
ENDMDL
MODEL 6
REMARK VINA RESULT:      -8.5      3.103      7.429
REMARK  Name = 
REMARK  5 active torsions:
REMARK  status: ('A' for Active; 'I' for Inactive)
REMARK    1  A    between atoms: N_3  and  C_4
REMARK    2  A    between atoms: N_10  and  C_11
REMARK    3  A    between atoms: C_15  and  C_16
REMARK    4  A    between atoms: C_16  and  C_18
REMARK    5  A    between atoms: C_19  and  C_20
REMARK                            x       y       z     vdW  Elec       q    Type
REMARK                         _______ _______ _______ _____ _____    ______ ____
ROOT
ATOM      1  C   UNL     1       3.752   5.398  19.030  0.00  0.00    +0.000 A 
ATOM      2  C   UNL     1       3.245   4.715  17.918  0.00  0.00    +0.000 A 
ATOM      3  C   UNL     1       4.081   4.270  16.896  0.00  0.00    +0.000 A 
ATOM      4  C   UNL     1       5.450   4.485  16.979  0.00  0.00    +0.000 A 
ATOM      5  C   UNL     1       5.991   5.114  18.107  0.00  0.00    +0.000 A 
ATOM      6  C   UNL     1       5.141   5.572  19.131  0.00  0.00    +0.000 A 
ENDROOT
BRANCH   1  10
ATOM      7  O   UNL     1       2.324   7.903  18.979  0.00  0.00    +0.000 OA
ATOM      8  C   UNL     1       2.271   7.170  19.961  0.00  0.00    +0.000 C 
ATOM      9  N   UNL     1       1.598   7.498  21.130  0.00  0.00    +0.000 N 
ATOM     10  N   UNL     1       2.918   5.942  20.043  0.00  0.00    +0.000 N 
ATOM     11  H   UNL     1       1.813   6.962  21.956  0.00  0.00    +0.000 HD
ATOM     12  H   UNL     1       2.914   5.471  20.934  0.00  0.00    +0.000 HD
BRANCH   9  13
ATOM     13  C   UNL     1       0.849   8.689  21.325  0.00  0.00    +0.000 A 
ATOM     14  C   UNL     1       0.565   9.215  22.591  0.00  0.00    +0.000 A 
ATOM     15  C   UNL     1      -0.216  10.363  22.739  0.00  0.00    +0.000 A 
ATOM     16  C   UNL     1      -0.715  11.012  21.617  0.00  0.00    +0.000 A 
ATOM     17  C   UNL     1      -0.418  10.520  20.348  0.00  0.00    +0.000 A 
ATOM     18  C   UNL     1       0.366   9.368  20.201  0.00  0.00    +0.000 A 
ENDBRANCH   9  13
ENDBRANCH   1  10
BRANCH   5  19
ATOM     19  C   UNL     1       7.459   5.362  18.198  0.00  0.00    +0.000 C 
ATOM     20  O   UNL     1       8.262   4.473  17.941  0.00  0.00    +0.000 OA
BRANCH  19  21
ATOM     21  C   UNL     1       7.887   6.734  18.598  0.00  0.00    +0.000 C 
ATOM     22  C   UNL     1       7.798   7.768  17.751  0.00  0.00    +0.000 C 
BRANCH  22  23
ATOM     23  C   UNL     1       8.286   9.093  18.142  0.00  0.00    +0.000 A 
ATOM     24  C   UNL     1       7.979  10.213  17.357  0.00  0.00    +0.000 A 
ATOM     25  C   UNL     1       8.475  11.475  17.697  0.00  0.00    +0.000 A 
ATOM     26  C   UNL     1       9.285  11.619  18.823  0.00  0.00    +0.000 A 
ATOM     27 CL   UNL     1       9.904  13.168  19.242  0.00  0.00    +0.000 Cl
ATOM     28  C   UNL     1       9.597  10.511  19.610  0.00  0.00    +0.000 A 
ATOM     29  C   UNL     1       9.101   9.249  19.268  0.00  0.00    +0.000 A 
ENDBRANCH  22  23
ENDBRANCH  19  21
ENDBRANCH   5  19
TORSDOF 5
ENDMDL
MODEL 7
REMARK VINA RESULT:      -8.4      3.020      7.572
REMARK  Name = 
REMARK  5 active torsions:
REMARK  status: ('A' for Active; 'I' for Inactive)
REMARK    1  A    between atoms: N_3  and  C_4
REMARK    2  A    between atoms: N_10  and  C_11
REMARK    3  A    between atoms: C_15  and  C_16
REMARK    4  A    between atoms: C_16  and  C_18
REMARK    5  A    between atoms: C_19  and  C_20
REMARK                            x       y       z     vdW  Elec       q    Type
REMARK                         _______ _______ _______ _____ _____    ______ ____
ROOT
ATOM      1  C   UNL     1       3.821   5.639  18.911  0.00  0.00    +0.000 A 
ATOM      2  C   UNL     1       3.346   4.546  18.176  0.00  0.00    +0.000 A 
ATOM      3  C   UNL     1       4.039   4.060  17.069  0.00  0.00    +0.000 A 
ATOM      4  C   UNL     1       5.235   4.651  16.688  0.00  0.00    +0.000 A 
ATOM      5  C   UNL     1       5.763   5.709  17.439  0.00  0.00    +0.000 A 
ATOM      6  C   UNL     1       5.053   6.203  18.550  0.00  0.00    +0.000 A 
ENDROOT
BRANCH   1  10
ATOM      7  O   UNL     1       2.039   7.906  18.825  0.00  0.00    +0.000 OA
ATOM      8  C   UNL     1       2.263   7.323  19.882  0.00  0.00    +0.000 C 
ATOM      9  N   UNL     1       1.752   7.727  21.107  0.00  0.00    +0.000 N 
ATOM     10  N   UNL     1       3.094   6.213  19.988  0.00  0.00    +0.000 N 
ATOM     11  H   UNL     1       2.182   7.350  21.937  0.00  0.00    +0.000 HD
ATOM     12  H   UNL     1       3.311   5.880  20.915  0.00  0.00    +0.000 HD
BRANCH   9  13
ATOM     13  C   UNL     1       0.875   8.828  21.293  0.00  0.00    +0.000 A 
ATOM     14  C   UNL     1       0.460   9.662  20.247  0.00  0.00    +0.000 A 
ATOM     15  C   UNL     1      -0.365  10.764  20.485  0.00  0.00    +0.000 A 
ATOM     16  C   UNL     1      -0.802  11.039  21.773  0.00  0.00    +0.000 A 
ATOM     17  C   UNL     1      -0.423  10.204  22.822  0.00  0.00    +0.000 A 
ATOM     18  C   UNL     1       0.405   9.099  22.584  0.00  0.00    +0.000 A 
ENDBRANCH   9  13
ENDBRANCH   1  10
BRANCH   5  19
ATOM     19  C   UNL     1       7.041   6.359  17.028  0.00  0.00    +0.000 C 
ATOM     20  O   UNL     1       7.654   5.969  16.043  0.00  0.00    +0.000 OA
BRANCH  19  21
ATOM     21  C   UNL     1       7.512   7.504  17.861  0.00  0.00    +0.000 C 
ATOM     22  C   UNL     1       7.952   8.640  17.303  0.00  0.00    +0.000 C 
BRANCH  22  23
ATOM     23  C   UNL     1       8.472   9.725  18.139  0.00  0.00    +0.000 A 
ATOM     24  C   UNL     1       8.435  11.046  17.673  0.00  0.00    +0.000 A 
ATOM     25  C   UNL     1       8.968  12.085  18.444  0.00  0.00    +0.000 A 
ATOM     26  C   UNL     1       9.543  11.802  19.682  0.00  0.00    +0.000 A 
ATOM     27 CL   UNL     1      10.206  13.074  20.631  0.00  0.00    +0.000 Cl
ATOM     28  C   UNL     1       9.586  10.490  20.153  0.00  0.00    +0.000 A 
ATOM     29  C   UNL     1       9.054   9.452  19.381  0.00  0.00    +0.000 A 
ENDBRANCH  22  23
ENDBRANCH  19  21
ENDBRANCH   5  19
TORSDOF 5
ENDMDL
MODEL 8
REMARK VINA RESULT:      -8.4      1.017      1.392
REMARK  Name = 
REMARK  5 active torsions:
REMARK  status: ('A' for Active; 'I' for Inactive)
REMARK    1  A    between atoms: N_3  and  C_4
REMARK    2  A    between atoms: N_10  and  C_11
REMARK    3  A    between atoms: C_15  and  C_16
REMARK    4  A    between atoms: C_16  and  C_18
REMARK    5  A    between atoms: C_19  and  C_20
REMARK                            x       y       z     vdW  Elec       q    Type
REMARK                         _______ _______ _______ _____ _____    ______ ____
ROOT
ATOM      1  C   UNL     1       7.024   6.205  17.553  0.00  0.00    +0.000 A 
ATOM      2  C   UNL     1       7.430   5.468  16.434  0.00  0.00    +0.000 A 
ATOM      3  C   UNL     1       6.543   4.640  15.749  0.00  0.00    +0.000 A 
ATOM      4  C   UNL     1       5.222   4.549  16.165  0.00  0.00    +0.000 A 
ATOM      5  C   UNL     1       4.774   5.318  17.246  0.00  0.00    +0.000 A 
ATOM      6  C   UNL     1       5.677   6.145  17.941  0.00  0.00    +0.000 A 
ENDROOT
BRANCH   1  10
ATOM      7  O   UNL     1       7.328   9.074  17.534  0.00  0.00    +0.000 OA
ATOM      8  C   UNL     1       8.033   8.372  18.252  0.00  0.00    +0.000 C 
ATOM      9  N   UNL     1       9.058   8.870  19.045  0.00  0.00    +0.000 N 
ATOM     10  N   UNL     1       7.925   6.988  18.324  0.00  0.00    +0.000 N 
ATOM     11  H   UNL     1       9.733   8.211  19.399  0.00  0.00    +0.000 HD
ATOM     12  H   UNL     1       8.628   6.491  18.849  0.00  0.00    +0.000 HD
BRANCH   9  13
ATOM     13  C   UNL     1       9.391  10.245  19.167  0.00  0.00    +0.000 A 
ATOM     14  C   UNL     1       9.334  10.942  20.381  0.00  0.00    +0.000 A 
ATOM     15  C   UNL     1       9.623  12.306  20.445  0.00  0.00    +0.000 A 
ATOM     16  C   UNL     1       9.991  12.993  19.296  0.00  0.00    +0.000 A 
ATOM     17  C   UNL     1      10.082  12.310  18.085  0.00  0.00    +0.000 A 
ATOM     18  C   UNL     1       9.791  10.940  18.021  0.00  0.00    +0.000 A 
ENDBRANCH   9  13
ENDBRANCH   1  10
BRANCH   5  19
ATOM     19  C   UNL     1       3.360   5.215  17.707  0.00  0.00    +0.000 C 
ATOM     20  O   UNL     1       2.784   4.135  17.727  0.00  0.00    +0.000 OA
BRANCH  19  21
ATOM     21  C   UNL     1       2.703   6.478  18.152  0.00  0.00    +0.000 C 
ATOM     22  C   UNL     1       2.463   6.722  19.448  0.00  0.00    +0.000 C 
BRANCH  22  23
ATOM     23  C   UNL     1       1.757   7.940  19.857  0.00  0.00    +0.000 A 
ATOM     24  C   UNL     1       1.572   8.982  18.939  0.00  0.00    +0.000 A 
ATOM     25  C   UNL     1       0.939  10.167  19.329  0.00  0.00    +0.000 A 
ATOM     26  C   UNL     1       0.493  10.311  20.642  0.00  0.00    +0.000 A 
ATOM     27 CL   UNL     1      -0.280  11.768  21.129  0.00  0.00    +0.000 Cl
ATOM     28  C   UNL     1       0.674   9.281  21.563  0.00  0.00    +0.000 A 
ATOM     29  C   UNL     1       1.308   8.097  21.171  0.00  0.00    +0.000 A 
ENDBRANCH  22  23
ENDBRANCH  19  21
ENDBRANCH   5  19
TORSDOF 5
ENDMDL
MODEL 9
REMARK VINA RESULT:      -8.4      1.096      1.447
REMARK  Name = 
REMARK  5 active torsions:
REMARK  status: ('A' for Active; 'I' for Inactive)
REMARK    1  A    between atoms: N_3  and  C_4
REMARK    2  A    between atoms: N_10  and  C_11
REMARK    3  A    between atoms: C_15  and  C_16
REMARK    4  A    between atoms: C_16  and  C_18
REMARK    5  A    between atoms: C_19  and  C_20
REMARK                            x       y       z     vdW  Elec       q    Type
REMARK                         _______ _______ _______ _____ _____    ______ ____
ROOT
ATOM      1  C   UNL     1       6.961   6.355  17.526  0.00  0.00    +0.000 A 
ATOM      2  C   UNL     1       7.334   5.623  16.391  0.00  0.00    +0.000 A 
ATOM      3  C   UNL     1       6.420   4.820  15.713  0.00  0.00    +0.000 A 
ATOM      4  C   UNL     1       5.104   4.749  16.149  0.00  0.00    +0.000 A 
ATOM      5  C   UNL     1       4.689   5.515  17.246  0.00  0.00    +0.000 A 
ATOM      6  C   UNL     1       5.620   6.316  17.935  0.00  0.00    +0.000 A 
ENDROOT
BRANCH   1  10
ATOM      7  O   UNL     1       7.352   9.213  17.499  0.00  0.00    +0.000 OA
ATOM      8  C   UNL     1       8.040   8.491  18.215  0.00  0.00    +0.000 C 
ATOM      9  N   UNL     1       9.083   8.958  19.001  0.00  0.00    +0.000 N 
ATOM     10  N   UNL     1       7.889   7.111  18.290  0.00  0.00    +0.000 N 
ATOM     11  H   UNL     1       9.741   8.280  19.352  0.00  0.00    +0.000 HD
ATOM     12  H   UNL     1       8.580   6.594  18.812  0.00  0.00    +0.000 HD
BRANCH   9  13
ATOM     13  C   UNL     1       9.459  10.323  19.119  0.00  0.00    +0.000 A 
ATOM     14  C   UNL     1       9.912  11.088  18.037  0.00  0.00    +0.000 A 
ATOM     15  C   UNL     1      10.318  12.413  18.208  0.00  0.00    +0.000 A 
ATOM     16  C   UNL     1      10.263  12.999  19.465  0.00  0.00    +0.000 A 
ATOM     17  C   UNL     1       9.788  12.263  20.548  0.00  0.00    +0.000 A 
ATOM     18  C   UNL     1       9.380  10.933  20.376  0.00  0.00    +0.000 A 
ENDBRANCH   9  13
ENDBRANCH   1  10
BRANCH   5  19
ATOM     19  C   UNL     1       3.281   5.434  17.730  0.00  0.00    +0.000 C 
ATOM     20  O   UNL     1       2.591   4.452  17.490  0.00  0.00    +0.000 OA
BRANCH  19  21
ATOM     21  C   UNL     1       2.775   6.591  18.524  0.00  0.00    +0.000 C 
ATOM     22  C   UNL     1       2.167   7.631  17.936  0.00  0.00    +0.000 C 
BRANCH  22  23
ATOM     23  C   UNL     1       1.737   8.785  18.728  0.00  0.00    +0.000 A 
ATOM     24  C   UNL     1       1.326   8.609  20.057  0.00  0.00    +0.000 A 
ATOM     25  C   UNL     1       0.872   9.697  20.809  0.00  0.00    +0.000 A 
ATOM     26  C   UNL     1       0.824  10.965  20.231  0.00  0.00    +0.000 A 
ATOM     27 CL   UNL     1       0.261  12.305  21.150  0.00  0.00    +0.000 Cl
ATOM     28  C   UNL     1       1.230  11.150  18.911  0.00  0.00    +0.000 A 
ATOM     29  C   UNL     1       1.682  10.061  18.159  0.00  0.00    +0.000 A 
ENDBRANCH  22  23
ENDBRANCH  19  21
ENDBRANCH   5  19
TORSDOF 5
ENDMDL
