MODEL 1
REMARK VINA RESULT:      -7.5      0.000      0.000
REMARK  Name = 
REMARK  6 active torsions:
REMARK  status: ('A' for Active; 'I' for Inactive)
REMARK    1  A    between atoms: C_2  and  O_3
REMARK    2  A    between atoms: C_2  and  C_4
REMARK    3  A    between atoms: C_5  and  C_6
REMARK    4  A    between atoms: C_6  and  C_7
REMARK    5  A    between atoms: C_7  and  S_8
REMARK    6  A    between atoms: N_15  and  C_16
REMARK                            x       y       z     vdW  Elec       q    Type
REMARK                         _______ _______ _______ _____ _____    ______ ____
ROOT
ATOM      1  C   UNL     1       3.805   3.941  19.306  0.00  0.00    +0.000 A 
ATOM      2  C   UNL     1       2.880   4.535  20.171  0.00  0.00    +0.000 A 
ATOM      3  C   UNL     1       2.653   5.865  19.710  0.00  0.00    +0.000 A 
ATOM      4  C   UNL     1       1.825   6.914  20.171  0.00  0.00    +0.000 A 
ATOM      5  C   UNL     1       1.762   8.120  19.476  0.00  0.00    +0.000 A 
ATOM      6  C   UNL     1       2.511   8.296  18.325  0.00  0.00    +0.000 A 
ATOM      7  C   UNL     1       3.343   7.277  17.853  0.00  0.00    +0.000 A 
ATOM      8  C   UNL     1       3.442   6.065  18.576  0.00  0.00    +0.000 A 
ATOM      9  N   UNL     1       4.195   4.899  18.356  0.00  0.00    +0.000 N 
ENDROOT
BRANCH   9  10
ATOM     10  C   UNL     1       5.157   4.732  17.299  0.00  0.00    +0.000 A 
ATOM     11  C   UNL     1       4.735   4.375  16.007  0.00  0.00    +0.000 A 
ATOM     12  C   UNL     1       5.662   4.179  14.978  0.00  0.00    +0.000 A 
ATOM     13  C   UNL     1       7.018   4.371  15.215  0.00  0.00    +0.000 A 
ATOM     14  C   UNL     1       7.449   4.752  16.483  0.00  0.00    +0.000 A 
ATOM     15  C   UNL     1       6.527   4.917  17.525  0.00  0.00    +0.000 A 
ENDBRANCH   9  10
BRANCH   1  17
ATOM     16  O   UNL     1       5.150   2.261  20.335  0.00  0.00    +0.000 OA
ATOM     17  C   UNL     1       4.396   2.629  19.445  0.00  0.00    +0.000 C 
BRANCH  17  18
ATOM     18  O   UNL     1       4.021   1.793  18.444  0.00  0.00    +0.000 OA
ATOM     19  H   UNL     1       3.546   2.241  17.715  0.00  0.00    +0.000 HD
ENDBRANCH  17  18
ENDBRANCH   1  17
BRANCH   2  20
ATOM     20  C   UNL     1       2.257   3.942  21.412  0.00  0.00    +0.000 C 
BRANCH  20  21
ATOM     21  C   UNL     1       1.264   2.803  21.157  0.00  0.00    +0.000 C 
BRANCH  21  22
ATOM     22  S   UNL     1       0.634   2.787  19.450  0.00  0.00    +0.000 S 
ATOM     23  H   UNL     1       1.809   2.492  18.866  0.00  0.00    +0.000 HD
ENDBRANCH  21  22
ENDBRANCH  20  21
ENDBRANCH   2  20
TORSDOF 6
ENDMDL
MODEL 2
REMARK VINA RESULT:      -7.5      0.100      1.056
REMARK  Name = 
REMARK  6 active torsions:
REMARK  status: ('A' for Active; 'I' for Inactive)
REMARK    1  A    between atoms: C_2  and  O_3
REMARK    2  A    between atoms: C_2  and  C_4
REMARK    3  A    between atoms: C_5  and  C_6
REMARK    4  A    between atoms: C_6  and  C_7
REMARK    5  A    between atoms: C_7  and  S_8
REMARK    6  A    between atoms: N_15  and  C_16
REMARK                            x       y       z     vdW  Elec       q    Type
REMARK                         _______ _______ _______ _____ _____    ______ ____
ROOT
ATOM      1  C   UNL     1       3.830   3.864  19.360  0.00  0.00    +0.000 A 
ATOM      2  C   UNL     1       2.908   4.447  20.236  0.00  0.00    +0.000 A 
ATOM      3  C   UNL     1       2.667   5.777  19.782  0.00  0.00    +0.000 A 
ATOM      4  C   UNL     1       1.836   6.818  20.254  0.00  0.00    +0.000 A 
ATOM      5  C   UNL     1       1.757   8.027  19.565  0.00  0.00    +0.000 A 
ATOM      6  C   UNL     1       2.493   8.212  18.407  0.00  0.00    +0.000 A 
ATOM      7  C   UNL     1       3.328   7.201  17.923  0.00  0.00    +0.000 A 
ATOM      8  C   UNL     1       3.444   5.988  18.641  0.00  0.00    +0.000 A 
ATOM      9  N   UNL     1       4.203   4.828  18.410  0.00  0.00    +0.000 N 
ENDROOT
BRANCH   9  10
ATOM     10  C   UNL     1       5.156   4.672  17.343  0.00  0.00    +0.000 A 
ATOM     11  C   UNL     1       6.525   4.881  17.579  0.00  0.00    +0.000 A 
ATOM     12  C   UNL     1       7.458   4.763  16.543  0.00  0.00    +0.000 A 
ATOM     13  C   UNL     1       7.042   4.399  15.268  0.00  0.00    +0.000 A 
ATOM     14  C   UNL     1       5.692   4.162  15.025  0.00  0.00    +0.000 A 
ATOM     15  C   UNL     1       4.750   4.311  16.051  0.00  0.00    +0.000 A 
ENDBRANCH   9  10
BRANCH   1  17
ATOM     16  O   UNL     1       5.180   2.184  20.381  0.00  0.00    +0.000 OA
ATOM     17  C   UNL     1       4.432   2.556  19.489  0.00  0.00    +0.000 C 
BRANCH  17  18
ATOM     18  O   UNL     1       4.075   1.729  18.473  0.00  0.00    +0.000 OA
ATOM     19  H   UNL     1       3.282   2.027  17.983  0.00  0.00    +0.000 HD
ENDBRANCH  17  18
ENDBRANCH   1  17
BRANCH   2  20
ATOM     20  C   UNL     1       2.301   3.846  21.481  0.00  0.00    +0.000 C 
BRANCH  20  21
ATOM     21  C   UNL     1       1.140   2.877  21.231  0.00  0.00    +0.000 C 
BRANCH  21  22
ATOM     22  S   UNL     1       0.691   2.755  19.472  0.00  0.00    +0.000 S 
ATOM     23  H   UNL     1       0.611   1.413  19.437  0.00  0.00    +0.000 HD
ENDBRANCH  21  22
ENDBRANCH  20  21
ENDBRANCH   2  20
TORSDOF 6
ENDMDL
MODEL 3
REMARK VINA RESULT:      -7.0      3.035      5.753
REMARK  Name = 
REMARK  6 active torsions:
REMARK  status: ('A' for Active; 'I' for Inactive)
REMARK    1  A    between atoms: C_2  and  O_3
REMARK    2  A    between atoms: C_2  and  C_4
REMARK    3  A    between atoms: C_5  and  C_6
REMARK    4  A    between atoms: C_6  and  C_7
REMARK    5  A    between atoms: C_7  and  S_8
REMARK    6  A    between atoms: N_15  and  C_16
REMARK                            x       y       z     vdW  Elec       q    Type
REMARK                         _______ _______ _______ _____ _____    ______ ____
ROOT
ATOM      1  C   UNL     1       4.295   5.675  17.148  0.00  0.00    +0.000 A 
ATOM      2  C   UNL     1       4.556   4.316  16.945  0.00  0.00    +0.000 A 
ATOM      3  C   UNL     1       3.505   3.581  17.568  0.00  0.00    +0.000 A 
ATOM      4  C   UNL     1       3.234   2.198  17.679  0.00  0.00    +0.000 A 
ATOM      5  C   UNL     1       2.077   1.754  18.316  0.00  0.00    +0.000 A 
ATOM      6  C   UNL     1       1.182   2.669  18.842  0.00  0.00    +0.000 A 
ATOM      7  C   UNL     1       1.430   4.042  18.753  0.00  0.00    +0.000 A 
ATOM      8  C   UNL     1       2.623   4.497  18.143  0.00  0.00    +0.000 A 
ATOM      9  N   UNL     1       3.137   5.788  17.933  0.00  0.00    +0.000 N 
ENDROOT
BRANCH   9  10
ATOM     10  C   UNL     1       2.527   7.001  18.412  0.00  0.00    +0.000 A 
ATOM     11  C   UNL     1       2.270   7.171  19.782  0.00  0.00    +0.000 A 
ATOM     12  C   UNL     1       1.649   8.331  20.257  0.00  0.00    +0.000 A 
ATOM     13  C   UNL     1       1.311   9.352  19.376  0.00  0.00    +0.000 A 
ATOM     14  C   UNL     1       1.585   9.210  18.019  0.00  0.00    +0.000 A 
ATOM     15  C   UNL     1       2.177   8.035  17.534  0.00  0.00    +0.000 A 
ENDBRANCH   9  10
BRANCH   1  17
ATOM     16  O   UNL     1       5.967   7.345  17.477  0.00  0.00    +0.000 OA
ATOM     17  C   UNL     1       5.146   6.781  16.768  0.00  0.00    +0.000 C 
BRANCH  17  18
ATOM     18  O   UNL     1       4.940   7.164  15.482  0.00  0.00    +0.000 OA
ATOM     19  H   UNL     1       4.255   7.856  15.383  0.00  0.00    +0.000 HD
ENDBRANCH  17  18
ENDBRANCH   1  17
BRANCH   2  20
ATOM     20  C   UNL     1       5.745   3.691  16.257  0.00  0.00    +0.000 C 
BRANCH  20  21
ATOM     21  C   UNL     1       5.746   3.811  14.729  0.00  0.00    +0.000 C 
BRANCH  21  22
ATOM     22  S   UNL     1       7.149   4.785  14.101  0.00  0.00    +0.000 S 
ATOM     23  H   UNL     1       6.775   4.760  12.809  0.00  0.00    +0.000 HD
ENDBRANCH  21  22
ENDBRANCH  20  21
ENDBRANCH   2  20
TORSDOF 6
ENDMDL
MODEL 4
REMARK VINA RESULT:      -6.9      3.032      5.701
REMARK  Name = 
REMARK  6 active torsions:
REMARK  status: ('A' for Active; 'I' for Inactive)
REMARK    1  A    between atoms: C_2  and  O_3
REMARK    2  A    between atoms: C_2  and  C_4
REMARK    3  A    between atoms: C_5  and  C_6
REMARK    4  A    between atoms: C_6  and  C_7
REMARK    5  A    between atoms: C_7  and  S_8
REMARK    6  A    between atoms: N_15  and  C_16
REMARK                            x       y       z     vdW  Elec       q    Type
REMARK                         _______ _______ _______ _____ _____    ______ ____
ROOT
ATOM      1  C   UNL     1       4.290   5.672  17.164  0.00  0.00    +0.000 A 
ATOM      2  C   UNL     1       4.555   4.315  16.956  0.00  0.00    +0.000 A 
ATOM      3  C   UNL     1       3.507   3.573  17.576  0.00  0.00    +0.000 A 
ATOM      4  C   UNL     1       3.241   2.189  17.680  0.00  0.00    +0.000 A 
ATOM      5  C   UNL     1       2.085   1.738  18.315  0.00  0.00    +0.000 A 
ATOM      6  C   UNL     1       1.186   2.648  18.843  0.00  0.00    +0.000 A 
ATOM      7  C   UNL     1       1.429   4.022  18.759  0.00  0.00    +0.000 A 
ATOM      8  C   UNL     1       2.621   4.484  18.153  0.00  0.00    +0.000 A 
ATOM      9  N   UNL     1       3.130   5.778  17.948  0.00  0.00    +0.000 N 
ENDROOT
BRANCH   9  10
ATOM     10  C   UNL     1       2.515   6.986  18.431  0.00  0.00    +0.000 A 
ATOM     11  C   UNL     1       2.164   8.010  17.535  0.00  0.00    +0.000 A 
ATOM     12  C   UNL     1       1.595   9.202  17.995  0.00  0.00    +0.000 A 
ATOM     13  C   UNL     1       1.335   9.374  19.350  0.00  0.00    +0.000 A 
ATOM     14  C   UNL     1       1.652   8.357  20.247  0.00  0.00    +0.000 A 
ATOM     15  C   UNL     1       2.252   7.175  19.795  0.00  0.00    +0.000 A 
ENDBRANCH   9  10
BRANCH   1  17
ATOM     16  O   UNL     1       5.948   7.353  17.505  0.00  0.00    +0.000 OA
ATOM     17  C   UNL     1       5.136   6.783  16.790  0.00  0.00    +0.000 C 
BRANCH  17  18
ATOM     18  O   UNL     1       4.940   7.161  15.501  0.00  0.00    +0.000 OA
ATOM     19  H   UNL     1       4.033   7.481  15.319  0.00  0.00    +0.000 HD
ENDBRANCH  17  18
ENDBRANCH   1  17
BRANCH   2  20
ATOM     20  C   UNL     1       5.748   3.697  16.267  0.00  0.00    +0.000 C 
BRANCH  20  21
ATOM     21  C   UNL     1       5.744   3.813  14.739  0.00  0.00    +0.000 C 
BRANCH  21  22
ATOM     22  S   UNL     1       7.143   4.790  14.104  0.00  0.00    +0.000 S 
ATOM     23  H   UNL     1       8.096   4.145  14.800  0.00  0.00    +0.000 HD
ENDBRANCH  21  22
ENDBRANCH  20  21
ENDBRANCH   2  20
TORSDOF 6
ENDMDL
MODEL 5
REMARK VINA RESULT:      -6.9      2.187      4.935
REMARK  Name = 
REMARK  6 active torsions:
REMARK  status: ('A' for Active; 'I' for Inactive)
REMARK    1  A    between atoms: C_2  and  O_3
REMARK    2  A    between atoms: C_2  and  C_4
REMARK    3  A    between atoms: C_5  and  C_6
REMARK    4  A    between atoms: C_6  and  C_7
REMARK    5  A    between atoms: C_7  and  S_8
REMARK    6  A    between atoms: N_15  and  C_16
REMARK                            x       y       z     vdW  Elec       q    Type
REMARK                         _______ _______ _______ _____ _____    ______ ____
ROOT
ATOM      1  C   UNL     1       2.866   4.689  18.095  0.00  0.00    +0.000 A 
ATOM      2  C   UNL     1       3.890   3.875  17.602  0.00  0.00    +0.000 A 
ATOM      3  C   UNL     1       5.023   4.707  17.360  0.00  0.00    +0.000 A 
ATOM      4  C   UNL     1       6.325   4.443  16.880  0.00  0.00    +0.000 A 
ATOM      5  C   UNL     1       7.266   5.467  16.793  0.00  0.00    +0.000 A 
ATOM      6  C   UNL     1       6.930   6.752  17.182  0.00  0.00    +0.000 A 
ATOM      7  C   UNL     1       5.646   7.041  17.654  0.00  0.00    +0.000 A 
ATOM      8  C   UNL     1       4.674   6.014  17.706  0.00  0.00    +0.000 A 
ATOM      9  N   UNL     1       3.327   6.015  18.108  0.00  0.00    +0.000 N 
ENDROOT
BRANCH   9  10
ATOM     10  C   UNL     1       2.592   7.187  18.506  0.00  0.00    +0.000 A 
ATOM     11  C   UNL     1       2.211   7.363  19.846  0.00  0.00    +0.000 A 
ATOM     12  C   UNL     1       1.468   8.482  20.240  0.00  0.00    +0.000 A 
ATOM     13  C   UNL     1       1.129   9.457  19.309  0.00  0.00    +0.000 A 
ATOM     14  C   UNL     1       1.524   9.310  17.982  0.00  0.00    +0.000 A 
ATOM     15  C   UNL     1       2.239   8.175  17.577  0.00  0.00    +0.000 A 
ENDBRANCH   9  10
BRANCH   1  17
ATOM     16  O   UNL     1       1.037   4.073  19.497  0.00  0.00    +0.000 OA
ATOM     17  C   UNL     1       1.510   4.285  18.389  0.00  0.00    +0.000 C 
BRANCH  17  18
ATOM     18  O   UNL     1       0.763   4.150  17.264  0.00  0.00    +0.000 OA
ATOM     19  H   UNL     1       0.538   5.002  16.837  0.00  0.00    +0.000 HD
ENDBRANCH  17  18
ENDBRANCH   1  17
BRANCH   2  20
ATOM     20  C   UNL     1       3.838   2.396  17.302  0.00  0.00    +0.000 C 
BRANCH  20  21
ATOM     21  C   UNL     1       3.609   1.496  18.521  0.00  0.00    +0.000 C 
BRANCH  21  22
ATOM     22  S   UNL     1       4.333   2.178  20.045  0.00  0.00    +0.000 S 
ATOM     23  H   UNL     1       3.840   1.239  20.871  0.00  0.00    +0.000 HD
ENDBRANCH  21  22
ENDBRANCH  20  21
ENDBRANCH   2  20
TORSDOF 6
ENDMDL
MODEL 6
REMARK VINA RESULT:      -6.8      2.186      4.875
REMARK  Name = 
REMARK  6 active torsions:
REMARK  status: ('A' for Active; 'I' for Inactive)
REMARK    1  A    between atoms: C_2  and  O_3
REMARK    2  A    between atoms: C_2  and  C_4
REMARK    3  A    between atoms: C_5  and  C_6
REMARK    4  A    between atoms: C_6  and  C_7
REMARK    5  A    between atoms: C_7  and  S_8
REMARK    6  A    between atoms: N_15  and  C_16
REMARK                            x       y       z     vdW  Elec       q    Type
REMARK                         _______ _______ _______ _____ _____    ______ ____
ROOT
ATOM      1  C   UNL     1       2.865   4.688  18.104  0.00  0.00    +0.000 A 
ATOM      2  C   UNL     1       3.894   3.879  17.610  0.00  0.00    +0.000 A 
ATOM      3  C   UNL     1       5.023   4.717  17.374  0.00  0.00    +0.000 A 
ATOM      4  C   UNL     1       6.328   4.460  16.896  0.00  0.00    +0.000 A 
ATOM      5  C   UNL     1       7.265   5.488  16.814  0.00  0.00    +0.000 A 
ATOM      6  C   UNL     1       6.922   6.770  17.207  0.00  0.00    +0.000 A 
ATOM      7  C   UNL     1       5.636   7.052  17.677  0.00  0.00    +0.000 A 
ATOM      8  C   UNL     1       4.668   6.022  17.723  0.00  0.00    +0.000 A 
ATOM      9  N   UNL     1       3.321   6.015  18.122  0.00  0.00    +0.000 N 
ENDROOT
BRANCH   9  10
ATOM     10  C   UNL     1       2.579   7.183  18.522  0.00  0.00    +0.000 A 
ATOM     11  C   UNL     1       2.240   8.165  17.576  0.00  0.00    +0.000 A 
ATOM     12  C   UNL     1       1.547   9.319  17.958  0.00  0.00    +0.000 A 
ATOM     13  C   UNL     1       1.152   9.490  19.279  0.00  0.00    +0.000 A 
ATOM     14  C   UNL     1       1.456   8.513  20.222  0.00  0.00    +0.000 A 
ATOM     15  C   UNL     1       2.179   7.371  19.851  0.00  0.00    +0.000 A 
ENDBRANCH   9  10
BRANCH   1  17
ATOM     16  O   UNL     1       1.038   4.050  19.499  0.00  0.00    +0.000 OA
ATOM     17  C   UNL     1       1.510   4.276  18.394  0.00  0.00    +0.000 C 
BRANCH  17  18
ATOM     18  O   UNL     1       0.763   4.154  17.267  0.00  0.00    +0.000 OA
ATOM     19  H   UNL     1      -0.148   4.499  17.360  0.00  0.00    +0.000 HD
ENDBRANCH  17  18
ENDBRANCH   1  17
BRANCH   2  20
ATOM     20  C   UNL     1       3.848   2.401  17.306  0.00  0.00    +0.000 C 
BRANCH  20  21
ATOM     21  C   UNL     1       3.620   1.496  18.522  0.00  0.00    +0.000 C 
BRANCH  21  22
ATOM     22  S   UNL     1       4.341   2.174  20.049  0.00  0.00    +0.000 S 
ATOM     23  H   UNL     1       5.017   1.064  20.394  0.00  0.00    +0.000 HD
ENDBRANCH  21  22
ENDBRANCH  20  21
ENDBRANCH   2  20
TORSDOF 6
ENDMDL
MODEL 7
REMARK VINA RESULT:      -6.7      1.006      1.578
REMARK  Name = 
REMARK  6 active torsions:
REMARK  status: ('A' for Active; 'I' for Inactive)
REMARK    1  A    between atoms: C_2  and  O_3
REMARK    2  A    between atoms: C_2  and  C_4
REMARK    3  A    between atoms: C_5  and  C_6
REMARK    4  A    between atoms: C_6  and  C_7
REMARK    5  A    between atoms: C_7  and  S_8
REMARK    6  A    between atoms: N_15  and  C_16
REMARK                            x       y       z     vdW  Elec       q    Type
REMARK                         _______ _______ _______ _____ _____    ______ ____
ROOT
ATOM      1  C   UNL     1       3.704   4.647  18.885  0.00  0.00    +0.000 A 
ATOM      2  C   UNL     1       2.818   5.318  19.733  0.00  0.00    +0.000 A 
ATOM      3  C   UNL     1       2.615   6.624  19.196  0.00  0.00    +0.000 A 
ATOM      4  C   UNL     1       1.828   7.722  19.610  0.00  0.00    +0.000 A 
ATOM      5  C   UNL     1       1.781   8.885  18.845  0.00  0.00    +0.000 A 
ATOM      6  C   UNL     1       2.505   8.969  17.668  0.00  0.00    +0.000 A 
ATOM      7  C   UNL     1       3.297   7.899  17.240  0.00  0.00    +0.000 A 
ATOM      8  C   UNL     1       3.381   6.731  18.034  0.00  0.00    +0.000 A 
ATOM      9  N   UNL     1       4.096   5.533  17.869  0.00  0.00    +0.000 N 
ENDROOT
BRANCH   9  10
ATOM     10  C   UNL     1       5.026   5.274  16.802  0.00  0.00    +0.000 A 
ATOM     11  C   UNL     1       6.336   5.777  16.865  0.00  0.00    +0.000 A 
ATOM     12  C   UNL     1       7.240   5.559  15.820  0.00  0.00    +0.000 A 
ATOM     13  C   UNL     1       6.861   4.806  14.716  0.00  0.00    +0.000 A 
ATOM     14  C   UNL     1       5.575   4.277  14.651  0.00  0.00    +0.000 A 
ATOM     15  C   UNL     1       4.655   4.520  15.680  0.00  0.00    +0.000 A 
ENDBRANCH   9  10
BRANCH   1  17
ATOM     16  O   UNL     1       3.688   2.262  18.931  0.00  0.00    +0.000 OA
ATOM     17  C   UNL     1       4.263   3.329  19.091  0.00  0.00    +0.000 C 
BRANCH  17  18
ATOM     18  O   UNL     1       5.554   3.382  19.504  0.00  0.00    +0.000 OA
ATOM     19  H   UNL     1       5.693   3.943  20.294  0.00  0.00    +0.000 HD
ENDBRANCH  17  18
ENDBRANCH   1  17
BRANCH   2  20
ATOM     20  C   UNL     1       2.210   4.821  21.023  0.00  0.00    +0.000 C 
BRANCH  20  21
ATOM     21  C   UNL     1       1.146   3.731  20.858  0.00  0.00    +0.000 C 
BRANCH  21  22
ATOM     22  S   UNL     1       1.505   2.243  21.843  0.00  0.00    +0.000 S 
ATOM     23  H   UNL     1       2.536   1.818  21.092  0.00  0.00    +0.000 HD
ENDBRANCH  21  22
ENDBRANCH  20  21
ENDBRANCH   2  20
TORSDOF 6
ENDMDL
MODEL 8
REMARK VINA RESULT:      -6.7      2.866      5.693
REMARK  Name = 
REMARK  6 active torsions:
REMARK  status: ('A' for Active; 'I' for Inactive)
REMARK    1  A    between atoms: C_2  and  O_3
REMARK    2  A    between atoms: C_2  and  C_4
REMARK    3  A    between atoms: C_5  and  C_6
REMARK    4  A    between atoms: C_6  and  C_7
REMARK    5  A    between atoms: C_7  and  S_8
REMARK    6  A    between atoms: N_15  and  C_16
REMARK                            x       y       z     vdW  Elec       q    Type
REMARK                         _______ _______ _______ _____ _____    ______ ____
ROOT
ATOM      1  C   UNL     1       4.287   5.745  17.034  0.00  0.00    +0.000 A 
ATOM      2  C   UNL     1       4.596   4.395  16.840  0.00  0.00    +0.000 A 
ATOM      3  C   UNL     1       3.623   3.627  17.545  0.00  0.00    +0.000 A 
ATOM      4  C   UNL     1       3.425   2.236  17.699  0.00  0.00    +0.000 A 
ATOM      5  C   UNL     1       2.334   1.754  18.420  0.00  0.00    +0.000 A 
ATOM      6  C   UNL     1       1.434   2.640  18.988  0.00  0.00    +0.000 A 
ATOM      7  C   UNL     1       1.612   4.020  18.857  0.00  0.00    +0.000 A 
ATOM      8  C   UNL     1       2.740   4.516  18.161  0.00  0.00    +0.000 A 
ATOM      9  N   UNL     1       3.179   5.823  17.892  0.00  0.00    +0.000 N 
ENDROOT
BRANCH   9  10
ATOM     10  C   UNL     1       2.547   7.017  18.389  0.00  0.00    +0.000 A 
ATOM     11  C   UNL     1       2.297   7.168  19.763  0.00  0.00    +0.000 A 
ATOM     12  C   UNL     1       1.655   8.310  20.254  0.00  0.00    +0.000 A 
ATOM     13  C   UNL     1       1.288   9.332  19.386  0.00  0.00    +0.000 A 
ATOM     14  C   UNL     1       1.554   9.209  18.025  0.00  0.00    +0.000 A 
ATOM     15  C   UNL     1       2.167   8.053  17.524  0.00  0.00    +0.000 A 
ENDBRANCH   9  10
BRANCH   1  17
ATOM     16  O   UNL     1       5.758   7.609  17.267  0.00  0.00    +0.000 OA
ATOM     17  C   UNL     1       5.059   6.880  16.578  0.00  0.00    +0.000 C 
BRANCH  17  18
ATOM     18  O   UNL     1       4.931   7.078  15.242  0.00  0.00    +0.000 OA
ATOM     19  H   UNL     1       5.747   6.887  14.736  0.00  0.00    +0.000 HD
ENDBRANCH  17  18
ENDBRANCH   1  17
BRANCH   2  20
ATOM     20  C   UNL     1       5.765   3.809  16.086  0.00  0.00    +0.000 C 
BRANCH  20  21
ATOM     21  C   UNL     1       7.102   4.524  16.307  0.00  0.00    +0.000 C 
BRANCH  21  22
ATOM     22  S   UNL     1       7.564   4.626  18.064  0.00  0.00    +0.000 S 
ATOM     23  H   UNL     1       8.495   3.656  18.025  0.00  0.00    +0.000 HD
ENDBRANCH  21  22
ENDBRANCH  20  21
ENDBRANCH   2  20
TORSDOF 6
ENDMDL
MODEL 9
REMARK VINA RESULT:      -6.6      2.310      4.969
REMARK  Name = 
REMARK  6 active torsions:
REMARK  status: ('A' for Active; 'I' for Inactive)
REMARK    1  A    between atoms: C_2  and  O_3
REMARK    2  A    between atoms: C_2  and  C_4
REMARK    3  A    between atoms: C_5  and  C_6
REMARK    4  A    between atoms: C_6  and  C_7
REMARK    5  A    between atoms: C_7  and  S_8
REMARK    6  A    between atoms: N_15  and  C_16
REMARK                            x       y       z     vdW  Elec       q    Type
REMARK                         _______ _______ _______ _____ _____    ______ ____
ROOT
ATOM      1  C   UNL     1       4.138   5.238  18.063  0.00  0.00    +0.000 A 
ATOM      2  C   UNL     1       4.388   6.419  17.356  0.00  0.00    +0.000 A 
ATOM      3  C   UNL     1       3.423   7.382  17.776  0.00  0.00    +0.000 A 
ATOM      4  C   UNL     1       3.194   8.731  17.421  0.00  0.00    +0.000 A 
ATOM      5  C   UNL     1       2.187   9.464  18.045  0.00  0.00    +0.000 A 
ATOM      6  C   UNL     1       1.404   8.872  19.021  0.00  0.00    +0.000 A 
ATOM      7  C   UNL     1       1.605   7.537  19.385  0.00  0.00    +0.000 A 
ATOM      8  C   UNL     1       2.599   6.776  18.727  0.00  0.00    +0.000 A 
ATOM      9  N   UNL     1       3.004   5.438  18.866  0.00  0.00    +0.000 N 
ENDROOT
BRANCH   9  10
ATOM     10  C   UNL     1       2.371   4.476  19.730  0.00  0.00    +0.000 A 
ATOM     11  C   UNL     1       2.800   4.329  21.060  0.00  0.00    +0.000 A 
ATOM     12  C   UNL     1       2.215   3.377  21.900  0.00  0.00    +0.000 A 
ATOM     13  C   UNL     1       1.170   2.585  21.437  0.00  0.00    +0.000 A 
ATOM     14  C   UNL     1       0.716   2.739  20.130  0.00  0.00    +0.000 A 
ATOM     15  C   UNL     1       1.321   3.669  19.274  0.00  0.00    +0.000 A 
ENDBRANCH   9  10
BRANCH   1  17
ATOM     16  O   UNL     1       4.433   3.031  17.206  0.00  0.00    +0.000 OA
ATOM     17  C   UNL     1       4.813   3.971  17.889  0.00  0.00    +0.000 C 
BRANCH  17  18
ATOM     18  O   UNL     1       5.973   3.912  18.592  0.00  0.00    +0.000 OA
ATOM     19  H   UNL     1       6.415   4.779  18.695  0.00  0.00    +0.000 HD
ENDBRANCH  17  18
ENDBRANCH   1  17
BRANCH   2  20
ATOM     20  C   UNL     1       5.430   6.662  16.291  0.00  0.00    +0.000 C 
BRANCH  20  21
ATOM     21  C   UNL     1       5.353   5.722  15.084  0.00  0.00    +0.000 C 
BRANCH  21  22
ATOM     22  S   UNL     1       6.872   4.746  14.852  0.00  0.00    +0.000 S 
ATOM     23  H   UNL     1       7.636   5.469  15.690  0.00  0.00    +0.000 HD
ENDBRANCH  21  22
ENDBRANCH  20  21
ENDBRANCH   2  20
TORSDOF 6
ENDMDL
