MODEL 1
REMARK VINA RESULT:      -7.1      0.000      0.000
REMARK  Name = 
REMARK  7 active torsions:
REMARK  status: ('A' for Active; 'I' for Inactive)
REMARK    1  A    between atoms: N_6  and  C_7
REMARK    2  A    between atoms: C_9  and  O_10
REMARK    3  A    between atoms: C_11  and  O_12
REMARK    4  A    between atoms: O_12  and  P_13
REMARK    5  A    between atoms: P_13  and  O_15
REMARK    6  A    between atoms: P_13  and  O_16
REMARK    7  A    between atoms: C_19  and  N_20
REMARK                            x       y       z     vdW  Elec       q    Type
REMARK                         _______ _______ _______ _____ _____    ______ ____
ROOT
ATOM      1  C   UNL     1       2.939   4.689  19.081  0.00  0.00    +0.000 C 
ATOM      2  C   UNL     1       2.808   4.184  20.507  0.00  0.00    +0.000 C 
ATOM      3  C   UNL     1       1.488   4.800  20.881  0.00  0.00    +0.000 C 
ATOM      4  C   UNL     1       1.599   6.194  20.249  0.00  0.00    +0.000 C 
ATOM      5  O   UNL     1       2.496   6.062  19.129  0.00  0.00    +0.000 OA
ENDROOT
BRANCH   1  11
ATOM      6  O   UNL     1       7.901   4.520  16.776  0.00  0.00    +0.000 OA
ATOM      7  C   UNL     1       6.839   4.496  17.384  0.00  0.00    +0.000 A 
ATOM      8  N   UNL     1       5.737   3.865  16.852  0.00  0.00    +0.000 N 
ATOM      9  C   UNL     1       4.447   3.942  17.319  0.00  0.00    +0.000 A 
ATOM     10  O   UNL     1       3.529   3.469  16.658  0.00  0.00    +0.000 OA
ATOM     11  N   UNL     1       4.290   4.591  18.544  0.00  0.00    +0.000 N 
ATOM     12  C   UNL     1       5.360   5.197  19.184  0.00  0.00    +0.000 A 
ATOM     13  C   UNL     1       6.592   5.160  18.668  0.00  0.00    +0.000 A 
ATOM     14  H   UNL     1       5.857   3.424  15.951  0.00  0.00    +0.000 HD
BRANCH  13  15
ATOM     15  N   UNL     1       7.655   5.799  19.391  0.00  0.00    +0.000 N 
ATOM     16  O   UNL     1       7.948   5.347  20.501  0.00  0.00    +0.000 OA
ATOM     17  O   UNL     1       8.171   6.805  18.877  0.00  0.00    +0.000 OA
ENDBRANCH  13  15
ENDBRANCH   1  11
BRANCH   3  18
ATOM     18  O   UNL     1       0.463   4.015  20.265  0.00  0.00    +0.000 OA
ATOM     19  H   UNL     1       0.586   3.080  20.509  0.00  0.00    +0.000 HD
ENDBRANCH   3  18
BRANCH   4  20
ATOM     20  O   UNL     1       2.074   7.180  21.164  0.00  0.00    +0.000 OA
BRANCH  20  21
ATOM     21  P   UNL     1       1.180   8.509  21.215  0.00  0.00    +0.000 P 
ATOM     22  O   UNL     1       1.588   9.548  22.205  0.00  0.00    +0.000 OA
BRANCH  21  23
ATOM     23  O   UNL     1       1.163   8.978  19.692  0.00  0.00    +0.000 OA
ATOM     24  H   UNL     1       1.247   8.218  19.085  0.00  0.00    +0.000 HD
ENDBRANCH  21  23
BRANCH  21  25
ATOM     25  O   UNL     1      -0.338   8.061  21.386  0.00  0.00    +0.000 OA
ATOM     26  H   UNL     1      -0.359   7.206  21.860  0.00  0.00    +0.000 HD
ENDBRANCH  21  25
ENDBRANCH  20  21
ENDBRANCH   4  20
TORSDOF 7
ENDMDL
MODEL 2
REMARK VINA RESULT:      -7.0      2.933      6.139
REMARK  Name = 
REMARK  7 active torsions:
REMARK  status: ('A' for Active; 'I' for Inactive)
REMARK    1  A    between atoms: N_6  and  C_7
REMARK    2  A    between atoms: C_9  and  O_10
REMARK    3  A    between atoms: C_11  and  O_12
REMARK    4  A    between atoms: O_12  and  P_13
REMARK    5  A    between atoms: P_13  and  O_15
REMARK    6  A    between atoms: P_13  and  O_16
REMARK    7  A    between atoms: C_19  and  N_20
REMARK                            x       y       z     vdW  Elec       q    Type
REMARK                         _______ _______ _______ _____ _____    ______ ____
ROOT
ATOM      1  C   UNL     1       2.788   4.261  18.779  0.00  0.00    +0.000 C 
ATOM      2  C   UNL     1       2.138   3.859  17.466  0.00  0.00    +0.000 C 
ATOM      3  C   UNL     1       3.087   2.778  17.027  0.00  0.00    +0.000 C 
ATOM      4  C   UNL     1       4.448   3.380  17.403  0.00  0.00    +0.000 C 
ATOM      5  O   UNL     1       4.204   4.277  18.504  0.00  0.00    +0.000 OA
ENDROOT
BRANCH   1  11
ATOM      6  O   UNL     1       1.394   9.111  20.899  0.00  0.00    +0.000 OA
ATOM      7  C   UNL     1       1.606   8.034  20.357  0.00  0.00    +0.000 A 
ATOM      8  N   UNL     1       1.647   6.872  21.094  0.00  0.00    +0.000 N 
ATOM      9  C   UNL     1       2.078   5.643  20.656  0.00  0.00    +0.000 A 
ATOM     10  O   UNL     1       2.224   4.726  21.458  0.00  0.00    +0.000 OA
ATOM     11  N   UNL     1       2.336   5.549  19.288  0.00  0.00    +0.000 N 
ATOM     12  C   UNL     1       2.252   6.657  18.459  0.00  0.00    +0.000 A 
ATOM     13  C   UNL     1       1.894   7.854  18.931  0.00  0.00    +0.000 A 
ATOM     14  H   UNL     1       1.487   6.958  22.087  0.00  0.00    +0.000 HD
BRANCH  13  15
ATOM     15  N   UNL     1       1.817   8.955  18.012  0.00  0.00    +0.000 N 
ATOM     16  O   UNL     1       2.854   9.302  17.441  0.00  0.00    +0.000 OA
ATOM     17  O   UNL     1       0.720   9.527  17.898  0.00  0.00    +0.000 OA
ENDBRANCH  13  15
ENDBRANCH   1  11
BRANCH   3  18
ATOM     18  O   UNL     1       2.790   1.610  17.798  0.00  0.00    +0.000 OA
ATOM     19  H   UNL     1       2.221   1.018  17.274  0.00  0.00    +0.000 HD
ENDBRANCH   3  18
BRANCH   4  20
ATOM     20  O   UNL     1       5.067   4.068  16.318  0.00  0.00    +0.000 OA
BRANCH  20  21
ATOM     21  P   UNL     1       6.462   4.761  16.695  0.00  0.00    +0.000 P 
ATOM     22  O   UNL     1       7.512   4.763  15.634  0.00  0.00    +0.000 OA
BRANCH  21  23
ATOM     23  O   UNL     1       6.011   6.197  17.218  0.00  0.00    +0.000 OA
ATOM     24  H   UNL     1       5.381   6.123  17.960  0.00  0.00    +0.000 HD
ENDBRANCH  21  23
BRANCH  21  25
ATOM     25  O   UNL     1       6.968   4.114  18.058  0.00  0.00    +0.000 OA
ATOM     26  H   UNL     1       6.196   3.967  18.639  0.00  0.00    +0.000 HD
ENDBRANCH  21  25
ENDBRANCH  20  21
ENDBRANCH   4  20
TORSDOF 7
ENDMDL
MODEL 3
REMARK VINA RESULT:      -6.9      0.290      1.190
REMARK  Name = 
REMARK  7 active torsions:
REMARK  status: ('A' for Active; 'I' for Inactive)
REMARK    1  A    between atoms: N_6  and  C_7
REMARK    2  A    between atoms: C_9  and  O_10
REMARK    3  A    between atoms: C_11  and  O_12
REMARK    4  A    between atoms: O_12  and  P_13
REMARK    5  A    between atoms: P_13  and  O_15
REMARK    6  A    between atoms: P_13  and  O_16
REMARK    7  A    between atoms: C_19  and  N_20
REMARK                            x       y       z     vdW  Elec       q    Type
REMARK                         _______ _______ _______ _____ _____    ______ ____
ROOT
ATOM      1  C   UNL     1       3.017   4.768  19.026  0.00  0.00    +0.000 C 
ATOM      2  C   UNL     1       2.940   4.394  20.496  0.00  0.00    +0.000 C 
ATOM      3  C   UNL     1       1.624   5.026  20.857  0.00  0.00    +0.000 C 
ATOM      4  C   UNL     1       1.695   6.358  20.098  0.00  0.00    +0.000 C 
ATOM      5  O   UNL     1       2.557   6.135  18.965  0.00  0.00    +0.000 OA
ENDROOT
BRANCH   1  11
ATOM      6  O   UNL     1       7.909   4.464  16.588  0.00  0.00    +0.000 OA
ATOM      7  C   UNL     1       6.864   4.473  17.227  0.00  0.00    +0.000 A 
ATOM      8  N   UNL     1       5.741   3.835  16.750  0.00  0.00    +0.000 N 
ATOM      9  C   UNL     1       4.467   3.942  17.251  0.00  0.00    +0.000 A 
ATOM     10  O   UNL     1       3.525   3.455  16.633  0.00  0.00    +0.000 OA
ATOM     11  N   UNL     1       4.351   4.637  18.454  0.00  0.00    +0.000 N 
ATOM     12  C   UNL     1       5.445   5.254  19.041  0.00  0.00    +0.000 A 
ATOM     13  C   UNL     1       6.661   5.186  18.492  0.00  0.00    +0.000 A 
ATOM     14  H   UNL     1       5.832   3.360  15.863  0.00  0.00    +0.000 HD
BRANCH  13  15
ATOM     15  N   UNL     1       7.750   5.839  19.161  0.00  0.00    +0.000 N 
ATOM     16  O   UNL     1       8.124   6.929  18.721  0.00  0.00    +0.000 OA
ATOM     17  O   UNL     1       8.286   5.234  20.104  0.00  0.00    +0.000 OA
ENDBRANCH  13  15
ENDBRANCH   1  11
BRANCH   3  18
ATOM     18  O   UNL     1       0.590   4.177  20.349  0.00  0.00    +0.000 OA
ATOM     19  H   UNL     1       0.295   3.575  21.055  0.00  0.00    +0.000 HD
ENDBRANCH   3  18
BRANCH   4  20
ATOM     20  O   UNL     1       2.186   7.428  20.905  0.00  0.00    +0.000 OA
BRANCH  20  21
ATOM     21  P   UNL     1       1.080   8.525  21.278  0.00  0.00    +0.000 P 
ATOM     22  O   UNL     1      -0.299   8.018  21.539  0.00  0.00    +0.000 OA
BRANCH  21  23
ATOM     23  O   UNL     1       1.761   9.315  22.482  0.00  0.00    +0.000 OA
ATOM     24  H   UNL     1       1.262  10.125  22.704  0.00  0.00    +0.000 HD
ENDBRANCH  21  23
BRANCH  21  25
ATOM     25  O   UNL     1       1.117   9.649  20.150  0.00  0.00    +0.000 OA
ATOM     26  H   UNL     1       0.460   9.421  19.462  0.00  0.00    +0.000 HD
ENDBRANCH  21  25
ENDBRANCH  20  21
ENDBRANCH   4  20
TORSDOF 7
ENDMDL
MODEL 4
REMARK VINA RESULT:      -6.8      2.964      6.197
REMARK  Name = 
REMARK  7 active torsions:
REMARK  status: ('A' for Active; 'I' for Inactive)
REMARK    1  A    between atoms: N_6  and  C_7
REMARK    2  A    between atoms: C_9  and  O_10
REMARK    3  A    between atoms: C_11  and  O_12
REMARK    4  A    between atoms: O_12  and  P_13
REMARK    5  A    between atoms: P_13  and  O_15
REMARK    6  A    between atoms: P_13  and  O_16
REMARK    7  A    between atoms: C_19  and  N_20
REMARK                            x       y       z     vdW  Elec       q    Type
REMARK                         _______ _______ _______ _____ _____    ______ ____
ROOT
ATOM      1  C   UNL     1       3.288   5.287  19.782  0.00  0.00    +0.000 C 
ATOM      2  C   UNL     1       2.680   4.224  18.884  0.00  0.00    +0.000 C 
ATOM      3  C   UNL     1       3.740   3.162  18.982  0.00  0.00    +0.000 C 
ATOM      4  C   UNL     1       5.028   3.996  18.926  0.00  0.00    +0.000 C 
ATOM      5  O   UNL     1       4.693   5.296  19.450  0.00  0.00    +0.000 OA
ENDROOT
BRANCH   1  11
ATOM      6  O   UNL     1       0.862  10.110  18.879  0.00  0.00    +0.000 OA
ATOM      7  C   UNL     1       1.468   9.085  19.169  0.00  0.00    +0.000 A 
ATOM      8  N   UNL     1       2.289   8.470  18.252  0.00  0.00    +0.000 N 
ATOM      9  C   UNL     1       2.853   7.223  18.368  0.00  0.00    +0.000 A 
ATOM     10  O   UNL     1       3.427   6.720  17.408  0.00  0.00    +0.000 OA
ATOM     11  N   UNL     1       2.700   6.608  19.611  0.00  0.00    +0.000 N 
ATOM     12  C   UNL     1       1.944   7.190  20.617  0.00  0.00    +0.000 A 
ATOM     13  C   UNL     1       1.354   8.377  20.447  0.00  0.00    +0.000 A 
ATOM     14  H   UNL     1       2.367   8.910  17.346  0.00  0.00    +0.000 HD
BRANCH  13  15
ATOM     15  N   UNL     1       0.596   8.925  21.537  0.00  0.00    +0.000 N 
ATOM     16  O   UNL     1       1.162   9.725  22.286  0.00  0.00    +0.000 OA
ATOM     17  O   UNL     1      -0.565   8.511  21.690  0.00  0.00    +0.000 OA
ENDBRANCH  13  15
ENDBRANCH   1  11
BRANCH   3  18
ATOM     18  O   UNL     1       3.579   2.514  20.247  0.00  0.00    +0.000 OA
ATOM     19  H   UNL     1       3.248   3.160  20.897  0.00  0.00    +0.000 HD
ENDBRANCH   3  18
BRANCH   4  20
ATOM     20  O   UNL     1       5.560   4.103  17.607  0.00  0.00    +0.000 OA
BRANCH  20  21
ATOM     21  P   UNL     1       6.927   4.937  17.521  0.00  0.00    +0.000 P 
ATOM     22  O   UNL     1       7.898   4.514  16.469  0.00  0.00    +0.000 OA
BRANCH  21  23
ATOM     23  O   UNL     1       6.414   6.442  17.418  0.00  0.00    +0.000 OA
ATOM     24  H   UNL     1       5.914   6.592  16.593  0.00  0.00    +0.000 HD
ENDBRANCH  21  23
BRANCH  21  25
ATOM     25  O   UNL     1       7.570   4.959  18.976  0.00  0.00    +0.000 OA
ATOM     26  H   UNL     1       6.853   5.070  19.632  0.00  0.00    +0.000 HD
ENDBRANCH  21  25
ENDBRANCH  20  21
ENDBRANCH   4  20
TORSDOF 7
ENDMDL
MODEL 5
REMARK VINA RESULT:      -6.8      0.847      1.362
REMARK  Name = 
REMARK  7 active torsions:
REMARK  status: ('A' for Active; 'I' for Inactive)
REMARK    1  A    between atoms: N_6  and  C_7
REMARK    2  A    between atoms: C_9  and  O_10
REMARK    3  A    between atoms: C_11  and  O_12
REMARK    4  A    between atoms: O_12  and  P_13
REMARK    5  A    between atoms: P_13  and  O_15
REMARK    6  A    between atoms: P_13  and  O_16
REMARK    7  A    between atoms: C_19  and  N_20
REMARK                            x       y       z     vdW  Elec       q    Type
REMARK                         _______ _______ _______ _____ _____    ______ ____
ROOT
ATOM      1  C   UNL     1       3.003   4.896  18.849  0.00  0.00    +0.000 C 
ATOM      2  C   UNL     1       2.994   4.505  20.317  0.00  0.00    +0.000 C 
ATOM      3  C   UNL     1       1.684   5.112  20.740  0.00  0.00    +0.000 C 
ATOM      4  C   UNL     1       1.702   6.453  19.993  0.00  0.00    +0.000 C 
ATOM      5  O   UNL     1       2.519   6.255  18.822  0.00  0.00    +0.000 OA
ENDROOT
BRANCH   1  11
ATOM      6  O   UNL     1       7.756   4.504  16.163  0.00  0.00    +0.000 OA
ATOM      7  C   UNL     1       6.757   4.596  16.866  0.00  0.00    +0.000 A 
ATOM      8  N   UNL     1       5.819   3.589  16.891  0.00  0.00    +0.000 N 
ATOM      9  C   UNL     1       4.570   3.651  17.460  0.00  0.00    +0.000 A 
ATOM     10  O   UNL     1       3.766   2.745  17.268  0.00  0.00    +0.000 OA
ATOM     11  N   UNL     1       4.313   4.792  18.221  0.00  0.00    +0.000 N 
ATOM     12  C   UNL     1       5.231   5.827  18.305  0.00  0.00    +0.000 A 
ATOM     13  C   UNL     1       6.412   5.762  17.684  0.00  0.00    +0.000 A 
ATOM     14  H   UNL     1       6.004   2.781  16.313  0.00  0.00    +0.000 HD
BRANCH  13  15
ATOM     15  N   UNL     1       7.320   6.866  17.825  0.00  0.00    +0.000 N 
ATOM     16  O   UNL     1       8.114   6.841  18.769  0.00  0.00    +0.000 OA
ATOM     17  O   UNL     1       7.204   7.806  17.021  0.00  0.00    +0.000 OA
ENDBRANCH  13  15
ENDBRANCH   1  11
BRANCH   3  18
ATOM     18  O   UNL     1       0.643   4.252  20.267  0.00  0.00    +0.000 OA
ATOM     19  H   UNL     1      -0.206   4.538  20.649  0.00  0.00    +0.000 HD
ENDBRANCH   3  18
BRANCH   4  20
ATOM     20  O   UNL     1       2.210   7.522  20.789  0.00  0.00    +0.000 OA
BRANCH  20  21
ATOM     21  P   UNL     1       1.096   8.578  21.252  0.00  0.00    +0.000 P 
ATOM     22  O   UNL     1      -0.266   8.031  21.521  0.00  0.00    +0.000 OA
BRANCH  21  23
ATOM     23  O   UNL     1       1.797   9.312  22.480  0.00  0.00    +0.000 OA
ATOM     24  H   UNL     1       2.091   8.672  23.156  0.00  0.00    +0.000 HD
ENDBRANCH  21  23
BRANCH  21  25
ATOM     25  O   UNL     1       1.083   9.762  20.188  0.00  0.00    +0.000 OA
ATOM     26  H   UNL     1       1.505  10.547  20.591  0.00  0.00    +0.000 HD
ENDBRANCH  21  25
ENDBRANCH  20  21
ENDBRANCH   4  20
TORSDOF 7
ENDMDL
MODEL 6
REMARK VINA RESULT:      -6.7      2.938      6.219
REMARK  Name = 
REMARK  7 active torsions:
REMARK  status: ('A' for Active; 'I' for Inactive)
REMARK    1  A    between atoms: N_6  and  C_7
REMARK    2  A    between atoms: C_9  and  O_10
REMARK    3  A    between atoms: C_11  and  O_12
REMARK    4  A    between atoms: O_12  and  P_13
REMARK    5  A    between atoms: P_13  and  O_15
REMARK    6  A    between atoms: P_13  and  O_16
REMARK    7  A    between atoms: C_19  and  N_20
REMARK                            x       y       z     vdW  Elec       q    Type
REMARK                         _______ _______ _______ _____ _____    ______ ____
ROOT
ATOM      1  C   UNL     1       2.918   4.384  18.742  0.00  0.00    +0.000 C 
ATOM      2  C   UNL     1       2.200   3.913  17.489  0.00  0.00    +0.000 C 
ATOM      3  C   UNL     1       3.195   2.906  16.982  0.00  0.00    +0.000 C 
ATOM      4  C   UNL     1       4.528   3.619  17.243  0.00  0.00    +0.000 C 
ATOM      5  O   UNL     1       4.302   4.509  18.353  0.00  0.00    +0.000 OA
ENDROOT
BRANCH   1  11
ATOM      6  O   UNL     1       1.293   9.114  20.967  0.00  0.00    +0.000 OA
ATOM      7  C   UNL     1       1.558   8.061  20.399  0.00  0.00    +0.000 A 
ATOM      8  N   UNL     1       1.622   6.880  21.101  0.00  0.00    +0.000 N 
ATOM      9  C   UNL     1       2.108   5.681  20.639  0.00  0.00    +0.000 A 
ATOM     10  O   UNL     1       2.266   4.745  21.416  0.00  0.00    +0.000 OA
ATOM     11  N   UNL     1       2.406   5.639  19.277  0.00  0.00    +0.000 N 
ATOM     12  C   UNL     1       2.305   6.768  18.479  0.00  0.00    +0.000 A 
ATOM     13  C   UNL     1       1.891   7.937  18.977  0.00  0.00    +0.000 A 
ATOM     14  H   UNL     1       1.433   6.929  22.092  0.00  0.00    +0.000 HD
BRANCH  13  15
ATOM     15  N   UNL     1       1.798   9.063  18.090  0.00  0.00    +0.000 N 
ATOM     16  O   UNL     1       0.704   9.622  17.983  0.00  0.00    +0.000 OA
ATOM     17  O   UNL     1       2.814   9.363  17.441  0.00  0.00    +0.000 OA
ENDBRANCH  13  15
ENDBRANCH   1  11
BRANCH   3  18
ATOM     18  O   UNL     1       3.054   1.728  17.783  0.00  0.00    +0.000 OA
ATOM     19  H   UNL     1       3.256   1.947  18.710  0.00  0.00    +0.000 HD
ENDBRANCH   3  18
BRANCH   4  20
ATOM     20  O   UNL     1       5.001   4.340  16.106  0.00  0.00    +0.000 OA
BRANCH  20  21
ATOM     21  P   UNL     1       6.407   5.074  16.337  0.00  0.00    +0.000 P 
ATOM     22  O   UNL     1       6.361   6.554  16.526  0.00  0.00    +0.000 OA
BRANCH  21  23
ATOM     23  O   UNL     1       7.041   4.246  17.542  0.00  0.00    +0.000 OA
ATOM     24  H   UNL     1       7.850   3.776  17.263  0.00  0.00    +0.000 HD
ENDBRANCH  21  23
BRANCH  21  25
ATOM     25  O   UNL     1       7.379   4.637  15.155  0.00  0.00    +0.000 OA
ATOM     26  H   UNL     1       7.560   5.417  14.595  0.00  0.00    +0.000 HD
ENDBRANCH  21  25
ENDBRANCH  20  21
ENDBRANCH   4  20
TORSDOF 7
ENDMDL
MODEL 7
REMARK VINA RESULT:      -6.7      2.962      6.309
REMARK  Name = 
REMARK  7 active torsions:
REMARK  status: ('A' for Active; 'I' for Inactive)
REMARK    1  A    between atoms: N_6  and  C_7
REMARK    2  A    between atoms: C_9  and  O_10
REMARK    3  A    between atoms: C_11  and  O_12
REMARK    4  A    between atoms: O_12  and  P_13
REMARK    5  A    between atoms: P_13  and  O_15
REMARK    6  A    between atoms: P_13  and  O_16
REMARK    7  A    between atoms: C_19  and  N_20
REMARK                            x       y       z     vdW  Elec       q    Type
REMARK                         _______ _______ _______ _____ _____    ______ ____
ROOT
ATOM      1  C   UNL     1       3.132   5.397  19.725  0.00  0.00    +0.000 C 
ATOM      2  C   UNL     1       2.680   4.474  18.606  0.00  0.00    +0.000 C 
ATOM      3  C   UNL     1       3.741   3.412  18.701  0.00  0.00    +0.000 C 
ATOM      4  C   UNL     1       5.004   4.248  18.949  0.00  0.00    +0.000 C 
ATOM      5  O   UNL     1       4.569   5.457  19.601  0.00  0.00    +0.000 OA
ENDROOT
BRANCH   1  11
ATOM      6  O   UNL     1       0.697  10.274  19.230  0.00  0.00    +0.000 OA
ATOM      7  C   UNL     1       1.307   9.231  19.431  0.00  0.00    +0.000 A 
ATOM      8  N   UNL     1       2.102   8.681  18.450  0.00  0.00    +0.000 N 
ATOM      9  C   UNL     1       2.665   7.428  18.464  0.00  0.00    +0.000 A 
ATOM     10  O   UNL     1       3.212   6.994  17.456  0.00  0.00    +0.000 OA
ATOM     11  N   UNL     1       2.543   6.728  19.664  0.00  0.00    +0.000 N 
ATOM     12  C   UNL     1       1.816   7.238  20.728  0.00  0.00    +0.000 A 
ATOM     13  C   UNL     1       1.224   8.434  20.658  0.00  0.00    +0.000 A 
ATOM     14  H   UNL     1       2.157   9.184  17.576  0.00  0.00    +0.000 HD
BRANCH  13  15
ATOM     15  N   UNL     1       0.497   8.904  21.803  0.00  0.00    +0.000 N 
ATOM     16  O   UNL     1      -0.677   8.547  21.925  0.00  0.00    +0.000 OA
ATOM     17  O   UNL     1       1.081   9.692  22.566  0.00  0.00    +0.000 OA
ENDBRANCH  13  15
ENDBRANCH   1  11
BRANCH   3  18
ATOM     18  O   UNL     1       3.419   2.586  19.824  0.00  0.00    +0.000 OA
ATOM     19  H   UNL     1       3.633   1.660  19.612  0.00  0.00    +0.000 HD
ENDBRANCH   3  18
BRANCH   4  20
ATOM     20  O   UNL     1       5.713   4.548  17.748  0.00  0.00    +0.000 OA
BRANCH  20  21
ATOM     21  P   UNL     1       7.167   5.178  17.989  0.00  0.00    +0.000 P 
ATOM     22  O   UNL     1       7.456   6.468  17.298  0.00  0.00    +0.000 OA
BRANCH  21  23
ATOM     23  O   UNL     1       7.277   5.209  19.579  0.00  0.00    +0.000 OA
ATOM     24  H   UNL     1       8.070   4.732  19.890  0.00  0.00    +0.000 HD
ENDBRANCH  21  23
BRANCH  21  25
ATOM     25  O   UNL     1       8.241   4.051  17.657  0.00  0.00    +0.000 OA
ATOM     26  H   UNL     1       7.843   3.177  17.842  0.00  0.00    +0.000 HD
ENDBRANCH  21  25
ENDBRANCH  20  21
ENDBRANCH   4  20
TORSDOF 7
ENDMDL
MODEL 8
REMARK VINA RESULT:      -6.7      0.823      1.451
REMARK  Name = 
REMARK  7 active torsions:
REMARK  status: ('A' for Active; 'I' for Inactive)
REMARK    1  A    between atoms: N_6  and  C_7
REMARK    2  A    between atoms: C_9  and  O_10
REMARK    3  A    between atoms: C_11  and  O_12
REMARK    4  A    between atoms: O_12  and  P_13
REMARK    5  A    between atoms: P_13  and  O_15
REMARK    6  A    between atoms: P_13  and  O_16
REMARK    7  A    between atoms: C_19  and  N_20
REMARK                            x       y       z     vdW  Elec       q    Type
REMARK                         _______ _______ _______ _____ _____    ______ ____
ROOT
ATOM      1  C   UNL     1       2.993   4.880  18.886  0.00  0.00    +0.000 C 
ATOM      2  C   UNL     1       2.991   4.500  20.357  0.00  0.00    +0.000 C 
ATOM      3  C   UNL     1       1.677   5.097  20.779  0.00  0.00    +0.000 C 
ATOM      4  C   UNL     1       1.679   6.432  20.023  0.00  0.00    +0.000 C 
ATOM      5  O   UNL     1       2.495   6.235  18.851  0.00  0.00    +0.000 OA
ENDROOT
BRANCH   1  11
ATOM      6  O   UNL     1       7.743   4.522  16.190  0.00  0.00    +0.000 OA
ATOM      7  C   UNL     1       6.745   4.606  16.895  0.00  0.00    +0.000 A 
ATOM      8  N   UNL     1       5.813   3.594  16.920  0.00  0.00    +0.000 N 
ATOM      9  C   UNL     1       4.565   3.648  17.492  0.00  0.00    +0.000 A 
ATOM     10  O   UNL     1       3.766   2.737  17.300  0.00  0.00    +0.000 OA
ATOM     11  N   UNL     1       4.302   4.785  18.255  0.00  0.00    +0.000 N 
ATOM     12  C   UNL     1       5.215   5.826  18.340  0.00  0.00    +0.000 A 
ATOM     13  C   UNL     1       6.395   5.770  17.716  0.00  0.00    +0.000 A 
ATOM     14  H   UNL     1       6.002   2.789  16.341  0.00  0.00    +0.000 HD
BRANCH  13  15
ATOM     15  N   UNL     1       7.296   6.879  17.857  0.00  0.00    +0.000 N 
ATOM     16  O   UNL     1       7.231   7.782  17.020  0.00  0.00    +0.000 OA
ATOM     17  O   UNL     1       8.124   6.827  18.781  0.00  0.00    +0.000 OA
ENDBRANCH  13  15
ENDBRANCH   1  11
BRANCH   3  18
ATOM     18  O   UNL     1       0.644   4.223  20.315  0.00  0.00    +0.000 OA
ATOM     19  H   UNL     1      -0.207   4.501  20.700  0.00  0.00    +0.000 HD
ENDBRANCH   3  18
BRANCH   4  20
ATOM     20  O   UNL     1       2.178   7.513  20.810  0.00  0.00    +0.000 OA
BRANCH  20  21
ATOM     21  P   UNL     1       1.142   8.722  20.990  0.00  0.00    +0.000 P 
ATOM     22  O   UNL     1       0.961   9.623  19.814  0.00  0.00    +0.000 OA
BRANCH  21  23
ATOM     23  O   UNL     1      -0.174   7.983  21.500  0.00  0.00    +0.000 OA
ATOM     24  H   UNL     1       0.035   7.312  22.177  0.00  0.00    +0.000 HD
ENDBRANCH  21  23
BRANCH  21  25
ATOM     25  O   UNL     1       1.549   9.512  22.311  0.00  0.00    +0.000 OA
ATOM     26  H   UNL     1       2.348   9.095  22.689  0.00  0.00    +0.000 HD
ENDBRANCH  21  25
ENDBRANCH  20  21
ENDBRANCH   4  20
TORSDOF 7
ENDMDL
MODEL 9
REMARK VINA RESULT:      -6.7      2.836      6.077
REMARK  Name = 
REMARK  7 active torsions:
REMARK  status: ('A' for Active; 'I' for Inactive)
REMARK    1  A    between atoms: N_6  and  C_7
REMARK    2  A    between atoms: C_9  and  O_10
REMARK    3  A    between atoms: C_11  and  O_12
REMARK    4  A    between atoms: O_12  and  P_13
REMARK    5  A    between atoms: P_13  and  O_15
REMARK    6  A    between atoms: P_13  and  O_16
REMARK    7  A    between atoms: C_19  and  N_20
REMARK                            x       y       z     vdW  Elec       q    Type
REMARK                         _______ _______ _______ _____ _____    ______ ____
ROOT
ATOM      1  C   UNL     1       2.993   4.307  18.812  0.00  0.00    +0.000 C 
ATOM      2  C   UNL     1       2.467   3.918  17.441  0.00  0.00    +0.000 C 
ATOM      3  C   UNL     1       3.484   2.878  17.057  0.00  0.00    +0.000 C 
ATOM      4  C   UNL     1       4.789   3.513  17.559  0.00  0.00    +0.000 C 
ATOM      5  O   UNL     1       4.427   4.374  18.656  0.00  0.00    +0.000 OA
ENDROOT
BRANCH   1  11
ATOM      6  O   UNL     1       1.280   9.064  20.909  0.00  0.00    +0.000 OA
ATOM      7  C   UNL     1       1.566   8.003  20.368  0.00  0.00    +0.000 A 
ATOM      8  N   UNL     1       1.625   6.836  21.094  0.00  0.00    +0.000 N 
ATOM      9  C   UNL     1       2.132   5.632  20.665  0.00  0.00    +0.000 A 
ATOM     10  O   UNL     1       2.281   4.714  21.464  0.00  0.00    +0.000 OA
ATOM     11  N   UNL     1       2.460   5.567  19.311  0.00  0.00    +0.000 N 
ATOM     12  C   UNL     1       2.366   6.680  18.490  0.00  0.00    +0.000 A 
ATOM     13  C   UNL     1       1.931   7.854  18.955  0.00  0.00    +0.000 A 
ATOM     14  H   UNL     1       1.414   6.903  22.079  0.00  0.00    +0.000 HD
BRANCH  13  15
ATOM     15  N   UNL     1       1.848   8.962  18.045  0.00  0.00    +0.000 N 
ATOM     16  O   UNL     1       0.748   9.498  17.891  0.00  0.00    +0.000 OA
ATOM     17  O   UNL     1       2.879   9.269  17.425  0.00  0.00    +0.000 OA
ENDBRANCH  13  15
ENDBRANCH   1  11
BRANCH   3  18
ATOM     18  O   UNL     1       3.162   1.683  17.774  0.00  0.00    +0.000 OA
ATOM     19  H   UNL     1       3.065   0.948  17.142  0.00  0.00    +0.000 HD
ENDBRANCH   3  18
BRANCH   4  20
ATOM     20  O   UNL     1       5.472   4.247  16.544  0.00  0.00    +0.000 OA
BRANCH  20  21
ATOM     21  P   UNL     1       6.731   5.082  17.079  0.00  0.00    +0.000 P 
ATOM     22  O   UNL     1       7.670   4.361  17.988  0.00  0.00    +0.000 OA
BRANCH  21  23
ATOM     23  O   UNL     1       7.374   5.648  15.734  0.00  0.00    +0.000 OA
ATOM     24  H   UNL     1       7.616   4.925  15.125  0.00  0.00    +0.000 HD
ENDBRANCH  21  23
BRANCH  21  25
ATOM     25  O   UNL     1       6.179   6.433  17.714  0.00  0.00    +0.000 OA
ATOM     26  H   UNL     1       6.043   7.082  16.996  0.00  0.00    +0.000 HD
ENDBRANCH  21  25
ENDBRANCH  20  21
ENDBRANCH   4  20
TORSDOF 7
ENDMDL
