MODEL 1
REMARK VINA RESULT:      -7.6      0.000      0.000
REMARK  Name = 
REMARK  4 active torsions:
REMARK  status: ('A' for Active; 'I' for Inactive)
REMARK    1  A    between atoms: C_2  and  O_3
REMARK    2  A    between atoms: C_2  and  C_4
REMARK    3  A    between atoms: N_6  and  C_7
REMARK    4  A    between atoms: C_14  and  C_15
REMARK                            x       y       z     vdW  Elec       q    Type
REMARK                         _______ _______ _______ _____ _____    ______ ____
ROOT
ATOM      1  C   UNL     1       6.929   5.269  18.031  0.00  0.00    +0.000 A 
ATOM      2  C   UNL     1       7.459   5.279  16.755  0.00  0.00    +0.000 A 
ATOM      3  N   UNL     1       6.514   4.754  15.906  0.00  0.00    +0.000 N 
ATOM      4  N   UNL     1       5.384   4.436  16.574  0.00  0.00    +0.000 NA
ATOM      5  C   UNL     1       5.625   4.705  17.869  0.00  0.00    +0.000 A 
ENDROOT
BRANCH   3   6
ATOM      6  C   UNL     1       6.640   4.534  14.506  0.00  0.00    +0.000 A 
ATOM      7  C   UNL     1       7.608   5.217  13.753  0.00  0.00    +0.000 A 
ATOM      8  C   UNL     1       7.726   4.982  12.381  0.00  0.00    +0.000 A 
ATOM      9  C   UNL     1       6.879   4.073  11.751  0.00  0.00    +0.000 A 
ATOM     10  C   UNL     1       5.916   3.392  12.491  0.00  0.00    +0.000 A 
ATOM     11  C   UNL     1       5.796   3.615  13.866  0.00  0.00    +0.000 A 
ENDBRANCH   3   6
BRANCH   5  12
ATOM     12  C   UNL     1       4.610   4.380  18.881  0.00  0.00    +0.000 A 
ATOM     13  C   UNL     1       4.456   3.082  19.373  0.00  0.00    +0.000 A 
ATOM     14  C   UNL     1       3.468   2.836  20.313  0.00  0.00    +0.000 A 
ATOM     15  N   UNL     1       2.616   3.775  20.773  0.00  0.00    +0.000 NA
ATOM     16  C   UNL     1       2.766   5.019  20.274  0.00  0.00    +0.000 A 
ATOM     17  C   UNL     1       3.733   5.366  19.343  0.00  0.00    +0.000 A 
ENDBRANCH   5  12
BRANCH   1  19
ATOM     18  O   UNL     1       7.505   5.259  20.325  0.00  0.00    +0.000 OA
ATOM     19  C   UNL     1       7.582   5.780  19.223  0.00  0.00    +0.000 C 
BRANCH  19  20
ATOM     20  O   UNL     1       8.320   6.903  19.025  0.00  0.00    +0.000 OA
ATOM     21  H   UNL     1       9.026   6.796  18.365  0.00  0.00    +0.000 HD
ENDBRANCH  19  20
ENDBRANCH   1  19
TORSDOF 4
ENDMDL
MODEL 2
REMARK VINA RESULT:      -7.6      0.056      1.050
REMARK  Name = 
REMARK  4 active torsions:
REMARK  status: ('A' for Active; 'I' for Inactive)
REMARK    1  A    between atoms: C_2  and  O_3
REMARK    2  A    between atoms: C_2  and  C_4
REMARK    3  A    between atoms: N_6  and  C_7
REMARK    4  A    between atoms: C_14  and  C_15
REMARK                            x       y       z     vdW  Elec       q    Type
REMARK                         _______ _______ _______ _____ _____    ______ ____
ROOT
ATOM      1  C   UNL     1       6.883   5.267  18.010  0.00  0.00    +0.000 A 
ATOM      2  C   UNL     1       7.432   5.271  16.742  0.00  0.00    +0.000 A 
ATOM      3  N   UNL     1       6.491   4.765  15.878  0.00  0.00    +0.000 N 
ATOM      4  N   UNL     1       5.346   4.464  16.528  0.00  0.00    +0.000 NA
ATOM      5  C   UNL     1       5.572   4.726  17.828  0.00  0.00    +0.000 A 
ENDROOT
BRANCH   3   6
ATOM      6  C   UNL     1       6.634   4.547  14.479  0.00  0.00    +0.000 A 
ATOM      7  C   UNL     1       7.594   5.248  13.734  0.00  0.00    +0.000 A 
ATOM      8  C   UNL     1       7.729   5.015  12.363  0.00  0.00    +0.000 A 
ATOM      9  C   UNL     1       6.906   4.088  11.727  0.00  0.00    +0.000 A 
ATOM     10  C   UNL     1       5.951   3.388  12.460  0.00  0.00    +0.000 A 
ATOM     11  C   UNL     1       5.815   3.609  13.833  0.00  0.00    +0.000 A 
ENDBRANCH   3   6
BRANCH   5  12
ATOM     12  C   UNL     1       4.537   4.415  18.824  0.00  0.00    +0.000 A 
ATOM     13  C   UNL     1       3.704   5.405  19.349  0.00  0.00    +0.000 A 
ATOM     14  C   UNL     1       2.760   5.051  20.299  0.00  0.00    +0.000 A 
ATOM     15  N   UNL     1       2.606   3.799  20.776  0.00  0.00    +0.000 NA
ATOM     16  C   UNL     1       3.431   2.858  20.274  0.00  0.00    +0.000 A 
ATOM     17  C   UNL     1       4.396   3.112  19.311  0.00  0.00    +0.000 A 
ENDBRANCH   5  12
BRANCH   1  19
ATOM     18  O   UNL     1       7.424   5.243  20.313  0.00  0.00    +0.000 OA
ATOM     19  C   UNL     1       7.527   5.764  19.213  0.00  0.00    +0.000 C 
BRANCH  19  20
ATOM     20  O   UNL     1       8.288   6.875  19.028  0.00  0.00    +0.000 OA
ATOM     21  H   UNL     1       8.525   7.036  18.099  0.00  0.00    +0.000 HD
ENDBRANCH  19  20
ENDBRANCH   1  19
TORSDOF 4
ENDMDL
MODEL 3
REMARK VINA RESULT:      -7.5      0.106      1.509
REMARK  Name = 
REMARK  4 active torsions:
REMARK  status: ('A' for Active; 'I' for Inactive)
REMARK    1  A    between atoms: C_2  and  O_3
REMARK    2  A    between atoms: C_2  and  C_4
REMARK    3  A    between atoms: N_6  and  C_7
REMARK    4  A    between atoms: C_14  and  C_15
REMARK                            x       y       z     vdW  Elec       q    Type
REMARK                         _______ _______ _______ _____ _____    ______ ____
ROOT
ATOM      1  C   UNL     1       6.874   5.279  18.005  0.00  0.00    +0.000 A 
ATOM      2  C   UNL     1       7.430   5.262  16.739  0.00  0.00    +0.000 A 
ATOM      3  N   UNL     1       6.483   4.768  15.875  0.00  0.00    +0.000 N 
ATOM      4  N   UNL     1       5.329   4.496  16.521  0.00  0.00    +0.000 NA
ATOM      5  C   UNL     1       5.554   4.764  17.820  0.00  0.00    +0.000 A 
ENDROOT
BRANCH   3   6
ATOM      6  C   UNL     1       6.628   4.535  14.478  0.00  0.00    +0.000 A 
ATOM      7  C   UNL     1       5.847   3.571  13.823  0.00  0.00    +0.000 A 
ATOM      8  C   UNL     1       5.994   3.361  12.450  0.00  0.00    +0.000 A 
ATOM      9  C   UNL     1       6.921   4.104  11.724  0.00  0.00    +0.000 A 
ATOM     10  C   UNL     1       7.700   5.064  12.367  0.00  0.00    +0.000 A 
ATOM     11  C   UNL     1       7.554   5.286  13.739  0.00  0.00    +0.000 A 
ENDBRANCH   3   6
BRANCH   5  12
ATOM     12  C   UNL     1       4.508   4.483  18.813  0.00  0.00    +0.000 A 
ATOM     13  C   UNL     1       3.645   5.480  19.271  0.00  0.00    +0.000 A 
ATOM     14  C   UNL     1       2.691   5.155  20.223  0.00  0.00    +0.000 A 
ATOM     15  N   UNL     1       2.555   3.927  20.762  0.00  0.00    +0.000 NA
ATOM     16  C   UNL     1       3.408   2.979  20.322  0.00  0.00    +0.000 A 
ATOM     17  C   UNL     1       4.385   3.203  19.364  0.00  0.00    +0.000 A 
ENDBRANCH   5  12
BRANCH   1  19
ATOM     18  O   UNL     1       7.435   5.239  20.303  0.00  0.00    +0.000 OA
ATOM     19  C   UNL     1       7.523   5.772  19.207  0.00  0.00    +0.000 C 
BRANCH  19  20
ATOM     20  O   UNL     1       8.268   6.894  19.027  0.00  0.00    +0.000 OA
ATOM     21  H   UNL     1       7.766   7.643  18.662  0.00  0.00    +0.000 HD
ENDBRANCH  19  20
ENDBRANCH   1  19
TORSDOF 4
ENDMDL
MODEL 4
REMARK VINA RESULT:      -7.5      0.462      1.175
REMARK  Name = 
REMARK  4 active torsions:
REMARK  status: ('A' for Active; 'I' for Inactive)
REMARK    1  A    between atoms: C_2  and  O_3
REMARK    2  A    between atoms: C_2  and  C_4
REMARK    3  A    between atoms: N_6  and  C_7
REMARK    4  A    between atoms: C_14  and  C_15
REMARK                            x       y       z     vdW  Elec       q    Type
REMARK                         _______ _______ _______ _____ _____    ______ ____
ROOT
ATOM      1  C   UNL     1       6.839   5.357  17.972  0.00  0.00    +0.000 A 
ATOM      2  C   UNL     1       7.413   5.233  16.721  0.00  0.00    +0.000 A 
ATOM      3  N   UNL     1       6.429   4.834  15.849  0.00  0.00    +0.000 N 
ATOM      4  N   UNL     1       5.238   4.726  16.476  0.00  0.00    +0.000 NA
ATOM      5  C   UNL     1       5.469   5.003  17.772  0.00  0.00    +0.000 A 
ENDROOT
BRANCH   3   6
ATOM      6  C   UNL     1       6.571   4.543  14.463  0.00  0.00    +0.000 A 
ATOM      7  C   UNL     1       5.710   3.636  13.824  0.00  0.00    +0.000 A 
ATOM      8  C   UNL     1       5.855   3.369  12.461  0.00  0.00    +0.000 A 
ATOM      9  C   UNL     1       6.861   3.996  11.729  0.00  0.00    +0.000 A 
ATOM     10  C   UNL     1       7.719   4.896  12.355  0.00  0.00    +0.000 A 
ATOM     11  C   UNL     1       7.576   5.176  13.717  0.00  0.00    +0.000 A 
ENDBRANCH   3   6
BRANCH   5  12
ATOM     12  C   UNL     1       4.377   4.883  18.748  0.00  0.00    +0.000 A 
ATOM     13  C   UNL     1       4.098   3.675  19.390  0.00  0.00    +0.000 A 
ATOM     14  C   UNL     1       3.043   3.622  20.287  0.00  0.00    +0.000 A 
ATOM     15  N   UNL     1       2.240   4.668  20.566  0.00  0.00    +0.000 NA
ATOM     16  C   UNL     1       2.511   5.823  19.923  0.00  0.00    +0.000 A 
ATOM     17  C   UNL     1       3.552   5.978  19.021  0.00  0.00    +0.000 A 
ENDBRANCH   5  12
BRANCH   1  19
ATOM     18  O   UNL     1       7.417   5.260  20.264  0.00  0.00    +0.000 OA
ATOM     19  C   UNL     1       7.521   5.803  19.175  0.00  0.00    +0.000 C 
BRANCH  19  20
ATOM     20  O   UNL     1       8.317   6.890  19.002  0.00  0.00    +0.000 OA
ATOM     21  H   UNL     1       9.142   6.856  19.517  0.00  0.00    +0.000 HD
ENDBRANCH  19  20
ENDBRANCH   1  19
TORSDOF 4
ENDMDL
MODEL 5
REMARK VINA RESULT:      -7.4      1.559      1.720
REMARK  Name = 
REMARK  4 active torsions:
REMARK  status: ('A' for Active; 'I' for Inactive)
REMARK    1  A    between atoms: C_2  and  O_3
REMARK    2  A    between atoms: C_2  and  C_4
REMARK    3  A    between atoms: N_6  and  C_7
REMARK    4  A    between atoms: C_14  and  C_15
REMARK                            x       y       z     vdW  Elec       q    Type
REMARK                         _______ _______ _______ _____ _____    ______ ____
ROOT
ATOM      1  C   UNL     1       5.599   4.776  17.886  0.00  0.00    +0.000 A 
ATOM      2  C   UNL     1       6.443   5.005  16.815  0.00  0.00    +0.000 A 
ATOM      3  N   UNL     1       5.846   4.483  15.694  0.00  0.00    +0.000 N 
ATOM      4  N   UNL     1       4.639   3.953  15.987  0.00  0.00    +0.000 NA
ATOM      5  C   UNL     1       4.484   4.087  17.316  0.00  0.00    +0.000 A 
ENDROOT
BRANCH   3   6
ATOM      6  C   UNL     1       6.372   4.454  14.371  0.00  0.00    +0.000 A 
ATOM      7  C   UNL     1       7.437   5.289  14.000  0.00  0.00    +0.000 A 
ATOM      8  C   UNL     1       7.948   5.242  12.701  0.00  0.00    +0.000 A 
ATOM      9  C   UNL     1       7.400   4.368  11.765  0.00  0.00    +0.000 A 
ATOM     10  C   UNL     1       6.343   3.536  12.126  0.00  0.00    +0.000 A 
ATOM     11  C   UNL     1       5.830   3.571  13.426  0.00  0.00    +0.000 A 
ENDBRANCH   3   6
BRANCH   5  12
ATOM     12  C   UNL     1       3.295   3.521  17.971  0.00  0.00    +0.000 A 
ATOM     13  C   UNL     1       3.353   2.324  18.687  0.00  0.00    +0.000 A 
ATOM     14  C   UNL     1       2.193   1.834  19.265  0.00  0.00    +0.000 A 
ATOM     15  N   UNL     1       0.989   2.432  19.160  0.00  0.00    +0.000 NA
ATOM     16  C   UNL     1       0.946   3.577  18.449  0.00  0.00    +0.000 A 
ATOM     17  C   UNL     1       2.054   4.153  17.846  0.00  0.00    +0.000 A 
ENDBRANCH   5  12
BRANCH   1  19
ATOM     18  O   UNL     1       6.923   5.216  19.796  0.00  0.00    +0.000 OA
ATOM     19  C   UNL     1       5.829   5.208  19.253  0.00  0.00    +0.000 C 
BRANCH  19  20
ATOM     20  O   UNL     1       4.715   5.630  19.906  0.00  0.00    +0.000 OA
ATOM     21  H   UNL     1       4.889   5.955  20.806  0.00  0.00    +0.000 HD
ENDBRANCH  19  20
ENDBRANCH   1  19
TORSDOF 4
ENDMDL
MODEL 6
REMARK VINA RESULT:      -7.4      1.827      6.204
REMARK  Name = 
REMARK  4 active torsions:
REMARK  status: ('A' for Active; 'I' for Inactive)
REMARK    1  A    between atoms: C_2  and  O_3
REMARK    2  A    between atoms: C_2  and  C_4
REMARK    3  A    between atoms: N_6  and  C_7
REMARK    4  A    between atoms: C_14  and  C_15
REMARK                            x       y       z     vdW  Elec       q    Type
REMARK                         _______ _______ _______ _____ _____    ______ ____
ROOT
ATOM      1  C   UNL     1       6.211   4.592  17.699  0.00  0.00    +0.000 A 
ATOM      2  C   UNL     1       5.253   4.405  18.678  0.00  0.00    +0.000 A 
ATOM      3  N   UNL     1       4.110   3.952  18.064  0.00  0.00    +0.000 N 
ATOM      4  N   UNL     1       4.298   3.809  16.734  0.00  0.00    +0.000 NA
ATOM      5  C   UNL     1       5.552   4.225  16.484  0.00  0.00    +0.000 A 
ENDROOT
BRANCH   3   6
ATOM      6  C   UNL     1       2.858   3.665  18.676  0.00  0.00    +0.000 A 
ATOM      7  C   UNL     1       2.006   2.682  18.147  0.00  0.00    +0.000 A 
ATOM      8  C   UNL     1       0.785   2.404  18.766  0.00  0.00    +0.000 A 
ATOM      9  C   UNL     1       0.403   3.105  19.907  0.00  0.00    +0.000 A 
ATOM     10  C   UNL     1       1.243   4.081  20.438  0.00  0.00    +0.000 A 
ATOM     11  C   UNL     1       2.471   4.360  19.830  0.00  0.00    +0.000 A 
ENDBRANCH   3   6
BRANCH   5  12
ATOM     12  C   UNL     1       6.039   4.279  15.098  0.00  0.00    +0.000 A 
ATOM     13  C   UNL     1       5.465   3.502  14.090  0.00  0.00    +0.000 A 
ATOM     14  C   UNL     1       5.982   3.584  12.807  0.00  0.00    +0.000 A 
ATOM     15  N   UNL     1       7.034   4.357  12.467  0.00  0.00    +0.000 NA
ATOM     16  C   UNL     1       7.589   5.086  13.457  0.00  0.00    +0.000 A 
ATOM     17  C   UNL     1       7.134   5.082  14.767  0.00  0.00    +0.000 A 
ENDBRANCH   5  12
BRANCH   1  19
ATOM     18  O   UNL     1       7.905   6.165  18.197  0.00  0.00    +0.000 OA
ATOM     19  C   UNL     1       7.580   5.020  17.924  0.00  0.00    +0.000 C 
BRANCH  19  20
ATOM     20  O   UNL     1       8.505   4.030  17.822  0.00  0.00    +0.000 OA
ATOM     21  H   UNL     1       9.164   4.036  18.537  0.00  0.00    +0.000 HD
ENDBRANCH  19  20
ENDBRANCH   1  19
TORSDOF 4
ENDMDL
MODEL 7
REMARK VINA RESULT:      -7.4      1.575      2.030
REMARK  Name = 
REMARK  4 active torsions:
REMARK  status: ('A' for Active; 'I' for Inactive)
REMARK    1  A    between atoms: C_2  and  O_3
REMARK    2  A    between atoms: C_2  and  C_4
REMARK    3  A    between atoms: N_6  and  C_7
REMARK    4  A    between atoms: C_14  and  C_15
REMARK                            x       y       z     vdW  Elec       q    Type
REMARK                         _______ _______ _______ _____ _____    ______ ____
ROOT
ATOM      1  C   UNL     1       5.577   4.760  17.877  0.00  0.00    +0.000 A 
ATOM      2  C   UNL     1       6.423   4.987  16.808  0.00  0.00    +0.000 A 
ATOM      3  N   UNL     1       5.830   4.458  15.687  0.00  0.00    +0.000 N 
ATOM      4  N   UNL     1       4.623   3.928  15.980  0.00  0.00    +0.000 NA
ATOM      5  C   UNL     1       4.464   4.067  17.308  0.00  0.00    +0.000 A 
ENDROOT
BRANCH   3   6
ATOM      6  C   UNL     1       6.359   4.424  14.366  0.00  0.00    +0.000 A 
ATOM      7  C   UNL     1       5.827   3.558  13.398  0.00  0.00    +0.000 A 
ATOM      8  C   UNL     1       6.351   3.544  12.103  0.00  0.00    +0.000 A 
ATOM      9  C   UNL     1       7.407   4.386  11.766  0.00  0.00    +0.000 A 
ATOM     10  C   UNL     1       7.940   5.249  12.721  0.00  0.00    +0.000 A 
ATOM     11  C   UNL     1       7.418   5.275  14.018  0.00  0.00    +0.000 A 
ENDBRANCH   3   6
BRANCH   5  12
ATOM     12  C   UNL     1       3.275   3.502  17.962  0.00  0.00    +0.000 A 
ATOM     13  C   UNL     1       3.315   2.269  18.616  0.00  0.00    +0.000 A 
ATOM     14  C   UNL     1       2.154   1.783  19.197  0.00  0.00    +0.000 A 
ATOM     15  N   UNL     1       0.966   2.418  19.150  0.00  0.00    +0.000 NA
ATOM     16  C   UNL     1       0.940   3.598  18.498  0.00  0.00    +0.000 A 
ATOM     17  C   UNL     1       2.050   4.173  17.898  0.00  0.00    +0.000 A 
ENDBRANCH   5  12
BRANCH   1  19
ATOM     18  O   UNL     1       6.890   5.183  19.799  0.00  0.00    +0.000 OA
ATOM     19  C   UNL     1       5.803   5.199  19.243  0.00  0.00    +0.000 C 
BRANCH  19  20
ATOM     20  O   UNL     1       4.692   5.655  19.880  0.00  0.00    +0.000 OA
ATOM     21  H   UNL     1       4.835   6.484  20.368  0.00  0.00    +0.000 HD
ENDBRANCH  19  20
ENDBRANCH   1  19
TORSDOF 4
ENDMDL
MODEL 8
REMARK VINA RESULT:      -7.4      1.554      2.243
REMARK  Name = 
REMARK  4 active torsions:
REMARK  status: ('A' for Active; 'I' for Inactive)
REMARK    1  A    between atoms: C_2  and  O_3
REMARK    2  A    between atoms: C_2  and  C_4
REMARK    3  A    between atoms: N_6  and  C_7
REMARK    4  A    between atoms: C_14  and  C_15
REMARK                            x       y       z     vdW  Elec       q    Type
REMARK                         _______ _______ _______ _____ _____    ______ ____
ROOT
ATOM      1  C   UNL     1       5.576   4.765  17.876  0.00  0.00    +0.000 A 
ATOM      2  C   UNL     1       6.426   4.990  16.810  0.00  0.00    +0.000 A 
ATOM      3  N   UNL     1       5.834   4.465  15.686  0.00  0.00    +0.000 N 
ATOM      4  N   UNL     1       4.625   3.937  15.975  0.00  0.00    +0.000 NA
ATOM      5  C   UNL     1       4.463   4.075  17.303  0.00  0.00    +0.000 A 
ENDROOT
BRANCH   3   6
ATOM      6  C   UNL     1       6.367   4.431  14.367  0.00  0.00    +0.000 A 
ATOM      7  C   UNL     1       5.842   3.560  13.399  0.00  0.00    +0.000 A 
ATOM      8  C   UNL     1       6.368   3.546  12.106  0.00  0.00    +0.000 A 
ATOM      9  C   UNL     1       7.423   4.393  11.770  0.00  0.00    +0.000 A 
ATOM     10  C   UNL     1       7.949   5.260  12.725  0.00  0.00    +0.000 A 
ATOM     11  C   UNL     1       7.423   5.286  14.020  0.00  0.00    +0.000 A 
ENDBRANCH   3   6
BRANCH   5  12
ATOM     12  C   UNL     1       3.270   3.513  17.953  0.00  0.00    +0.000 A 
ATOM     13  C   UNL     1       2.023   4.134  17.859  0.00  0.00    +0.000 A 
ATOM     14  C   UNL     1       0.941   3.564  18.510  0.00  0.00    +0.000 A 
ATOM     15  N   UNL     1       1.017   2.446  19.260  0.00  0.00    +0.000 NA
ATOM     16  C   UNL     1       2.233   1.869  19.356  0.00  0.00    +0.000 A 
ATOM     17  C   UNL     1       3.370   2.356  18.731  0.00  0.00    +0.000 A 
ENDBRANCH   5  12
BRANCH   1  19
ATOM     18  O   UNL     1       6.889   5.210  19.792  0.00  0.00    +0.000 OA
ATOM     19  C   UNL     1       5.798   5.201  19.243  0.00  0.00    +0.000 C 
BRANCH  19  20
ATOM     20  O   UNL     1       4.681   5.626  19.890  0.00  0.00    +0.000 OA
ATOM     21  H   UNL     1       4.198   6.326  19.417  0.00  0.00    +0.000 HD
ENDBRANCH  19  20
ENDBRANCH   1  19
TORSDOF 4
ENDMDL
MODEL 9
REMARK VINA RESULT:      -7.4      1.822      6.149
REMARK  Name = 
REMARK  4 active torsions:
REMARK  status: ('A' for Active; 'I' for Inactive)
REMARK    1  A    between atoms: C_2  and  O_3
REMARK    2  A    between atoms: C_2  and  C_4
REMARK    3  A    between atoms: N_6  and  C_7
REMARK    4  A    between atoms: C_14  and  C_15
REMARK                            x       y       z     vdW  Elec       q    Type
REMARK                         _______ _______ _______ _____ _____    ______ ____
ROOT
ATOM      1  C   UNL     1       6.211   4.591  17.721  0.00  0.00    +0.000 A 
ATOM      2  C   UNL     1       5.258   4.407  18.705  0.00  0.00    +0.000 A 
ATOM      3  N   UNL     1       4.111   3.957  18.097  0.00  0.00    +0.000 N 
ATOM      4  N   UNL     1       4.292   3.811  16.766  0.00  0.00    +0.000 NA
ATOM      5  C   UNL     1       5.546   4.224  16.511  0.00  0.00    +0.000 A 
ENDROOT
BRANCH   3   6
ATOM      6  C   UNL     1       2.861   3.674  18.715  0.00  0.00    +0.000 A 
ATOM      7  C   UNL     1       2.438   4.388  19.847  0.00  0.00    +0.000 A 
ATOM      8  C   UNL     1       1.203   4.105  20.436  0.00  0.00    +0.000 A 
ATOM      9  C   UNL     1       0.387   3.108  19.906  0.00  0.00    +0.000 A 
ATOM     10  C   UNL     1       0.800   2.395  18.783  0.00  0.00    +0.000 A 
ATOM     11  C   UNL     1       2.031   2.677  18.182  0.00  0.00    +0.000 A 
ENDBRANCH   3   6
BRANCH   5  12
ATOM     12  C   UNL     1       6.027   4.275  15.123  0.00  0.00    +0.000 A 
ATOM     13  C   UNL     1       5.428   3.522  14.111  0.00  0.00    +0.000 A 
ATOM     14  C   UNL     1       5.940   3.599  12.826  0.00  0.00    +0.000 A 
ATOM     15  N   UNL     1       7.010   4.345  12.486  0.00  0.00    +0.000 NA
ATOM     16  C   UNL     1       7.590   5.052  13.478  0.00  0.00    +0.000 A 
ATOM     17  C   UNL     1       7.143   5.051  14.791  0.00  0.00    +0.000 A 
ENDBRANCH   5  12
BRANCH   1  19
ATOM     18  O   UNL     1       7.911   6.158  18.219  0.00  0.00    +0.000 OA
ATOM     19  C   UNL     1       7.582   5.015  17.941  0.00  0.00    +0.000 C 
BRANCH  19  20
ATOM     20  O   UNL     1       8.506   4.025  17.825  0.00  0.00    +0.000 OA
ATOM     21  H   UNL     1       8.122   3.154  17.623  0.00  0.00    +0.000 HD
ENDBRANCH  19  20
ENDBRANCH   1  19
TORSDOF 4
ENDMDL
