MODEL 1
REMARK VINA RESULT:      -7.4      0.000      0.000
REMARK  Name = 
REMARK  7 active torsions:
REMARK  status: ('A' for Active; 'I' for Inactive)
REMARK    1  A    between atoms: C_1  and  C_2
REMARK    2  A    between atoms: C_5  and  C_6
REMARK    3  A    between atoms: N_8  and  C_9
REMARK    4  A    between atoms: C_9  and  C_10
REMARK    5  A    between atoms: C_10  and  O_11
REMARK    6  A    between atoms: C_14  and  N_15
REMARK    7  A    between atoms: C_16  and  C_18
REMARK                            x       y       z     vdW  Elec       q    Type
REMARK                         _______ _______ _______ _____ _____    ______ ____
ROOT
ATOM      1  C   UNL     1       7.351   5.524  14.225  0.00  0.00    +0.000 C 
ATOM      2  C   UNL     1       6.256   4.995  15.104  0.00  0.00    +0.000 A 
ATOM      3  C   UNL     1       6.141   3.624  15.337  0.00  0.00    +0.000 A 
ATOM      4  C   UNL     1       5.138   3.139  16.175  0.00  0.00    +0.000 A 
ATOM      5  C   UNL     1       4.234   4.010  16.808  0.00  0.00    +0.000 A 
ATOM      6  C   UNL     1       4.346   5.395  16.576  0.00  0.00    +0.000 A 
ATOM      7  C   UNL     1       5.347   5.874  15.714  0.00  0.00    +0.000 A 
ENDROOT
BRANCH   5   8
ATOM      8  C   UNL     1       3.156   3.439  17.596  0.00  0.00    +0.000 A 
ATOM      9  C   UNL     1       3.304   2.818  18.818  0.00  0.00    +0.000 A 
ATOM     10  N   UNL     1       2.041   2.444  19.154  0.00  0.00    +0.000 N 
ATOM     11  N   UNL     1       1.157   2.788  18.198  0.00  0.00    +0.000 NA
ATOM     12  N   UNL     1       1.835   3.390  17.227  0.00  0.00    +0.000 NA
BRANCH  10  13
ATOM     13  C   UNL     1       1.624   1.741  20.347  0.00  0.00    +0.000 C 
BRANCH  13  14
ATOM     14  C   UNL     1       1.205   2.681  21.468  0.00  0.00    +0.000 C 
BRANCH  14  15
ATOM     15  O   UNL     1       2.340   3.222  22.138  0.00  0.00    +0.000 OA
ATOM     16  H   UNL     1       2.348   2.850  23.041  0.00  0.00    +0.000 HD
ENDBRANCH  14  15
ENDBRANCH  13  14
ENDBRANCH  10  13
ENDBRANCH   5   8
BRANCH   6  17
ATOM     17  N   UNL     1       3.490   6.305  17.239  0.00  0.00    +0.000 N 
ATOM     18  C   UNL     1       3.534   6.550  18.601  0.00  0.00    +0.000 C 
ATOM     19  O   UNL     1       4.269   5.988  19.405  0.00  0.00    +0.000 OA
ATOM     20  H   UNL     1       3.107   7.056  16.669  0.00  0.00    +0.000 HD
BRANCH  18  21
ATOM     21  C   UNL     1       2.621   7.674  19.010  0.00  0.00    +0.000 A 
ATOM     22  C   UNL     1       2.389   8.669  18.136  0.00  0.00    +0.000 A 
ATOM     23  C   UNL     1       1.506   9.778  18.534  0.00  0.00    +0.000 A 
ATOM     24  O   UNL     1       1.279  10.711  17.770  0.00  0.00    +0.000 OA
ATOM     25  C   UNL     1       0.918   9.707  19.881  0.00  0.00    +0.000 A 
ATOM     26  C   UNL     1       0.062  10.706  20.352  0.00  0.00    +0.000 A 
ATOM     27  C   UNL     1      -0.481  10.602  21.634  0.00  0.00    +0.000 A 
ATOM     28  C   UNL     1      -0.168   9.503  22.436  0.00  0.00    +0.000 A 
ATOM     29  C   UNL     1       0.685   8.508  21.960  0.00  0.00    +0.000 A 
ATOM     30  C   UNL     1       1.233   8.612  20.682  0.00  0.00    +0.000 A 
ATOM     31  O   UNL     1       2.065   7.606  20.278  0.00  0.00    +0.000 OA
ENDBRANCH  18  21
ENDBRANCH   6  17
TORSDOF 6
ENDMDL
MODEL 2
REMARK VINA RESULT:      -7.3      3.736      8.610
REMARK  Name = 
REMARK  7 active torsions:
REMARK  status: ('A' for Active; 'I' for Inactive)
REMARK    1  A    between atoms: C_1  and  C_2
REMARK    2  A    between atoms: C_5  and  C_6
REMARK    3  A    between atoms: N_8  and  C_9
REMARK    4  A    between atoms: C_9  and  C_10
REMARK    5  A    between atoms: C_10  and  O_11
REMARK    6  A    between atoms: C_14  and  N_15
REMARK    7  A    between atoms: C_16  and  C_18
REMARK                            x       y       z     vdW  Elec       q    Type
REMARK                         _______ _______ _______ _____ _____    ______ ____
ROOT
ATOM      1  C   UNL     1      -1.308  13.085  23.357  0.00  0.00    +0.000 C 
ATOM      2  C   UNL     1      -1.509  12.525  21.979  0.00  0.00    +0.000 A 
ATOM      3  C   UNL     1      -2.418  13.117  21.103  0.00  0.00    +0.000 A 
ATOM      4  C   UNL     1      -2.583  12.608  19.816  0.00  0.00    +0.000 A 
ATOM      5  C   UNL     1      -1.837  11.504  19.369  0.00  0.00    +0.000 A 
ATOM      6  C   UNL     1      -0.917  10.901  20.249  0.00  0.00    +0.000 A 
ATOM      7  C   UNL     1      -0.773  11.407  21.552  0.00  0.00    +0.000 A 
ENDROOT
BRANCH   5   8
ATOM      8  C   UNL     1      -2.118  10.964  18.050  0.00  0.00    +0.000 A 
ATOM      9  C   UNL     1      -2.979  11.520  17.128  0.00  0.00    +0.000 A 
ATOM     10  N   UNL     1      -2.924  10.669  16.069  0.00  0.00    +0.000 N 
ATOM     11  N   UNL     1      -2.098   9.634  16.314  0.00  0.00    +0.000 NA
ATOM     12  N   UNL     1      -1.606   9.799  17.537  0.00  0.00    +0.000 NA
BRANCH  10  13
ATOM     13  C   UNL     1      -3.647  10.777  14.821  0.00  0.00    +0.000 C 
BRANCH  13  14
ATOM     14  C   UNL     1      -3.444   9.570  13.917  0.00  0.00    +0.000 C 
BRANCH  14  15
ATOM     15  O   UNL     1      -2.319   9.750  13.061  0.00  0.00    +0.000 OA
ATOM     16  H   UNL     1      -2.052   8.866  12.744  0.00  0.00    +0.000 HD
ENDBRANCH  14  15
ENDBRANCH  13  14
ENDBRANCH  10  13
ENDBRANCH   5   8
BRANCH   6  17
ATOM     17  N   UNL     1      -0.111   9.824  19.817  0.00  0.00    +0.000 N 
ATOM     18  C   UNL     1       1.119   9.983  19.199  0.00  0.00    +0.000 C 
ATOM     19  O   UNL     1       1.638  11.054  18.906  0.00  0.00    +0.000 OA
ATOM     20  H   UNL     1      -0.249   8.938  20.298  0.00  0.00    +0.000 HD
BRANCH  18  21
ATOM     21  C   UNL     1       1.827   8.671  18.988  0.00  0.00    +0.000 A 
ATOM     22  C   UNL     1       2.661   8.549  17.942  0.00  0.00    +0.000 A 
ATOM     23  C   UNL     1       3.349   7.266  17.722  0.00  0.00    +0.000 A 
ATOM     24  O   UNL     1       4.109   7.110  16.770  0.00  0.00    +0.000 OA
ATOM     25  C   UNL     1       3.079   6.194  18.693  0.00  0.00    +0.000 A 
ATOM     26  C   UNL     1       3.686   4.941  18.577  0.00  0.00    +0.000 A 
ATOM     27  C   UNL     1       3.408   3.950  19.521  0.00  0.00    +0.000 A 
ATOM     28  C   UNL     1       2.530   4.216  20.573  0.00  0.00    +0.000 A 
ATOM     29  C   UNL     1       1.929   5.469  20.685  0.00  0.00    +0.000 A 
ATOM     30  C   UNL     1       2.200   6.458  19.741  0.00  0.00    +0.000 A 
ATOM     31  O   UNL     1       1.574   7.663  19.905  0.00  0.00    +0.000 OA
ENDBRANCH  18  21
ENDBRANCH   6  17
TORSDOF 6
ENDMDL
MODEL 3
REMARK VINA RESULT:      -7.2      2.971      5.315
REMARK  Name = 
REMARK  7 active torsions:
REMARK  status: ('A' for Active; 'I' for Inactive)
REMARK    1  A    between atoms: C_1  and  C_2
REMARK    2  A    between atoms: C_5  and  C_6
REMARK    3  A    between atoms: N_8  and  C_9
REMARK    4  A    between atoms: C_9  and  C_10
REMARK    5  A    between atoms: C_10  and  O_11
REMARK    6  A    between atoms: C_14  and  N_15
REMARK    7  A    between atoms: C_16  and  C_18
REMARK                            x       y       z     vdW  Elec       q    Type
REMARK                         _______ _______ _______ _____ _____    ______ ____
ROOT
ATOM      1  C   UNL     1       5.509   3.299  12.166  0.00  0.00    +0.000 C 
ATOM      2  C   UNL     1       5.976   4.031  13.391  0.00  0.00    +0.000 A 
ATOM      3  C   UNL     1       7.297   4.467  13.492  0.00  0.00    +0.000 A 
ATOM      4  C   UNL     1       7.719   5.167  14.620  0.00  0.00    +0.000 A 
ATOM      5  C   UNL     1       6.831   5.460  15.670  0.00  0.00    +0.000 A 
ATOM      6  C   UNL     1       5.495   5.022  15.574  0.00  0.00    +0.000 A 
ATOM      7  C   UNL     1       5.083   4.298  14.443  0.00  0.00    +0.000 A 
ENDROOT
BRANCH   5   8
ATOM      8  C   UNL     1       7.351   6.113  16.858  0.00  0.00    +0.000 A 
ATOM      9  C   UNL     1       7.671   7.450  16.957  0.00  0.00    +0.000 A 
ATOM     10  N   UNL     1       8.121   7.589  18.232  0.00  0.00    +0.000 N 
ATOM     11  N   UNL     1       8.105   6.413  18.888  0.00  0.00    +0.000 NA
ATOM     12  N   UNL     1       7.645   5.494  18.047  0.00  0.00    +0.000 NA
BRANCH  10  13
ATOM     13  C   UNL     1       8.598   8.798  18.866  0.00  0.00    +0.000 C 
BRANCH  13  14
ATOM     14  C   UNL     1       8.552  10.005  17.941  0.00  0.00    +0.000 C 
BRANCH  14  15
ATOM     15  O   UNL     1       9.287  11.098  18.484  0.00  0.00    +0.000 OA
ATOM     16  H   UNL     1       8.806  11.407  19.274  0.00  0.00    +0.000 HD
ENDBRANCH  14  15
ENDBRANCH  13  14
ENDBRANCH  10  13
ENDBRANCH   5   8
BRANCH   6  17
ATOM     17  N   UNL     1       4.560   5.345  16.584  0.00  0.00    +0.000 N 
ATOM     18  C   UNL     1       4.159   4.461  17.572  0.00  0.00    +0.000 C 
ATOM     19  O   UNL     1       4.514   3.292  17.672  0.00  0.00    +0.000 OA
ATOM     20  H   UNL     1       4.473   6.332  16.816  0.00  0.00    +0.000 HD
BRANCH  18  21
ATOM     21  C   UNL     1       3.279   5.116  18.603  0.00  0.00    +0.000 A 
ATOM     22  C   UNL     1       2.827   4.376  19.630  0.00  0.00    +0.000 A 
ATOM     23  C   UNL     1       1.955   5.007  20.636  0.00  0.00    +0.000 A 
ATOM     24  O   UNL     1       1.512   4.362  21.581  0.00  0.00    +0.000 OA
ATOM     25  C   UNL     1       1.650   6.434  20.448  0.00  0.00    +0.000 A 
ATOM     26  C   UNL     1       0.839   7.127  21.349  0.00  0.00    +0.000 A 
ATOM     27  C   UNL     1       0.575   8.482  21.140  0.00  0.00    +0.000 A 
ATOM     28  C   UNL     1       1.124   9.136  20.036  0.00  0.00    +0.000 A 
ATOM     29  C   UNL     1       1.935   8.440  19.140  0.00  0.00    +0.000 A 
ATOM     30  C   UNL     1       2.195   7.086  19.344  0.00  0.00    +0.000 A 
ATOM     31  O   UNL     1       2.994   6.461  18.427  0.00  0.00    +0.000 OA
ENDBRANCH  18  21
ENDBRANCH   6  17
TORSDOF 6
ENDMDL
MODEL 4
REMARK VINA RESULT:      -7.2      3.771      8.916
REMARK  Name = 
REMARK  7 active torsions:
REMARK  status: ('A' for Active; 'I' for Inactive)
REMARK    1  A    between atoms: C_1  and  C_2
REMARK    2  A    between atoms: C_5  and  C_6
REMARK    3  A    between atoms: N_8  and  C_9
REMARK    4  A    between atoms: C_9  and  C_10
REMARK    5  A    between atoms: C_10  and  O_11
REMARK    6  A    between atoms: C_14  and  N_15
REMARK    7  A    between atoms: C_16  and  C_18
REMARK                            x       y       z     vdW  Elec       q    Type
REMARK                         _______ _______ _______ _____ _____    ______ ____
ROOT
ATOM      1  C   UNL     1      -0.855  14.210  23.449  0.00  0.00    +0.000 C 
ATOM      2  C   UNL     1      -1.101  13.447  22.179  0.00  0.00    +0.000 A 
ATOM      3  C   UNL     1      -2.040  13.904  21.254  0.00  0.00    +0.000 A 
ATOM      4  C   UNL     1      -2.247  13.206  20.065  0.00  0.00    +0.000 A 
ATOM      5  C   UNL     1      -1.515  12.044  19.767  0.00  0.00    +0.000 A 
ATOM      6  C   UNL     1      -0.565  11.578  20.697  0.00  0.00    +0.000 A 
ATOM      7  C   UNL     1      -0.378  12.276  21.902  0.00  0.00    +0.000 A 
ENDROOT
BRANCH   5   8
ATOM      8  C   UNL     1      -1.839  11.311  18.555  0.00  0.00    +0.000 A 
ATOM      9  C   UNL     1      -2.877  11.608  17.697  0.00  0.00    +0.000 A 
ATOM     10  N   UNL     1      -2.791  10.656  16.731  0.00  0.00    +0.000 N 
ATOM     11  N   UNL     1      -1.778   9.802  16.974  0.00  0.00    +0.000 NA
ATOM     12  N   UNL     1      -1.193  10.189  18.102  0.00  0.00    +0.000 NA
BRANCH  10  13
ATOM     13  C   UNL     1      -3.651  10.496  15.580  0.00  0.00    +0.000 C 
BRANCH  13  14
ATOM     14  C   UNL     1      -2.897  10.039  14.340  0.00  0.00    +0.000 C 
BRANCH  14  15
ATOM     15  O   UNL     1      -3.677  10.229  13.163  0.00  0.00    +0.000 OA
ATOM     16  H   UNL     1      -4.613  10.268  13.440  0.00  0.00    +0.000 HD
ENDBRANCH  14  15
ENDBRANCH  13  14
ENDBRANCH  10  13
ENDBRANCH   5   8
BRANCH   6  17
ATOM     17  N   UNL     1       0.228  10.445  20.407  0.00  0.00    +0.000 N 
ATOM     18  C   UNL     1       0.281   9.317  21.208  0.00  0.00    +0.000 C 
ATOM     19  O   UNL     1      -0.299   9.172  22.278  0.00  0.00    +0.000 OA
ATOM     20  H   UNL     1       0.459  10.298  19.426  0.00  0.00    +0.000 HD
BRANCH  18  21
ATOM     21  C   UNL     1       1.081   8.206  20.581  0.00  0.00    +0.000 A 
ATOM     22  C   UNL     1       1.063   6.992  21.157  0.00  0.00    +0.000 A 
ATOM     23  C   UNL     1       1.852   5.904  20.557  0.00  0.00    +0.000 A 
ATOM     24  O   UNL     1       1.872   4.785  21.060  0.00  0.00    +0.000 OA
ATOM     25  C   UNL     1       2.607   6.228  19.336  0.00  0.00    +0.000 A 
ATOM     26  C   UNL     1       3.381   5.264  18.685  0.00  0.00    +0.000 A 
ATOM     27  C   UNL     1       4.080   5.608  17.526  0.00  0.00    +0.000 A 
ATOM     28  C   UNL     1       3.999   6.908  17.023  0.00  0.00    +0.000 A 
ATOM     29  C   UNL     1       3.223   7.865  17.676  0.00  0.00    +0.000 A 
ATOM     30  C   UNL     1       2.529   7.526  18.836  0.00  0.00    +0.000 A 
ATOM     31  O   UNL     1       1.790   8.511  19.430  0.00  0.00    +0.000 OA
ENDBRANCH  18  21
ENDBRANCH   6  17
TORSDOF 6
ENDMDL
MODEL 5
REMARK VINA RESULT:      -7.1      3.790      8.411
REMARK  Name = 
REMARK  7 active torsions:
REMARK  status: ('A' for Active; 'I' for Inactive)
REMARK    1  A    between atoms: C_1  and  C_2
REMARK    2  A    between atoms: C_5  and  C_6
REMARK    3  A    between atoms: N_8  and  C_9
REMARK    4  A    between atoms: C_9  and  C_10
REMARK    5  A    between atoms: C_10  and  O_11
REMARK    6  A    between atoms: C_14  and  N_15
REMARK    7  A    between atoms: C_16  and  C_18
REMARK                            x       y       z     vdW  Elec       q    Type
REMARK                         _______ _______ _______ _____ _____    ______ ____
ROOT
ATOM      1  C   UNL     1       0.648  14.424  22.047  0.00  0.00    +0.000 C 
ATOM      2  C   UNL     1       0.053  13.558  20.975  0.00  0.00    +0.000 A 
ATOM      3  C   UNL     1      -0.996  14.033  20.187  0.00  0.00    +0.000 A 
ATOM      4  C   UNL     1      -1.529  13.235  19.176  0.00  0.00    +0.000 A 
ATOM      5  C   UNL     1      -1.022  11.949  18.921  0.00  0.00    +0.000 A 
ATOM      6  C   UNL     1       0.036  11.463  19.714  0.00  0.00    +0.000 A 
ATOM      7  C   UNL     1       0.554  12.266  20.744  0.00  0.00    +0.000 A 
ENDROOT
BRANCH   5   8
ATOM      8  C   UNL     1      -1.678  11.131  17.915  0.00  0.00    +0.000 A 
ATOM      9  C   UNL     1      -2.364  11.612  16.821  0.00  0.00    +0.000 A 
ATOM     10  N   UNL     1      -2.804  10.492  16.188  0.00  0.00    +0.000 N 
ATOM     11  N   UNL     1      -2.437   9.379  16.851  0.00  0.00    +0.000 NA
ATOM     12  N   UNL     1      -1.753   9.761  17.924  0.00  0.00    +0.000 NA
BRANCH  10  13
ATOM     13  C   UNL     1      -3.591  10.422  14.977  0.00  0.00    +0.000 C 
BRANCH  13  14
ATOM     14  C   UNL     1      -2.856   9.735  13.836  0.00  0.00    +0.000 C 
BRANCH  14  15
ATOM     15  O   UNL     1      -3.514   9.956  12.592  0.00  0.00    +0.000 OA
ATOM     16  H   UNL     1      -4.405   9.563  12.661  0.00  0.00    +0.000 HD
ENDBRANCH  14  15
ENDBRANCH  13  14
ENDBRANCH  10  13
ENDBRANCH   5   8
BRANCH   6  17
ATOM     17  N   UNL     1       0.608  10.197  19.450  0.00  0.00    +0.000 N 
ATOM     18  C   UNL     1       1.696  10.003  18.616  0.00  0.00    +0.000 C 
ATOM     19  O   UNL     1       2.265  10.875  17.969  0.00  0.00    +0.000 OA
ATOM     20  H   UNL     1       0.468   9.485  20.164  0.00  0.00    +0.000 HD
BRANCH  18  21
ATOM     21  C   UNL     1       2.189   8.581  18.641  0.00  0.00    +0.000 A 
ATOM     22  C   UNL     1       3.012   8.166  17.663  0.00  0.00    +0.000 A 
ATOM     23  C   UNL     1       3.490   6.773  17.674  0.00  0.00    +0.000 A 
ATOM     24  O   UNL     1       4.232   6.352  16.792  0.00  0.00    +0.000 OA
ATOM     25  C   UNL     1       3.034   5.925  18.787  0.00  0.00    +0.000 A 
ATOM     26  C   UNL     1       3.436   4.590  18.892  0.00  0.00    +0.000 A 
ATOM     27  C   UNL     1       2.985   3.818  19.965  0.00  0.00    +0.000 A 
ATOM     28  C   UNL     1       2.142   4.380  20.924  0.00  0.00    +0.000 A 
ATOM     29  C   UNL     1       1.746   5.713  20.814  0.00  0.00    +0.000 A 
ATOM     30  C   UNL     1       2.189   6.485  19.742  0.00  0.00    +0.000 A 
ATOM     31  O   UNL     1       1.761   7.783  19.691  0.00  0.00    +0.000 OA
ENDBRANCH  18  21
ENDBRANCH   6  17
TORSDOF 6
ENDMDL
MODEL 6
REMARK VINA RESULT:      -7.1      3.752      9.325
REMARK  Name = 
REMARK  7 active torsions:
REMARK  status: ('A' for Active; 'I' for Inactive)
REMARK    1  A    between atoms: C_1  and  C_2
REMARK    2  A    between atoms: C_5  and  C_6
REMARK    3  A    between atoms: N_8  and  C_9
REMARK    4  A    between atoms: C_9  and  C_10
REMARK    5  A    between atoms: C_10  and  O_11
REMARK    6  A    between atoms: C_14  and  N_15
REMARK    7  A    between atoms: C_16  and  C_18
REMARK                            x       y       z     vdW  Elec       q    Type
REMARK                         _______ _______ _______ _____ _____    ______ ____
ROOT
ATOM      1  C   UNL     1      -2.875  12.018  23.794  0.00  0.00    +0.000 C 
ATOM      2  C   UNL     1      -1.753  12.234  22.821  0.00  0.00    +0.000 A 
ATOM      3  C   UNL     1      -1.260  13.517  22.586  0.00  0.00    +0.000 A 
ATOM      4  C   UNL     1      -0.201  13.710  21.701  0.00  0.00    +0.000 A 
ATOM      5  C   UNL     1       0.398  12.625  21.037  0.00  0.00    +0.000 A 
ATOM      6  C   UNL     1      -0.095  11.326  21.269  0.00  0.00    +0.000 A 
ATOM      7  C   UNL     1      -1.176  11.144  22.147  0.00  0.00    +0.000 A 
ENDROOT
BRANCH   5   8
ATOM      8  C   UNL     1       1.437  12.899  20.058  0.00  0.00    +0.000 A 
ATOM      9  C   UNL     1       2.316  13.959  20.105  0.00  0.00    +0.000 A 
ATOM     10  N   UNL     1       3.078  13.805  18.989  0.00  0.00    +0.000 N 
ATOM     11  N   UNL     1       2.692  12.730  18.276  0.00  0.00    +0.000 NA
ATOM     12  N   UNL     1       1.673  12.171  18.919  0.00  0.00    +0.000 NA
BRANCH  10  13
ATOM     13  C   UNL     1       4.160  14.655  18.544  0.00  0.00    +0.000 C 
BRANCH  13  14
ATOM     14  C   UNL     1       4.125  16.036  19.182  0.00  0.00    +0.000 C 
BRANCH  14  15
ATOM     15  O   UNL     1       3.951  17.054  18.200  0.00  0.00    +0.000 OA
ATOM     16  H   UNL     1       4.042  16.630  17.325  0.00  0.00    +0.000 HD
ENDBRANCH  14  15
ENDBRANCH  13  14
ENDBRANCH  10  13
ENDBRANCH   5   8
BRANCH   6  17
ATOM     17  N   UNL     1       0.518  10.207  20.661  0.00  0.00    +0.000 N 
ATOM     18  C   UNL     1       1.207   9.232  21.363  0.00  0.00    +0.000 C 
ATOM     19  O   UNL     1       1.417   9.234  22.571  0.00  0.00    +0.000 OA
ATOM     20  H   UNL     1       0.131   9.913  19.767  0.00  0.00    +0.000 HD
BRANCH  18  21
ATOM     21  C   UNL     1       1.619   8.079  20.487  0.00  0.00    +0.000 A 
ATOM     22  C   UNL     1       2.167   8.343  19.289  0.00  0.00    +0.000 A 
ATOM     23  C   UNL     1       2.563   7.221  18.421  0.00  0.00    +0.000 A 
ATOM     24  O   UNL     1       3.054   7.420  17.314  0.00  0.00    +0.000 OA
ATOM     25  C   UNL     1       2.338   5.865  18.947  0.00  0.00    +0.000 A 
ATOM     26  C   UNL     1       2.684   4.733  18.205  0.00  0.00    +0.000 A 
ATOM     27  C   UNL     1       2.460   3.463  18.739  0.00  0.00    +0.000 A 
ATOM     28  C   UNL     1       1.895   3.330  20.009  0.00  0.00    +0.000 A 
ATOM     29  C   UNL     1       1.554   4.464  20.746  0.00  0.00    +0.000 A 
ATOM     30  C   UNL     1       1.771   5.733  20.212  0.00  0.00    +0.000 A 
ATOM     31  O   UNL     1       1.410   6.803  20.984  0.00  0.00    +0.000 OA
ENDBRANCH  18  21
ENDBRANCH   6  17
TORSDOF 6
ENDMDL
MODEL 7
REMARK VINA RESULT:      -7.0      2.444      7.915
REMARK  Name = 
REMARK  7 active torsions:
REMARK  status: ('A' for Active; 'I' for Inactive)
REMARK    1  A    between atoms: C_1  and  C_2
REMARK    2  A    between atoms: C_5  and  C_6
REMARK    3  A    between atoms: N_8  and  C_9
REMARK    4  A    between atoms: C_9  and  C_10
REMARK    5  A    between atoms: C_10  and  O_11
REMARK    6  A    between atoms: C_14  and  N_15
REMARK    7  A    between atoms: C_16  and  C_18
REMARK                            x       y       z     vdW  Elec       q    Type
REMARK                         _______ _______ _______ _____ _____    ______ ____
ROOT
ATOM      1  C   UNL     1       2.244   2.026  21.392  0.00  0.00    +0.000 C 
ATOM      2  C   UNL     1       2.349   3.342  20.677  0.00  0.00    +0.000 A 
ATOM      3  C   UNL     1       1.773   4.489  21.224  0.00  0.00    +0.000 A 
ATOM      4  C   UNL     1       1.895   5.713  20.569  0.00  0.00    +0.000 A 
ATOM      5  C   UNL     1       2.603   5.824  19.360  0.00  0.00    +0.000 A 
ATOM      6  C   UNL     1       3.186   4.669  18.802  0.00  0.00    +0.000 A 
ATOM      7  C   UNL     1       3.040   3.435  19.458  0.00  0.00    +0.000 A 
ENDROOT
BRANCH   5   8
ATOM      8  C   UNL     1       2.618   7.108  18.680  0.00  0.00    +0.000 A 
ATOM      9  C   UNL     1       1.882   8.213  19.048  0.00  0.00    +0.000 A 
ATOM     10  N   UNL     1       2.211   9.153  18.123  0.00  0.00    +0.000 N 
ATOM     11  N   UNL     1       3.083   8.667  17.219  0.00  0.00    +0.000 NA
ATOM     12  N   UNL     1       3.330   7.403  17.545  0.00  0.00    +0.000 NA
BRANCH  10  13
ATOM     13  C   UNL     1       1.715  10.509  18.036  0.00  0.00    +0.000 C 
BRANCH  13  14
ATOM     14  C   UNL     1       0.385  10.696  18.751  0.00  0.00    +0.000 C 
BRANCH  14  15
ATOM     15  O   UNL     1      -0.708  10.592  17.843  0.00  0.00    +0.000 OA
ATOM     16  H   UNL     1      -1.280   9.867  18.159  0.00  0.00    +0.000 HD
ENDBRANCH  14  15
ENDBRANCH  13  14
ENDBRANCH  10  13
ENDBRANCH   5   8
BRANCH   6  17
ATOM     17  N   UNL     1       3.951   4.753  17.617  0.00  0.00    +0.000 N 
ATOM     18  C   UNL     1       5.321   4.556  17.570  0.00  0.00    +0.000 C 
ATOM     19  O   UNL     1       6.045   4.338  18.534  0.00  0.00    +0.000 OA
ATOM     20  H   UNL     1       3.452   4.578  16.747  0.00  0.00    +0.000 HD
BRANCH  18  21
ATOM     21  C   UNL     1       5.850   4.550  16.161  0.00  0.00    +0.000 A 
ATOM     22  C   UNL     1       6.995   5.203  15.898  0.00  0.00    +0.000 A 
ATOM     23  C   UNL     1       7.513   5.212  14.520  0.00  0.00    +0.000 A 
ATOM     24  O   UNL     1       8.548   5.808  14.237  0.00  0.00    +0.000 OA
ATOM     25  C   UNL     1       6.732   4.477  13.513  0.00  0.00    +0.000 A 
ATOM     26  C   UNL     1       7.141   4.419  12.178  0.00  0.00    +0.000 A 
ATOM     27  C   UNL     1       6.375   3.707  11.252  0.00  0.00    +0.000 A 
ATOM     28  C   UNL     1       5.210   3.058  11.664  0.00  0.00    +0.000 A 
ATOM     29  C   UNL     1       4.808   3.118  12.998  0.00  0.00    +0.000 A 
ATOM     30  C   UNL     1       5.567   3.832  13.923  0.00  0.00    +0.000 A 
ATOM     31  O   UNL     1       5.115   3.855  15.213  0.00  0.00    +0.000 OA
ENDBRANCH  18  21
ENDBRANCH   6  17
TORSDOF 6
ENDMDL
MODEL 8
REMARK VINA RESULT:      -7.0      1.463      1.701
REMARK  Name = 
REMARK  7 active torsions:
REMARK  status: ('A' for Active; 'I' for Inactive)
REMARK    1  A    between atoms: C_1  and  C_2
REMARK    2  A    between atoms: C_5  and  C_6
REMARK    3  A    between atoms: N_8  and  C_9
REMARK    4  A    between atoms: C_9  and  C_10
REMARK    5  A    between atoms: C_10  and  O_11
REMARK    6  A    between atoms: C_14  and  N_15
REMARK    7  A    between atoms: C_16  and  C_18
REMARK                            x       y       z     vdW  Elec       q    Type
REMARK                         _______ _______ _______ _____ _____    ______ ____
ROOT
ATOM      1  C   UNL     1       6.772   5.401  14.219  0.00  0.00    +0.000 C 
ATOM      2  C   UNL     1       5.911   5.249  15.439  0.00  0.00    +0.000 A 
ATOM      3  C   UNL     1       5.852   4.029  16.113  0.00  0.00    +0.000 A 
ATOM      4  C   UNL     1       5.071   3.900  17.260  0.00  0.00    +0.000 A 
ATOM      5  C   UNL     1       4.339   4.987  17.768  0.00  0.00    +0.000 A 
ATOM      6  C   UNL     1       4.395   6.222  17.092  0.00  0.00    +0.000 A 
ATOM      7  C   UNL     1       5.168   6.337  15.925  0.00  0.00    +0.000 A 
ENDROOT
BRANCH   5   8
ATOM      8  C   UNL     1       3.473   4.766  18.914  0.00  0.00    +0.000 A 
ATOM      9  C   UNL     1       2.505   3.790  19.005  0.00  0.00    +0.000 A 
ATOM     10  N   UNL     1       1.958   3.980  20.234  0.00  0.00    +0.000 N 
ATOM     11  N   UNL     1       2.530   5.021  20.869  0.00  0.00    +0.000 NA
ATOM     12  N   UNL     1       3.456   5.521  20.059  0.00  0.00    +0.000 NA
BRANCH  10  13
ATOM     13  C   UNL     1       0.883   3.226  20.841  0.00  0.00    +0.000 C 
BRANCH  13  14
ATOM     14  C   UNL     1       1.371   2.265  21.916  0.00  0.00    +0.000 C 
BRANCH  14  15
ATOM     15  O   UNL     1       2.767   2.420  22.150  0.00  0.00    +0.000 OA
ATOM     16  H   UNL     1       3.158   2.791  21.336  0.00  0.00    +0.000 HD
ENDBRANCH  14  15
ENDBRANCH  13  14
ENDBRANCH  10  13
ENDBRANCH   5   8
BRANCH   6  17
ATOM     17  N   UNL     1       3.717   7.351  17.605  0.00  0.00    +0.000 N 
ATOM     18  C   UNL     1       2.339   7.443  17.703  0.00  0.00    +0.000 C 
ATOM     19  O   UNL     1       1.537   6.597  17.320  0.00  0.00    +0.000 OA
ATOM     20  H   UNL     1       4.242   7.935  18.253  0.00  0.00    +0.000 HD
BRANCH  18  21
ATOM     21  C   UNL     1       1.897   8.686  18.427  0.00  0.00    +0.000 A 
ATOM     22  C   UNL     1       2.154   9.883  17.871  0.00  0.00    +0.000 A 
ATOM     23  C   UNL     1       1.736  11.104  18.579  0.00  0.00    +0.000 A 
ATOM     24  O   UNL     1       1.964  12.216  18.111  0.00  0.00    +0.000 OA
ATOM     25  C   UNL     1       1.039  10.921  19.862  0.00  0.00    +0.000 A 
ATOM     26  C   UNL     1       0.595  12.016  20.609  0.00  0.00    +0.000 A 
ATOM     27  C   UNL     1      -0.066  11.802  21.820  0.00  0.00    +0.000 A 
ATOM     28  C   UNL     1      -0.283  10.501  22.276  0.00  0.00    +0.000 A 
ATOM     29  C   UNL     1       0.160   9.412  21.525  0.00  0.00    +0.000 A 
ATOM     30  C   UNL     1       0.826   9.623  20.319  0.00  0.00    +0.000 A 
ATOM     31  O   UNL     1       1.239   8.513  19.634  0.00  0.00    +0.000 OA
ENDBRANCH  18  21
ENDBRANCH   6  17
TORSDOF 6
ENDMDL
MODEL 9
REMARK VINA RESULT:      -6.9      3.857      8.470
REMARK  Name = 
REMARK  7 active torsions:
REMARK  status: ('A' for Active; 'I' for Inactive)
REMARK    1  A    between atoms: C_1  and  C_2
REMARK    2  A    between atoms: C_5  and  C_6
REMARK    3  A    between atoms: N_8  and  C_9
REMARK    4  A    between atoms: C_9  and  C_10
REMARK    5  A    between atoms: C_10  and  O_11
REMARK    6  A    between atoms: C_14  and  N_15
REMARK    7  A    between atoms: C_16  and  C_18
REMARK                            x       y       z     vdW  Elec       q    Type
REMARK                         _______ _______ _______ _____ _____    ______ ____
ROOT
ATOM      1  C   UNL     1       2.107  15.165  20.377  0.00  0.00    +0.000 C 
ATOM      2  C   UNL     1       1.191  14.146  19.764  0.00  0.00    +0.000 A 
ATOM      3  C   UNL     1      -0.011  14.541  19.177  0.00  0.00    +0.000 A 
ATOM      4  C   UNL     1      -0.847  13.595  18.587  0.00  0.00    +0.000 A 
ATOM      5  C   UNL     1      -0.497  12.233  18.558  0.00  0.00    +0.000 A 
ATOM      6  C   UNL     1       0.715  11.828  19.149  0.00  0.00    +0.000 A 
ATOM      7  C   UNL     1       1.541  12.786  19.760  0.00  0.00    +0.000 A 
ENDROOT
BRANCH   5   8
ATOM      8  C   UNL     1      -1.450  11.284  18.009  0.00  0.00    +0.000 A 
ATOM      9  C   UNL     1      -2.091  11.409  16.796  0.00  0.00    +0.000 A 
ATOM     10  N   UNL     1      -2.880  10.304  16.723  0.00  0.00    +0.000 N 
ATOM     11  N   UNL     1      -2.759   9.542  17.826  0.00  0.00    +0.000 NA
ATOM     12  N   UNL     1      -1.890  10.143  18.632  0.00  0.00    +0.000 NA
BRANCH  10  13
ATOM     13  C   UNL     1      -3.778   9.938  15.650  0.00  0.00    +0.000 C 
BRANCH  13  14
ATOM     14  C   UNL     1      -3.069   9.797  14.310  0.00  0.00    +0.000 C 
BRANCH  14  15
ATOM     15  O   UNL     1      -3.785  10.466  13.276  0.00  0.00    +0.000 OA
ATOM     16  H   UNL     1      -4.666  10.049  13.218  0.00  0.00    +0.000 HD
ENDBRANCH  14  15
ENDBRANCH  13  14
ENDBRANCH  10  13
ENDBRANCH   5   8
BRANCH   6  17
ATOM     17  N   UNL     1       1.125  10.476  19.091  0.00  0.00    +0.000 N 
ATOM     18  C   UNL     1       2.019   9.983  18.156  0.00  0.00    +0.000 C 
ATOM     19  O   UNL     1       2.524  10.625  17.242  0.00  0.00    +0.000 OA
ATOM     20  H   UNL     1       1.065   9.951  19.961  0.00  0.00    +0.000 HD
BRANCH  18  21
ATOM     21  C   UNL     1       2.394   8.549  18.422  0.00  0.00    +0.000 A 
ATOM     22  C   UNL     1       1.880   7.938  19.503  0.00  0.00    +0.000 A 
ATOM     23  C   UNL     1       2.252   6.540  19.778  0.00  0.00    +0.000 A 
ATOM     24  O   UNL     1       1.815   5.950  20.761  0.00  0.00    +0.000 OA
ATOM     25  C   UNL     1       3.166   5.896  18.820  0.00  0.00    +0.000 A 
ATOM     26  C   UNL     1       3.574   4.571  18.986  0.00  0.00    +0.000 A 
ATOM     27  C   UNL     1       4.439   3.993  18.054  0.00  0.00    +0.000 A 
ATOM     28  C   UNL     1       4.887   4.740  16.962  0.00  0.00    +0.000 A 
ATOM     29  C   UNL     1       4.474   6.062  16.801  0.00  0.00    +0.000 A 
ATOM     30  C   UNL     1       3.616   6.643  17.733  0.00  0.00    +0.000 A 
ATOM     31  O   UNL     1       3.252   7.944  17.519  0.00  0.00    +0.000 OA
ENDBRANCH  18  21
ENDBRANCH   6  17
TORSDOF 6
ENDMDL
