MODEL 1
REMARK VINA RESULT:      -6.6      0.000      0.000
REMARK  Name = 
REMARK  10 active torsions:
REMARK  status: ('A' for Active; 'I' for Inactive)
REMARK    1  A    between atoms: C_1  and  O_2
REMARK    2  A    between atoms: O_2  and  C_3
REMARK    3  A    between atoms: C_7  and  O_8
REMARK    4  A    between atoms: O_8  and  C_9
REMARK    5  A    between atoms: C_10  and  O_11
REMARK    6  A    between atoms: O_11  and  C_12
REMARK    7  A    between atoms: C_16  and  N_17
REMARK    8  A    between atoms: N_17  and  C_18
REMARK    9  A    between atoms: N_17  and  C_19
REMARK   10  A    between atoms: C_24  and  N_25
REMARK                            x       y       z     vdW  Elec       q    Type
REMARK                         _______ _______ _______ _____ _____    ______ ____
ROOT
ATOM      1  C   UNL     1      -2.999  11.225  17.217  0.00  0.00    +0.000 A 
ATOM      2  C   UNL     1      -4.351  11.537  17.068  0.00  0.00    +0.000 A 
ATOM      3  C   UNL     1      -5.129  12.094  18.104  0.00  0.00    +0.000 A 
ATOM      4  C   UNL     1      -4.506  12.417  19.322  0.00  0.00    +0.000 A 
ATOM      5  C   UNL     1      -3.098  12.147  19.469  0.00  0.00    +0.000 A 
ATOM      6  C   UNL     1      -2.340  11.579  18.404  0.00  0.00    +0.000 A 
ATOM      7  C   UNL     1      -5.295  13.018  20.458  0.00  0.00    +0.000 A 
ATOM      8  C   UNL     1      -4.900  14.238  20.892  0.00  0.00    +0.000 A 
ATOM      9  C   UNL     1      -5.549  14.889  22.033  0.00  0.00    +0.000 A 
ATOM     10  C   UNL     1      -5.463  14.263  23.229  0.00  0.00    +0.000 A 
ATOM     11  C   UNL     1      -6.702  13.413  23.333  0.00  0.00    +0.000 A 
ATOM     12  O   UNL     1      -7.576  13.600  24.171  0.00  0.00    +0.000 OA
ATOM     13  C   UNL     1      -6.763  12.236  22.380  0.00  0.00    +0.000 A 
ATOM     14  C   UNL     1      -6.472  12.334  21.054  0.00  0.00    +0.000 A 
ATOM     15  C   UNL     1      -7.574  11.861  20.128  0.00  0.00    +0.000 C 
ATOM     16  C   UNL     1      -7.653  12.586  18.779  0.00  0.00    +0.000 C 
ATOM     17  C   UNL     1      -6.589  12.243  17.745  0.00  0.00    +0.000 C 
ENDROOT
BRANCH  10  18
ATOM     18  N   UNL     1      -4.335  13.820  23.943  0.00  0.00    +0.000 N 
ATOM     19  C   UNL     1      -4.357  12.514  24.619  0.00  0.00    +0.000 C 
ATOM     20  C   UNL     1      -3.428  14.770  24.584  0.00  0.00    +0.000 C 
ENDBRANCH  10  18
BRANCH  15  21
ATOM     21  N   UNL     1      -7.548  10.404  19.999  0.00  0.00    +0.000 NA
ATOM     22  H   UNL     1      -8.397  10.083  19.542  0.00  0.00    +0.000 HD
ATOM     23  H   UNL     1      -6.762  10.127  19.415  0.00  0.00    +0.000 HD
ENDBRANCH  15  21
BRANCH   1  25
ATOM     24  C   UNL     1      -2.964  10.395  14.984  0.00  0.00    +0.000 C 
ATOM     25  O   UNL     1      -2.302  10.566  16.238  0.00  0.00    +0.000 OA
ENDBRANCH   1  25
BRANCH   5  26
ATOM     26  O   UNL     1      -2.595  12.474  20.713  0.00  0.00    +0.000 OA
ATOM     27  C   UNL     1      -1.588  13.463  20.855  0.00  0.00    +0.000 C 
ENDBRANCH   5  26
BRANCH   6  28
ATOM     28  O   UNL     1      -1.012  11.322  18.628  0.00  0.00    +0.000 OA
ATOM     29  C   UNL     1      -0.638  10.124  19.302  0.00  0.00    +0.000 C 
ENDBRANCH   6  28
TORSDOF 5
ENDMDL
MODEL 2
REMARK VINA RESULT:      -6.3      2.729      5.419
REMARK  Name = 
REMARK  10 active torsions:
REMARK  status: ('A' for Active; 'I' for Inactive)
REMARK    1  A    between atoms: C_1  and  O_2
REMARK    2  A    between atoms: O_2  and  C_3
REMARK    3  A    between atoms: C_7  and  O_8
REMARK    4  A    between atoms: O_8  and  C_9
REMARK    5  A    between atoms: C_10  and  O_11
REMARK    6  A    between atoms: O_11  and  C_12
REMARK    7  A    between atoms: C_16  and  N_17
REMARK    8  A    between atoms: N_17  and  C_18
REMARK    9  A    between atoms: N_17  and  C_19
REMARK   10  A    between atoms: C_24  and  N_25
REMARK                            x       y       z     vdW  Elec       q    Type
REMARK                         _______ _______ _______ _____ _____    ______ ____
ROOT
ATOM      1  C   UNL     1      -3.263  10.426  16.840  0.00  0.00    +0.000 A 
ATOM      2  C   UNL     1      -1.970   9.985  17.124  0.00  0.00    +0.000 A 
ATOM      3  C   UNL     1      -1.186  10.527  18.164  0.00  0.00    +0.000 A 
ATOM      4  C   UNL     1      -1.750  11.506  19.001  0.00  0.00    +0.000 A 
ATOM      5  C   UNL     1      -3.104  11.931  18.748  0.00  0.00    +0.000 A 
ATOM      6  C   UNL     1      -3.869  11.367  17.686  0.00  0.00    +0.000 A 
ATOM      7  C   UNL     1      -0.953  12.111  20.128  0.00  0.00    +0.000 A 
ATOM      8  C   UNL     1      -1.451  11.952  21.377  0.00  0.00    +0.000 A 
ATOM      9  C   UNL     1      -0.798  12.555  22.541  0.00  0.00    +0.000 A 
ATOM     10  C   UNL     1      -0.724  13.904  22.575  0.00  0.00    +0.000 A 
ATOM     11  C   UNL     1       0.608  14.255  21.965  0.00  0.00    +0.000 A 
ATOM     12  O   UNL     1       1.515  14.788  22.592  0.00  0.00    +0.000 OA
ATOM     13  C   UNL     1       0.731  13.981  20.479  0.00  0.00    +0.000 A 
ATOM     14  C   UNL     1       0.335  12.817  19.898  0.00  0.00    +0.000 A 
ATOM     15  C   UNL     1       1.412  12.106  19.104  0.00  0.00    +0.000 C 
ATOM     16  C   UNL     1       1.308  10.576  19.082  0.00  0.00    +0.000 C 
ATOM     17  C   UNL     1       0.217   9.969  18.211  0.00  0.00    +0.000 C 
ENDROOT
BRANCH  10  18
ATOM     18  N   UNL     1      -1.738  14.872  22.467  0.00  0.00    +0.000 N 
ATOM     19  C   UNL     1      -2.964  14.747  23.271  0.00  0.00    +0.000 C 
ATOM     20  C   UNL     1      -1.955  15.603  21.220  0.00  0.00    +0.000 C 
ENDBRANCH  10  18
BRANCH  15  21
ATOM     21  N   UNL     1       1.541  12.695  17.771  0.00  0.00    +0.000 NA
ATOM     22  H   UNL     1       2.507  12.634  17.460  0.00  0.00    +0.000 HD
ATOM     23  H   UNL     1       0.972  12.173  17.110  0.00  0.00    +0.000 HD
ENDBRANCH  15  21
BRANCH   1  25
ATOM     24  C   UNL     1      -3.328  10.159  14.474  0.00  0.00    +0.000 C 
ATOM     25  O   UNL     1      -3.952   9.973  15.744  0.00  0.00    +0.000 OA
ENDBRANCH   1  25
BRANCH   5  26
ATOM     26  O   UNL     1      -3.547  12.916  19.608  0.00  0.00    +0.000 OA
ATOM     27  C   UNL     1      -4.559  12.646  20.567  0.00  0.00    +0.000 C 
ENDBRANCH   5  26
BRANCH   6  28
ATOM     28  O   UNL     1      -5.139  11.844  17.487  0.00  0.00    +0.000 OA
ATOM     29  C   UNL     1      -6.246  11.123  18.022  0.00  0.00    +0.000 C 
ENDBRANCH   6  28
TORSDOF 5
ENDMDL
MODEL 3
REMARK VINA RESULT:      -6.0      2.357      4.743
REMARK  Name = 
REMARK  10 active torsions:
REMARK  status: ('A' for Active; 'I' for Inactive)
REMARK    1  A    between atoms: C_1  and  O_2
REMARK    2  A    between atoms: O_2  and  C_3
REMARK    3  A    between atoms: C_7  and  O_8
REMARK    4  A    between atoms: O_8  and  C_9
REMARK    5  A    between atoms: C_10  and  O_11
REMARK    6  A    between atoms: O_11  and  C_12
REMARK    7  A    between atoms: C_16  and  N_17
REMARK    8  A    between atoms: N_17  and  C_18
REMARK    9  A    between atoms: N_17  and  C_19
REMARK   10  A    between atoms: C_24  and  N_25
REMARK                            x       y       z     vdW  Elec       q    Type
REMARK                         _______ _______ _______ _____ _____    ______ ____
ROOT
ATOM      1  C   UNL     1      -3.621  11.327  17.146  0.00  0.00    +0.000 A 
ATOM      2  C   UNL     1      -2.236  11.362  17.313  0.00  0.00    +0.000 A 
ATOM      3  C   UNL     1      -1.617  11.851  18.482  0.00  0.00    +0.000 A 
ATOM      4  C   UNL     1      -2.425  12.259  19.559  0.00  0.00    +0.000 A 
ATOM      5  C   UNL     1      -3.856  12.178  19.415  0.00  0.00    +0.000 A 
ATOM      6  C   UNL     1      -4.452  11.683  18.219  0.00  0.00    +0.000 A 
ATOM      7  C   UNL     1      -1.809  12.786  20.830  0.00  0.00    +0.000 A 
ATOM      8  C   UNL     1      -2.088  12.105  21.967  0.00  0.00    +0.000 A 
ATOM      9  C   UNL     1      -1.600  12.563  23.270  0.00  0.00    +0.000 A 
ATOM     10  C   UNL     1      -2.037  13.768  23.701  0.00  0.00    +0.000 A 
ATOM     11  C   UNL     1      -0.999  14.762  23.248  0.00  0.00    +0.000 A 
ATOM     12  O   UNL     1      -0.304  15.408  24.023  0.00  0.00    +0.000 OA
ATOM     13  C   UNL     1      -0.926  14.984  21.750  0.00  0.00    +0.000 A 
ATOM     14  C   UNL     1      -0.910  13.969  20.844  0.00  0.00    +0.000 A 
ATOM     15  C   UNL     1       0.274  13.984  19.899  0.00  0.00    +0.000 C 
ATOM     16  C   UNL     1       0.751  12.606  19.424  0.00  0.00    +0.000 C 
ATOM     17  C   UNL     1      -0.109  11.892  18.391  0.00  0.00    +0.000 C 
ENDROOT
BRANCH  10  18
ATOM     18  N   UNL     1      -3.345  14.255  23.862  0.00  0.00    +0.000 N 
ATOM     19  C   UNL     1      -3.567  15.622  24.358  0.00  0.00    +0.000 C 
ATOM     20  C   UNL     1      -4.452  13.355  24.182  0.00  0.00    +0.000 C 
ENDBRANCH  10  18
BRANCH  15  21
ATOM     21  N   UNL     1       0.043  14.923  18.801  0.00  0.00    +0.000 NA
ATOM     22  H   UNL     1      -0.745  14.611  18.240  0.00  0.00    +0.000 HD
ATOM     23  H   UNL     1      -0.192  15.838  19.178  0.00  0.00    +0.000 HD
ENDBRANCH  15  21
BRANCH   1  25
ATOM     24  C   UNL     1      -3.316  10.430  14.960  0.00  0.00    +0.000 C 
ATOM     25  O   UNL     1      -4.191  10.968  15.952  0.00  0.00    +0.000 OA
ENDBRANCH   1  25
BRANCH   5  26
ATOM     26  O   UNL     1      -4.553  12.632  20.518  0.00  0.00    +0.000 OA
ATOM     27  C   UNL     1      -5.137  13.926  20.530  0.00  0.00    +0.000 C 
ENDBRANCH   5  26
BRANCH   6  28
ATOM     28  O   UNL     1      -5.821  11.665  18.144  0.00  0.00    +0.000 OA
ATOM     29  C   UNL     1      -6.531  10.532  18.635  0.00  0.00    +0.000 C 
ENDBRANCH   6  28
TORSDOF 5
ENDMDL
MODEL 4
REMARK VINA RESULT:      -5.9      2.489      5.125
REMARK  Name = 
REMARK  10 active torsions:
REMARK  status: ('A' for Active; 'I' for Inactive)
REMARK    1  A    between atoms: C_1  and  O_2
REMARK    2  A    between atoms: O_2  and  C_3
REMARK    3  A    between atoms: C_7  and  O_8
REMARK    4  A    between atoms: O_8  and  C_9
REMARK    5  A    between atoms: C_10  and  O_11
REMARK    6  A    between atoms: O_11  and  C_12
REMARK    7  A    between atoms: C_16  and  N_17
REMARK    8  A    between atoms: N_17  and  C_18
REMARK    9  A    between atoms: N_17  and  C_19
REMARK   10  A    between atoms: C_24  and  N_25
REMARK                            x       y       z     vdW  Elec       q    Type
REMARK                         _______ _______ _______ _____ _____    ______ ____
ROOT
ATOM      1  C   UNL     1      -3.098  10.432  17.254  0.00  0.00    +0.000 A 
ATOM      2  C   UNL     1      -1.756  10.252  17.592  0.00  0.00    +0.000 A 
ATOM      3  C   UNL     1      -1.141  10.917  18.674  0.00  0.00    +0.000 A 
ATOM      4  C   UNL     1      -1.925  11.747  19.494  0.00  0.00    +0.000 A 
ATOM      5  C   UNL     1      -3.324  11.899  19.185  0.00  0.00    +0.000 A 
ATOM      6  C   UNL     1      -3.915  11.216  18.082  0.00  0.00    +0.000 A 
ATOM      7  C   UNL     1      -1.314  12.476  20.664  0.00  0.00    +0.000 A 
ATOM      8  C   UNL     1      -1.823  12.195  21.887  0.00  0.00    +0.000 A 
ATOM      9  C   UNL     1      -1.354  12.893  23.087  0.00  0.00    +0.000 A 
ATOM     10  C   UNL     1      -1.553  14.229  23.139  0.00  0.00    +0.000 A 
ATOM     11  C   UNL     1      -0.292  14.849  22.595  0.00  0.00    +0.000 A 
ATOM     12  O   UNL     1       0.462  15.540  23.269  0.00  0.00    +0.000 OA
ATOM     13  C   UNL     1      -0.054  14.636  21.113  0.00  0.00    +0.000 A 
ATOM     14  C   UNL     1      -0.184  13.428  20.502  0.00  0.00    +0.000 A 
ATOM     15  C   UNL     1       1.046  12.962  19.751  0.00  0.00    +0.000 C 
ATOM     16  C   UNL     1       1.251  11.443  19.706  0.00  0.00    +0.000 C 
ATOM     17  C   UNL     1       0.342  10.648  18.779  0.00  0.00    +0.000 C 
ENDROOT
BRANCH  10  18
ATOM     18  N   UNL     1      -2.734  14.978  22.996  0.00  0.00    +0.000 N 
ATOM     19  C   UNL     1      -2.664  16.434  22.800  0.00  0.00    +0.000 C 
ATOM     20  C   UNL     1      -3.978  14.555  23.638  0.00  0.00    +0.000 C 
ENDBRANCH  10  18
BRANCH  15  21
ATOM     21  N   UNL     1       1.113  13.592  18.432  0.00  0.00    +0.000 NA
ATOM     22  H   UNL     1       0.950  14.591  18.519  0.00  0.00    +0.000 HD
ATOM     23  H   UNL     1       2.042  13.466  18.039  0.00  0.00    +0.000 HD
ENDBRANCH  15  21
BRANCH   1  25
ATOM     24  C   UNL     1      -3.129  10.345  14.874  0.00  0.00    +0.000 C 
ATOM     25  O   UNL     1      -3.635   9.874  16.123  0.00  0.00    +0.000 OA
ENDBRANCH   1  25
BRANCH   5  26
ATOM     26  O   UNL     1      -3.992  12.759  20.035  0.00  0.00    +0.000 OA
ATOM     27  C   UNL     1      -5.135  12.329  20.756  0.00  0.00    +0.000 C 
ENDBRANCH   5  26
BRANCH   6  28
ATOM     28  O   UNL     1      -5.245  11.435  17.830  0.00  0.00    +0.000 OA
ATOM     29  C   UNL     1      -5.628  12.533  17.007  0.00  0.00    +0.000 C 
ENDBRANCH   6  28
TORSDOF 5
ENDMDL
MODEL 5
REMARK VINA RESULT:      -5.8      2.482      4.634
REMARK  Name = 
REMARK  10 active torsions:
REMARK  status: ('A' for Active; 'I' for Inactive)
REMARK    1  A    between atoms: C_1  and  O_2
REMARK    2  A    between atoms: O_2  and  C_3
REMARK    3  A    between atoms: C_7  and  O_8
REMARK    4  A    between atoms: O_8  and  C_9
REMARK    5  A    between atoms: C_10  and  O_11
REMARK    6  A    between atoms: O_11  and  C_12
REMARK    7  A    between atoms: C_16  and  N_17
REMARK    8  A    between atoms: N_17  and  C_18
REMARK    9  A    between atoms: N_17  and  C_19
REMARK   10  A    between atoms: C_24  and  N_25
REMARK                            x       y       z     vdW  Elec       q    Type
REMARK                         _______ _______ _______ _____ _____    ______ ____
ROOT
ATOM      1  C   UNL     1      -6.143  11.097  19.516  0.00  0.00    +0.000 A 
ATOM      2  C   UNL     1      -6.556  11.748  20.679  0.00  0.00    +0.000 A 
ATOM      3  C   UNL     1      -5.725  12.627  21.404  0.00  0.00    +0.000 A 
ATOM      4  C   UNL     1      -4.446  12.921  20.900  0.00  0.00    +0.000 A 
ATOM      5  C   UNL     1      -4.028  12.295  19.672  0.00  0.00    +0.000 A 
ATOM      6  C   UNL     1      -4.890  11.406  18.965  0.00  0.00    +0.000 A 
ATOM      7  C   UNL     1      -3.522  13.859  21.637  0.00  0.00    +0.000 A 
ATOM      8  C   UNL     1      -3.125  14.968  20.969  0.00  0.00    +0.000 A 
ATOM      9  C   UNL     1      -2.176  15.915  21.559  0.00  0.00    +0.000 A 
ATOM     10  C   UNL     1      -0.937  15.450  21.839  0.00  0.00    +0.000 A 
ATOM     11  C   UNL     1      -0.987  14.996  23.274  0.00  0.00    +0.000 A 
ATOM     12  O   UNL     1      -0.338  15.525  24.169  0.00  0.00    +0.000 OA
ATOM     13  C   UNL     1      -1.837  13.769  23.536  0.00  0.00    +0.000 A 
ATOM     14  C   UNL     1      -3.092  13.609  23.038  0.00  0.00    +0.000 A 
ATOM     15  C   UNL     1      -4.159  13.343  24.080  0.00  0.00    +0.000 C 
ATOM     16  C   UNL     1      -5.555  13.881  23.742  0.00  0.00    +0.000 C 
ATOM     17  C   UNL     1      -6.350  13.126  22.686  0.00  0.00    +0.000 C 
ENDROOT
BRANCH  10  18
ATOM     18  N   UNL     1       0.001  14.810  21.010  0.00  0.00    +0.000 N 
ATOM     19  C   UNL     1       1.255  14.293  21.579  0.00  0.00    +0.000 C 
ATOM     20  C   UNL     1       0.129  15.169  19.598  0.00  0.00    +0.000 C 
ENDBRANCH  10  18
BRANCH  15  21
ATOM     21  N   UNL     1      -4.162  11.932  24.464  0.00  0.00    +0.000 NA
ATOM     22  H   UNL     1      -4.273  11.849  25.471  0.00  0.00    +0.000 HD
ATOM     23  H   UNL     1      -4.950  11.460  24.028  0.00  0.00    +0.000 HD
ENDBRANCH  15  21
BRANCH   1  25
ATOM     24  C   UNL     1      -7.160   8.947  19.638  0.00  0.00    +0.000 C 
ATOM     25  O   UNL     1      -6.924  10.150  18.906  0.00  0.00    +0.000 OA
ENDBRANCH   1  25
BRANCH   5  26
ATOM     26  O   UNL     1      -2.745  12.629  19.285  0.00  0.00    +0.000 OA
ATOM     27  C   UNL     1      -1.659  11.745  19.518  0.00  0.00    +0.000 C 
ENDBRANCH   5  26
BRANCH   6  28
ATOM     28  O   UNL     1      -4.412  10.824  17.820  0.00  0.00    +0.000 OA
ATOM     29  C   UNL     1      -4.544  11.513  16.580  0.00  0.00    +0.000 C 
ENDBRANCH   6  28
TORSDOF 5
ENDMDL
MODEL 6
REMARK VINA RESULT:      -5.8      2.219      4.311
REMARK  Name = 
REMARK  10 active torsions:
REMARK  status: ('A' for Active; 'I' for Inactive)
REMARK    1  A    between atoms: C_1  and  O_2
REMARK    2  A    between atoms: O_2  and  C_3
REMARK    3  A    between atoms: C_7  and  O_8
REMARK    4  A    between atoms: O_8  and  C_9
REMARK    5  A    between atoms: C_10  and  O_11
REMARK    6  A    between atoms: O_11  and  C_12
REMARK    7  A    between atoms: C_16  and  N_17
REMARK    8  A    between atoms: N_17  and  C_18
REMARK    9  A    between atoms: N_17  and  C_19
REMARK   10  A    between atoms: C_24  and  N_25
REMARK                            x       y       z     vdW  Elec       q    Type
REMARK                         _______ _______ _______ _____ _____    ______ ____
ROOT
ATOM      1  C   UNL     1      -3.979  11.352  17.469  0.00  0.00    +0.000 A 
ATOM      2  C   UNL     1      -2.695  11.521  17.989  0.00  0.00    +0.000 A 
ATOM      3  C   UNL     1      -2.445  12.145  19.229  0.00  0.00    +0.000 A 
ATOM      4  C   UNL     1      -3.536  12.556  20.014  0.00  0.00    +0.000 A 
ATOM      5  C   UNL     1      -4.868  12.339  19.510  0.00  0.00    +0.000 A 
ATOM      6  C   UNL     1      -5.088  11.709  18.250  0.00  0.00    +0.000 A 
ATOM      7  C   UNL     1      -3.320  13.225  21.348  0.00  0.00    +0.000 A 
ATOM      8  C   UNL     1      -3.847  12.604  22.430  0.00  0.00    +0.000 A 
ATOM      9  C   UNL     1      -3.758  13.195  23.767  0.00  0.00    +0.000 A 
ATOM     10  C   UNL     1      -4.372  14.385  23.956  0.00  0.00    +0.000 A 
ATOM     11  C   UNL     1      -3.319  15.432  23.700  0.00  0.00    +0.000 A 
ATOM     12  O   UNL     1      -2.901  16.190  24.567  0.00  0.00    +0.000 OA
ATOM     13  C   UNL     1      -2.862  15.552  22.260  0.00  0.00    +0.000 A 
ATOM     14  C   UNL     1      -2.537  14.480  21.487  0.00  0.00    +0.000 A 
ATOM     15  C   UNL     1      -1.147  14.531  20.887  0.00  0.00    +0.000 C 
ATOM     16  C   UNL     1      -0.470  13.171  20.683  0.00  0.00    +0.000 C 
ATOM     17  C   UNL     1      -0.974  12.312  19.531  0.00  0.00    +0.000 C 
ENDROOT
BRANCH  10  18
ATOM     18  N   UNL     1      -5.705  14.765  23.724  0.00  0.00    +0.000 N 
ATOM     19  C   UNL     1      -6.101  16.177  23.850  0.00  0.00    +0.000 C 
ATOM     20  C   UNL     1      -6.809  13.845  23.990  0.00  0.00    +0.000 C 
ENDBRANCH  10  18
BRANCH  15  21
ATOM     21  N   UNL     1      -1.137  15.366  19.685  0.00  0.00    +0.000 NA
ATOM     22  H   UNL     1      -2.073  15.414  19.291  0.00  0.00    +0.000 HD
ATOM     23  H   UNL     1      -0.858  16.313  19.929  0.00  0.00    +0.000 HD
ENDBRANCH  15  21
BRANCH   1  25
ATOM     24  C   UNL     1      -3.039  10.784  15.355  0.00  0.00    +0.000 C 
ATOM     25  O   UNL     1      -4.183  10.860  16.206  0.00  0.00    +0.000 OA
ENDBRANCH   1  25
BRANCH   5  26
ATOM     26  O   UNL     1      -5.863  12.808  20.346  0.00  0.00    +0.000 OA
ATOM     27  C   UNL     1      -6.842  11.929  20.877  0.00  0.00    +0.000 C 
ENDBRANCH   5  26
BRANCH   6  28
ATOM     28  O   UNL     1      -6.383  11.565  17.822  0.00  0.00    +0.000 OA
ATOM     29  C   UNL     1      -7.041  12.670  17.209  0.00  0.00    +0.000 C 
ENDBRANCH   6  28
TORSDOF 5
ENDMDL
MODEL 7
REMARK VINA RESULT:      -5.7      3.673      5.533
REMARK  Name = 
REMARK  10 active torsions:
REMARK  status: ('A' for Active; 'I' for Inactive)
REMARK    1  A    between atoms: C_1  and  O_2
REMARK    2  A    between atoms: O_2  and  C_3
REMARK    3  A    between atoms: C_7  and  O_8
REMARK    4  A    between atoms: O_8  and  C_9
REMARK    5  A    between atoms: C_10  and  O_11
REMARK    6  A    between atoms: O_11  and  C_12
REMARK    7  A    between atoms: C_16  and  N_17
REMARK    8  A    between atoms: N_17  and  C_18
REMARK    9  A    between atoms: N_17  and  C_19
REMARK   10  A    between atoms: C_24  and  N_25
REMARK                            x       y       z     vdW  Elec       q    Type
REMARK                         _______ _______ _______ _____ _____    ______ ____
ROOT
ATOM      1  C   UNL     1       2.197  14.314  18.334  0.00  0.00    +0.000 A 
ATOM      2  C   UNL     1       1.778  12.984  18.305  0.00  0.00    +0.000 A 
ATOM      3  C   UNL     1       0.708  12.499  19.086  0.00  0.00    +0.000 A 
ATOM      4  C   UNL     1      -0.018  13.404  19.880  0.00  0.00    +0.000 A 
ATOM      5  C   UNL     1       0.375  14.790  19.878  0.00  0.00    +0.000 A 
ATOM      6  C   UNL     1       1.464  15.248  19.080  0.00  0.00    +0.000 A 
ATOM      7  C   UNL     1      -1.172  12.934  20.729  0.00  0.00    +0.000 A 
ATOM      8  C   UNL     1      -2.380  13.486  20.469  0.00  0.00    +0.000 A 
ATOM      9  C   UNL     1      -3.559  13.156  21.274  0.00  0.00    +0.000 A 
ATOM     10  C   UNL     1      -3.519  13.482  22.585  0.00  0.00    +0.000 A 
ATOM     11  C   UNL     1      -3.006  12.256  23.294  0.00  0.00    +0.000 A 
ATOM     12  O   UNL     1      -3.676  11.611  24.092  0.00  0.00    +0.000 OA
ATOM     13  C   UNL     1      -1.555  11.911  23.023  0.00  0.00    +0.000 A 
ATOM     14  C   UNL     1      -1.012  11.891  21.776  0.00  0.00    +0.000 A 
ATOM     15  C   UNL     1      -0.357  10.581  21.391  0.00  0.00    +0.000 C 
ATOM     16  C   UNL     1      -0.417  10.232  19.899  0.00  0.00    +0.000 C 
ATOM     17  C   UNL     1       0.508  11.006  18.969  0.00  0.00    +0.000 C 
ENDROOT
BRANCH  10  18
ATOM     18  N   UNL     1      -3.267  14.718  23.206  0.00  0.00    +0.000 N 
ATOM     19  C   UNL     1      -3.047  14.782  24.660  0.00  0.00    +0.000 C 
ATOM     20  C   UNL     1      -3.818  15.960  22.666  0.00  0.00    +0.000 C 
ENDBRANCH  10  18
BRANCH  15  21
ATOM     21  N   UNL     1       0.992  10.496  21.950  0.00  0.00    +0.000 NA
ATOM     22  H   UNL     1       1.125  11.230  22.641  0.00  0.00    +0.000 HD
ATOM     23  H   UNL     1       1.111   9.604  22.423  0.00  0.00    +0.000 HD
ENDBRANCH  15  21
BRANCH   1  25
ATOM     24  C   UNL     1       4.571  14.513  18.317  0.00  0.00    +0.000 C 
ATOM     25  O   UNL     1       3.320  14.728  17.664  0.00  0.00    +0.000 OA
ENDBRANCH   1  25
BRANCH   5  26
ATOM     26  O   UNL     1      -0.384  15.585  20.715  0.00  0.00    +0.000 OA
ATOM     27  C   UNL     1       0.069  15.911  22.020  0.00  0.00    +0.000 C 
ENDBRANCH   5  26
BRANCH   6  28
ATOM     28  O   UNL     1       1.799  16.576  19.154  0.00  0.00    +0.000 OA
ATOM     29  C   UNL     1       1.222  17.493  18.229  0.00  0.00    +0.000 C 
ENDBRANCH   6  28
TORSDOF 5
ENDMDL
MODEL 8
REMARK VINA RESULT:      -5.7     12.775     15.280
REMARK  Name = 
REMARK  10 active torsions:
REMARK  status: ('A' for Active; 'I' for Inactive)
REMARK    1  A    between atoms: C_1  and  O_2
REMARK    2  A    between atoms: O_2  and  C_3
REMARK    3  A    between atoms: C_7  and  O_8
REMARK    4  A    between atoms: O_8  and  C_9
REMARK    5  A    between atoms: C_10  and  O_11
REMARK    6  A    between atoms: O_11  and  C_12
REMARK    7  A    between atoms: C_16  and  N_17
REMARK    8  A    between atoms: N_17  and  C_18
REMARK    9  A    between atoms: N_17  and  C_19
REMARK   10  A    between atoms: C_24  and  N_25
REMARK                            x       y       z     vdW  Elec       q    Type
REMARK                         _______ _______ _______ _____ _____    ______ ____
ROOT
ATOM      1  C   UNL     1       7.332  12.568  23.170  0.00  0.00    +0.000 A 
ATOM      2  C   UNL     1       8.150  11.752  22.387  0.00  0.00    +0.000 A 
ATOM      3  C   UNL     1       9.053  12.263  21.431  0.00  0.00    +0.000 A 
ATOM      4  C   UNL     1       9.192  13.656  21.305  0.00  0.00    +0.000 A 
ATOM      5  C   UNL     1       8.390  14.508  22.145  0.00  0.00    +0.000 A 
ATOM      6  C   UNL     1       7.482  13.961  23.099  0.00  0.00    +0.000 A 
ATOM      7  C   UNL     1      10.148  14.249  20.300  0.00  0.00    +0.000 A 
ATOM      8  C   UNL     1      11.135  15.035  20.792  0.00  0.00    +0.000 A 
ATOM      9  C   UNL     1      12.079  15.718  19.905  0.00  0.00    +0.000 A 
ATOM     10  C   UNL     1      11.568  16.629  19.047  0.00  0.00    +0.000 A 
ATOM     11  C   UNL     1      11.302  15.880  17.768  0.00  0.00    +0.000 A 
ATOM     12  O   UNL     1      11.892  16.110  16.719  0.00  0.00    +0.000 OA
ATOM     13  C   UNL     1      10.179  14.864  17.835  0.00  0.00    +0.000 A 
ATOM     14  C   UNL     1      10.046  13.963  18.845  0.00  0.00    +0.000 A 
ATOM     15  C   UNL     1       9.987  12.516  18.399  0.00  0.00    +0.000 C 
ATOM     16  C   UNL     1      10.573  11.501  19.388  0.00  0.00    +0.000 C 
ATOM     17  C   UNL     1       9.750  11.188  20.629  0.00  0.00    +0.000 C 
ENDROOT
BRANCH  10  18
ATOM     18  N   UNL     1      10.767  17.758  19.293  0.00  0.00    +0.000 N 
ATOM     19  C   UNL     1      10.134  18.470  18.172  0.00  0.00    +0.000 C 
ATOM     20  C   UNL     1      11.018  18.626  20.442  0.00  0.00    +0.000 C 
ENDBRANCH  10  18
BRANCH  15  21
ATOM     21  N   UNL     1       8.638  12.171  17.951  0.00  0.00    +0.000 NA
ATOM     22  H   UNL     1       8.605  11.192  17.680  0.00  0.00    +0.000 HD
ATOM     23  H   UNL     1       7.980  12.301  18.715  0.00  0.00    +0.000 HD
ENDBRANCH  15  21
BRANCH   1  25
ATOM     24  C   UNL     1       6.834  11.398  25.184  0.00  0.00    +0.000 C 
ATOM     25  O   UNL     1       6.373  12.042  23.996  0.00  0.00    +0.000 OA
ENDBRANCH   1  25
BRANCH   5  26
ATOM     26  O   UNL     1       8.583  15.856  21.917  0.00  0.00    +0.000 OA
ATOM     27  C   UNL     1       7.700  16.588  21.082  0.00  0.00    +0.000 C 
ENDBRANCH   5  26
BRANCH   6  28
ATOM     28  O   UNL     1       6.730  14.834  23.842  0.00  0.00    +0.000 OA
ATOM     29  C   UNL     1       7.172  15.202  25.144  0.00  0.00    +0.000 C 
ENDBRANCH   6  28
TORSDOF 5
ENDMDL
MODEL 9
REMARK VINA RESULT:      -5.6      2.801      5.345
REMARK  Name = 
REMARK  10 active torsions:
REMARK  status: ('A' for Active; 'I' for Inactive)
REMARK    1  A    between atoms: C_1  and  O_2
REMARK    2  A    between atoms: O_2  and  C_3
REMARK    3  A    between atoms: C_7  and  O_8
REMARK    4  A    between atoms: O_8  and  C_9
REMARK    5  A    between atoms: C_10  and  O_11
REMARK    6  A    between atoms: O_11  and  C_12
REMARK    7  A    between atoms: C_16  and  N_17
REMARK    8  A    between atoms: N_17  and  C_18
REMARK    9  A    between atoms: N_17  and  C_19
REMARK   10  A    between atoms: C_24  and  N_25
REMARK                            x       y       z     vdW  Elec       q    Type
REMARK                         _______ _______ _______ _____ _____    ______ ____
ROOT
ATOM      1  C   UNL     1      -6.593  13.115  18.712  0.00  0.00    +0.000 A 
ATOM      2  C   UNL     1      -5.794  12.057  18.277  0.00  0.00    +0.000 A 
ATOM      3  C   UNL     1      -4.496  11.820  18.777  0.00  0.00    +0.000 A 
ATOM      4  C   UNL     1      -4.005  12.639  19.809  0.00  0.00    +0.000 A 
ATOM      5  C   UNL     1      -4.843  13.702  20.302  0.00  0.00    +0.000 A 
ATOM      6  C   UNL     1      -6.149  13.919  19.773  0.00  0.00    +0.000 A 
ATOM      7  C   UNL     1      -2.626  12.421  20.377  0.00  0.00    +0.000 A 
ATOM      8  C   UNL     1      -2.553  12.140  21.700  0.00  0.00    +0.000 A 
ATOM      9  C   UNL     1      -1.263  11.976  22.375  0.00  0.00    +0.000 A 
ATOM     10  C   UNL     1      -0.441  13.050  22.399  0.00  0.00    +0.000 A 
ATOM     11  C   UNL     1       0.456  12.903  21.198  0.00  0.00    +0.000 A 
ATOM     12  O   UNL     1       1.666  12.728  21.280  0.00  0.00    +0.000 OA
ATOM     13  C   UNL     1      -0.226  13.074  19.855  0.00  0.00    +0.000 A 
ATOM     14  C   UNL     1      -1.403  12.473  19.534  0.00  0.00    +0.000 A 
ATOM     15  C   UNL     1      -1.359  11.623  18.281  0.00  0.00    +0.000 C 
ATOM     16  C   UNL     1      -2.298  10.411  18.277  0.00  0.00    +0.000 C 
ATOM     17  C   UNL     1      -3.782  10.686  18.079  0.00  0.00    +0.000 C 
ENDROOT
BRANCH  10  18
ATOM     18  N   UNL     1      -0.672  14.360  22.855  0.00  0.00    +0.000 N 
ATOM     19  C   UNL     1       0.276  15.434  22.520  0.00  0.00    +0.000 C 
ATOM     20  C   UNL     1      -1.385  14.609  24.106  0.00  0.00    +0.000 C 
ENDBRANCH  10  18
BRANCH  15  21
ATOM     21  N   UNL     1      -1.491  12.459  17.087  0.00  0.00    +0.000 NA
ATOM     22  H   UNL     1      -0.672  12.347  16.496  0.00  0.00    +0.000 HD
ATOM     23  H   UNL     1      -2.301  12.161  16.549  0.00  0.00    +0.000 HD
ENDBRANCH  15  21
BRANCH   1  25
ATOM     24  C   UNL     1      -7.756  14.222  16.953  0.00  0.00    +0.000 C 
ATOM     25  O   UNL     1      -7.795  13.399  18.119  0.00  0.00    +0.000 OA
ENDBRANCH   1  25
BRANCH   5  26
ATOM     26  O   UNL     1      -4.252  14.463  21.292  0.00  0.00    +0.000 OA
ATOM     27  C   UNL     1      -4.819  14.536  22.591  0.00  0.00    +0.000 C 
ENDBRANCH   5  26
BRANCH   6  28
ATOM     28  O   UNL     1      -6.876  14.970  20.270  0.00  0.00    +0.000 OA
ATOM     29  C   UNL     1      -6.633  16.283  19.773  0.00  0.00    +0.000 C 
ENDBRANCH   6  28
TORSDOF 5
ENDMDL
