MODEL 1
REMARK VINA RESULT:      -8.1      0.000      0.000
REMARK  Name = 
REMARK  5 active torsions:
REMARK  status: ('A' for Active; 'I' for Inactive)
REMARK    1  A    between atoms: C_1  and  C_2
REMARK    2  A    between atoms: C_2  and  C_3
REMARK    3  A    between atoms: C_2  and  O_4
REMARK    4  A    between atoms: O_4  and  C_5
REMARK    5  A    between atoms: C_9  and  C_10
REMARK                            x       y       z     vdW  Elec       q    Type
REMARK                         _______ _______ _______ _____ _____    ______ ____
ROOT
ATOM      1  C   UNL     1       4.391   3.665  17.771  0.00  0.00    +0.000 A 
ATOM      2  N   UNL     1       4.727   3.220  18.966  0.00  0.00    +0.000 NA
ATOM      3  C   UNL     1       3.565   2.820  19.585  0.00  0.00    +0.000 A 
ATOM      4  C   UNL     1       2.495   2.980  18.716  0.00  0.00    +0.000 A 
ATOM      5  N   UNL     1       3.041   3.516  17.575  0.00  0.00    +0.000 N 
ATOM      6  C   UNL     1       1.061   2.627  18.837  0.00  0.00    +0.000 C 
ATOM      7  C   UNL     1       0.428   2.894  20.208  0.00  0.00    +0.000 C 
ATOM      8  C   UNL     1       1.335   3.476  21.287  0.00  0.00    +0.000 C 
ATOM      9  N   UNL     1       2.381   2.556  21.680  0.00  0.00    +0.000 N 
ATOM     10  C   UNL     1       3.533   2.323  20.961  0.00  0.00    +0.000 C 
ATOM     11  O   UNL     1       4.469   1.744  21.502  0.00  0.00    +0.000 OA
ATOM     12  H   UNL     1       2.555   3.718  16.714  0.00  0.00    +0.000 HD
ATOM     13  H   UNL     1       2.470   2.287  22.652  0.00  0.00    +0.000 HD
ENDROOT
BRANCH   1  18
ATOM     14  C   UNL     1       7.022   5.805  16.204  0.00  0.00    +0.000 A 
ATOM     15  C   UNL     1       7.173   5.202  14.953  0.00  0.00    +0.000 A 
ATOM     16  C   UNL     1       6.409   4.076  14.609  0.00  0.00    +0.000 A 
ATOM     17  C   UNL     1       5.495   3.541  15.522  0.00  0.00    +0.000 A 
ATOM     18  C   UNL     1       5.330   4.151  16.772  0.00  0.00    +0.000 A 
ATOM     19  C   UNL     1       6.076   5.297  17.086  0.00  0.00    +0.000 A 
BRANCH  14  20
ATOM     20  O   UNL     1       7.757   6.931  16.459  0.00  0.00    +0.000 OA
BRANCH  20  22
ATOM     21  C   UNL     1       8.182   6.746  18.796  0.00  0.00    +0.000 C 
ATOM     22  C   UNL     1       7.523   7.596  17.718  0.00  0.00    +0.000 C 
ATOM     23  C   UNL     1       8.155   8.988  17.728  0.00  0.00    +0.000 C 
ENDBRANCH  20  22
ENDBRANCH  14  20
ENDBRANCH   1  18
TORSDOF 3
ENDMDL
MODEL 2
REMARK VINA RESULT:      -8.0      2.014      3.858
REMARK  Name = 
REMARK  5 active torsions:
REMARK  status: ('A' for Active; 'I' for Inactive)
REMARK    1  A    between atoms: C_1  and  C_2
REMARK    2  A    between atoms: C_2  and  C_3
REMARK    3  A    between atoms: C_2  and  O_4
REMARK    4  A    between atoms: O_4  and  C_5
REMARK    5  A    between atoms: C_9  and  C_10
REMARK                            x       y       z     vdW  Elec       q    Type
REMARK                         _______ _______ _______ _____ _____    ______ ____
ROOT
ATOM      1  C   UNL     1       4.788   3.850  17.016  0.00  0.00    +0.000 A 
ATOM      2  N   UNL     1       5.156   3.352  18.180  0.00  0.00    +0.000 NA
ATOM      3  C   UNL     1       4.004   3.000  18.846  0.00  0.00    +0.000 A 
ATOM      4  C   UNL     1       2.905   3.245  18.037  0.00  0.00    +0.000 A 
ATOM      5  N   UNL     1       3.424   3.783  16.884  0.00  0.00    +0.000 N 
ATOM      6  C   UNL     1       1.460   2.969  18.220  0.00  0.00    +0.000 C 
ATOM      7  C   UNL     1       0.911   3.232  19.627  0.00  0.00    +0.000 C 
ATOM      8  C   UNL     1       1.902   3.730  20.675  0.00  0.00    +0.000 C 
ATOM      9  N   UNL     1       2.911   2.742  20.990  0.00  0.00    +0.000 N 
ATOM     10  C   UNL     1       4.011   2.466  20.209  0.00  0.00    +0.000 C 
ATOM     11  O   UNL     1       4.937   1.820  20.686  0.00  0.00    +0.000 OA
ATOM     12  H   UNL     1       2.909   4.036  16.054  0.00  0.00    +0.000 HD
ATOM     13  H   UNL     1       3.031   2.441  21.949  0.00  0.00    +0.000 HD
ENDROOT
BRANCH   1  18
ATOM     14  C   UNL     1       6.330   4.226  13.634  0.00  0.00    +0.000 A 
ATOM     15  C   UNL     1       7.382   5.106  13.896  0.00  0.00    +0.000 A 
ATOM     16  C   UNL     1       7.597   5.592  15.195  0.00  0.00    +0.000 A 
ATOM     17  C   UNL     1       6.751   5.205  16.238  0.00  0.00    +0.000 A 
ATOM     18  C   UNL     1       5.704   4.311  15.983  0.00  0.00    +0.000 A 
ATOM     19  C   UNL     1       5.525   3.807  14.686  0.00  0.00    +0.000 A 
BRANCH  14  20
ATOM     20  O   UNL     1       6.205   3.746  12.357  0.00  0.00    +0.000 OA
BRANCH  20  22
ATOM     21  C   UNL     1       4.120   3.267  11.309  0.00  0.00    +0.000 C 
ATOM     22  C   UNL     1       5.251   2.684  12.146  0.00  0.00    +0.000 C 
ATOM     23  C   UNL     1       5.887   1.522  11.382  0.00  0.00    +0.000 C 
ENDBRANCH  20  22
ENDBRANCH  14  20
ENDBRANCH   1  18
TORSDOF 3
ENDMDL
MODEL 3
REMARK VINA RESULT:      -8.0      4.632      6.070
REMARK  Name = 
REMARK  5 active torsions:
REMARK  status: ('A' for Active; 'I' for Inactive)
REMARK    1  A    between atoms: C_1  and  C_2
REMARK    2  A    between atoms: C_2  and  C_3
REMARK    3  A    between atoms: C_2  and  O_4
REMARK    4  A    between atoms: O_4  and  C_5
REMARK    5  A    between atoms: C_9  and  C_10
REMARK                            x       y       z     vdW  Elec       q    Type
REMARK                         _______ _______ _______ _____ _____    ______ ____
ROOT
ATOM      1  C   UNL     1       2.252   6.825  19.835  0.00  0.00    +0.000 A 
ATOM      2  N   UNL     1       2.311   7.663  18.818  0.00  0.00    +0.000 NA
ATOM      3  C   UNL     1       1.658   8.810  19.208  0.00  0.00    +0.000 A 
ATOM      4  C   UNL     1       1.234   8.682  20.522  0.00  0.00    +0.000 A 
ATOM      5  N   UNL     1       1.620   7.418  20.899  0.00  0.00    +0.000 N 
ATOM      6  C   UNL     1       0.574   9.634  21.447  0.00  0.00    +0.000 C 
ATOM      7  C   UNL     1      -0.516  10.512  20.823  0.00  0.00    +0.000 C 
ATOM      8  C   UNL     1      -0.791  10.321  19.335  0.00  0.00    +0.000 C 
ATOM      9  N   UNL     1       0.333  10.713  18.514  0.00  0.00    +0.000 N 
ATOM     10  C   UNL     1       1.463   9.951  18.313  0.00  0.00    +0.000 C 
ATOM     11  O   UNL     1       2.226  10.242  17.398  0.00  0.00    +0.000 OA
ATOM     12  H   UNL     1       1.515   7.005  21.813  0.00  0.00    +0.000 HD
ATOM     13  H   UNL     1       0.205  11.413  17.793  0.00  0.00    +0.000 HD
ENDROOT
BRANCH   1  18
ATOM     14  C   UNL     1       4.833   4.160  19.397  0.00  0.00    +0.000 A 
ATOM     15  C   UNL     1       4.148   3.024  19.835  0.00  0.00    +0.000 A 
ATOM     16  C   UNL     1       2.822   3.122  20.285  0.00  0.00    +0.000 A 
ATOM     17  C   UNL     1       2.178   4.363  20.308  0.00  0.00    +0.000 A 
ATOM     18  C   UNL     1       2.856   5.501  19.856  0.00  0.00    +0.000 A 
ATOM     19  C   UNL     1       4.169   5.379  19.376  0.00  0.00    +0.000 A 
BRANCH  14  20
ATOM     20  O   UNL     1       6.105   3.990  18.920  0.00  0.00    +0.000 OA
BRANCH  20  22
ATOM     21  C   UNL     1       7.769   5.689  19.069  0.00  0.00    +0.000 C 
ATOM     22  C   UNL     1       6.682   5.089  18.185  0.00  0.00    +0.000 C 
ATOM     23  C   UNL     1       7.315   4.603  16.881  0.00  0.00    +0.000 C 
ENDBRANCH  20  22
ENDBRANCH  14  20
ENDBRANCH   1  18
TORSDOF 3
ENDMDL
MODEL 4
REMARK VINA RESULT:      -8.0      4.982      6.247
REMARK  Name = 
REMARK  5 active torsions:
REMARK  status: ('A' for Active; 'I' for Inactive)
REMARK    1  A    between atoms: C_1  and  C_2
REMARK    2  A    between atoms: C_2  and  C_3
REMARK    3  A    between atoms: C_2  and  O_4
REMARK    4  A    between atoms: O_4  and  C_5
REMARK    5  A    between atoms: C_9  and  C_10
REMARK                            x       y       z     vdW  Elec       q    Type
REMARK                         _______ _______ _______ _____ _____    ______ ____
ROOT
ATOM      1  C   UNL     1       2.630   6.568  18.724  0.00  0.00    +0.000 A 
ATOM      2  N   UNL     1       3.828   6.221  19.152  0.00  0.00    +0.000 NA
ATOM      3  C   UNL     1       4.018   4.908  18.786  0.00  0.00    +0.000 A 
ATOM      4  C   UNL     1       2.920   4.461  18.067  0.00  0.00    +0.000 A 
ATOM      5  N   UNL     1       2.054   5.527  18.040  0.00  0.00    +0.000 N 
ATOM      6  C   UNL     1       2.647   3.181  17.371  0.00  0.00    +0.000 C 
ATOM      7  C   UNL     1       3.108   1.918  18.107  0.00  0.00    +0.000 C 
ATOM      8  C   UNL     1       3.799   2.114  19.453  0.00  0.00    +0.000 C 
ATOM      9  N   UNL     1       5.069   2.794  19.323  0.00  0.00    +0.000 N 
ATOM     10  C   UNL     1       5.218   4.152  19.148  0.00  0.00    +0.000 C 
ATOM     11  O   UNL     1       6.320   4.661  19.322  0.00  0.00    +0.000 OA
ATOM     12  H   UNL     1       1.169   5.571  17.557  0.00  0.00    +0.000 HD
ATOM     13  H   UNL     1       5.909   2.355  19.680  0.00  0.00    +0.000 HD
ENDROOT
BRANCH   1  18
ATOM     14  C   UNL     1       1.304   9.630  20.405  0.00  0.00    +0.000 A 
ATOM     15  C   UNL     1       0.934  10.418  19.312  0.00  0.00    +0.000 A 
ATOM     16  C   UNL     1       1.121   9.950  18.002  0.00  0.00    +0.000 A 
ATOM     17  C   UNL     1       1.688   8.692  17.779  0.00  0.00    +0.000 A 
ATOM     18  C   UNL     1       2.047   7.893  18.871  0.00  0.00    +0.000 A 
ATOM     19  C   UNL     1       1.821   8.361  20.175  0.00  0.00    +0.000 A 
BRANCH  14  20
ATOM     20  O   UNL     1       1.048  10.120  21.657  0.00  0.00    +0.000 OA
BRANCH  20  22
ATOM     21  C   UNL     1      -0.541   9.393  23.278  0.00  0.00    +0.000 C 
ATOM     22  C   UNL     1      -0.338  10.254  22.038  0.00  0.00    +0.000 C 
ATOM     23  C   UNL     1      -0.673  11.706  22.380  0.00  0.00    +0.000 C 
ENDBRANCH  20  22
ENDBRANCH  14  20
ENDBRANCH   1  18
TORSDOF 3
ENDMDL
MODEL 5
REMARK VINA RESULT:      -7.8      4.426      5.902
REMARK  Name = 
REMARK  5 active torsions:
REMARK  status: ('A' for Active; 'I' for Inactive)
REMARK    1  A    between atoms: C_1  and  C_2
REMARK    2  A    between atoms: C_2  and  C_3
REMARK    3  A    between atoms: C_2  and  O_4
REMARK    4  A    between atoms: O_4  and  C_5
REMARK    5  A    between atoms: C_9  and  C_10
REMARK                            x       y       z     vdW  Elec       q    Type
REMARK                         _______ _______ _______ _____ _____    ______ ____
ROOT
ATOM      1  C   UNL     1       2.393   6.525  19.532  0.00  0.00    +0.000 A 
ATOM      2  N   UNL     1       2.332   7.485  18.630  0.00  0.00    +0.000 NA
ATOM      3  C   UNL     1       1.769   8.579  19.248  0.00  0.00    +0.000 A 
ATOM      4  C   UNL     1       1.529   8.287  20.583  0.00  0.00    +0.000 A 
ATOM      5  N   UNL     1       1.931   6.982  20.740  0.00  0.00    +0.000 N 
ATOM      6  C   UNL     1       1.030   9.119  21.704  0.00  0.00    +0.000 C 
ATOM      7  C   UNL     1      -0.114  10.078  21.354  0.00  0.00    +0.000 C 
ATOM      8  C   UNL     1      -0.598  10.080  19.908  0.00  0.00    +0.000 C 
ATOM      9  N   UNL     1       0.411  10.565  18.992  0.00  0.00    +0.000 N 
ATOM     10  C   UNL     1       1.481   9.826  18.540  0.00  0.00    +0.000 C 
ATOM     11  O   UNL     1       2.117  10.224  17.570  0.00  0.00    +0.000 OA
ATOM     12  H   UNL     1       1.944   6.457  21.602  0.00  0.00    +0.000 HD
ATOM     13  H   UNL     1       0.201  11.352  18.390  0.00  0.00    +0.000 HD
ENDROOT
BRANCH   1  18
ATOM     14  C   UNL     1       4.257   3.778  17.819  0.00  0.00    +0.000 A 
ATOM     15  C   UNL     1       4.103   2.722  18.721  0.00  0.00    +0.000 A 
ATOM     16  C   UNL     1       3.382   2.903  19.911  0.00  0.00    +0.000 A 
ATOM     17  C   UNL     1       2.819   4.148  20.210  0.00  0.00    +0.000 A 
ATOM     18  C   UNL     1       2.959   5.205  19.302  0.00  0.00    +0.000 A 
ATOM     19  C   UNL     1       3.653   4.996  18.099  0.00  0.00    +0.000 A 
BRANCH  14  20
ATOM     20  O   UNL     1       4.925   3.523  16.650  0.00  0.00    +0.000 OA
BRANCH  20  22
ATOM     21  C   UNL     1       7.083   4.518  16.831  0.00  0.00    +0.000 C 
ATOM     22  C   UNL     1       5.740   4.587  16.116  0.00  0.00    +0.000 C 
ATOM     23  C   UNL     1       5.965   4.401  14.615  0.00  0.00    +0.000 C 
ENDBRANCH  20  22
ENDBRANCH  14  20
ENDBRANCH   1  18
TORSDOF 3
ENDMDL
MODEL 6
REMARK VINA RESULT:      -7.8      1.952      3.511
REMARK  Name = 
REMARK  5 active torsions:
REMARK  status: ('A' for Active; 'I' for Inactive)
REMARK    1  A    between atoms: C_1  and  C_2
REMARK    2  A    between atoms: C_2  and  C_3
REMARK    3  A    between atoms: C_2  and  O_4
REMARK    4  A    between atoms: O_4  and  C_5
REMARK    5  A    between atoms: C_9  and  C_10
REMARK                            x       y       z     vdW  Elec       q    Type
REMARK                         _______ _______ _______ _____ _____    ______ ____
ROOT
ATOM      1  C   UNL     1       4.119   3.887  17.624  0.00  0.00    +0.000 A 
ATOM      2  N   UNL     1       4.688   3.373  18.697  0.00  0.00    +0.000 NA
ATOM      3  C   UNL     1       3.674   2.906  19.502  0.00  0.00    +0.000 A 
ATOM      4  C   UNL     1       2.453   3.097  18.873  0.00  0.00    +0.000 A 
ATOM      5  N   UNL     1       2.759   3.720  17.686  0.00  0.00    +0.000 N 
ATOM      6  C   UNL     1       1.074   2.703  19.247  0.00  0.00    +0.000 C 
ATOM      7  C   UNL     1       0.721   2.866  20.730  0.00  0.00    +0.000 C 
ATOM      8  C   UNL     1       1.817   3.397  21.648  0.00  0.00    +0.000 C 
ATOM      9  N   UNL     1       2.928   2.479  21.765  0.00  0.00    +0.000 N 
ATOM     10  C   UNL     1       3.919   2.320  20.821  0.00  0.00    +0.000 C 
ATOM     11  O   UNL     1       4.949   1.730  21.127  0.00  0.00    +0.000 OA
ATOM     12  H   UNL     1       2.111   3.965  16.953  0.00  0.00    +0.000 HD
ATOM     13  H   UNL     1       3.209   2.150  22.680  0.00  0.00    +0.000 HD
ENDROOT
BRANCH   1  18
ATOM     14  C   UNL     1       6.037   4.035  14.422  0.00  0.00    +0.000 A 
ATOM     15  C   UNL     1       6.242   5.409  14.275  0.00  0.00    +0.000 A 
ATOM     16  C   UNL     1       5.746   6.309  15.231  0.00  0.00    +0.000 A 
ATOM     17  C   UNL     1       5.032   5.836  16.337  0.00  0.00    +0.000 A 
ATOM     18  C   UNL     1       4.838   4.459  16.496  0.00  0.00    +0.000 A 
ATOM     19  C   UNL     1       5.371   3.571  15.549  0.00  0.00    +0.000 A 
BRANCH  14  20
ATOM     20  O   UNL     1       6.592   3.206  13.484  0.00  0.00    +0.000 OA
BRANCH  20  22
ATOM     21  C   UNL     1       7.054   2.471  11.265  0.00  0.00    +0.000 C 
ATOM     22  C   UNL     1       6.252   3.457  12.104  0.00  0.00    +0.000 C 
ATOM     23  C   UNL     1       4.761   3.223  11.857  0.00  0.00    +0.000 C 
ENDBRANCH  20  22
ENDBRANCH  14  20
ENDBRANCH   1  18
TORSDOF 3
ENDMDL
MODEL 7
REMARK VINA RESULT:      -7.8      4.781      5.958
REMARK  Name = 
REMARK  5 active torsions:
REMARK  status: ('A' for Active; 'I' for Inactive)
REMARK    1  A    between atoms: C_1  and  C_2
REMARK    2  A    between atoms: C_2  and  C_3
REMARK    3  A    between atoms: C_2  and  O_4
REMARK    4  A    between atoms: O_4  and  C_5
REMARK    5  A    between atoms: C_9  and  C_10
REMARK                            x       y       z     vdW  Elec       q    Type
REMARK                         _______ _______ _______ _____ _____    ______ ____
ROOT
ATOM      1  C   UNL     1       2.139   7.020  19.692  0.00  0.00    +0.000 A 
ATOM      2  N   UNL     1       1.999   8.112  18.966  0.00  0.00    +0.000 NA
ATOM      3  C   UNL     1       1.478   9.079  19.796  0.00  0.00    +0.000 A 
ATOM      4  C   UNL     1       1.346   8.570  21.079  0.00  0.00    +0.000 A 
ATOM      5  N   UNL     1       1.770   7.266  20.990  0.00  0.00    +0.000 N 
ATOM      6  C   UNL     1       0.930   9.199  22.355  0.00  0.00    +0.000 C 
ATOM      7  C   UNL     1      -0.245  10.179  22.256  0.00  0.00    +0.000 C 
ATOM      8  C   UNL     1      -0.842  10.405  20.871  0.00  0.00    +0.000 C 
ATOM      9  N   UNL     1       0.088  11.053  19.971  0.00  0.00    +0.000 N 
ATOM     10  C   UNL     1       1.125  10.419  19.324  0.00  0.00    +0.000 C 
ATOM     11  O   UNL     1       1.680  10.982  18.386  0.00  0.00    +0.000 OA
ATOM     12  H   UNL     1       1.854   6.608  21.751  0.00  0.00    +0.000 HD
ATOM     13  H   UNL     1      -0.174  11.922  19.523  0.00  0.00    +0.000 HD
ENDROOT
BRANCH   1  18
ATOM     14  C   UNL     1       4.693   4.411  18.900  0.00  0.00    +0.000 A 
ATOM     15  C   UNL     1       3.909   3.410  18.320  0.00  0.00    +0.000 A 
ATOM     16  C   UNL     1       2.523   3.582  18.184  0.00  0.00    +0.000 A 
ATOM     17  C   UNL     1       1.912   4.755  18.638  0.00  0.00    +0.000 A 
ATOM     18  C   UNL     1       2.695   5.766  19.208  0.00  0.00    +0.000 A 
ATOM     19  C   UNL     1       4.085   5.593  19.303  0.00  0.00    +0.000 A 
BRANCH  14  20
ATOM     20  O   UNL     1       6.046   4.206  18.955  0.00  0.00    +0.000 OA
BRANCH  20  22
ATOM     21  C   UNL     1       7.887   5.673  19.320  0.00  0.00    +0.000 C 
ATOM     22  C   UNL     1       6.883   5.175  18.290  0.00  0.00    +0.000 C 
ATOM     23  C   UNL     1       7.641   4.535  17.126  0.00  0.00    +0.000 C 
ENDBRANCH  20  22
ENDBRANCH  14  20
ENDBRANCH   1  18
TORSDOF 3
ENDMDL
MODEL 8
REMARK VINA RESULT:      -7.7      2.579      4.378
REMARK  Name = 
REMARK  5 active torsions:
REMARK  status: ('A' for Active; 'I' for Inactive)
REMARK    1  A    between atoms: C_1  and  C_2
REMARK    2  A    between atoms: C_2  and  C_3
REMARK    3  A    between atoms: C_2  and  O_4
REMARK    4  A    between atoms: O_4  and  C_5
REMARK    5  A    between atoms: C_9  and  C_10
REMARK                            x       y       z     vdW  Elec       q    Type
REMARK                         _______ _______ _______ _____ _____    ______ ____
ROOT
ATOM      1  C   UNL     1       4.841   4.193  16.705  0.00  0.00    +0.000 A 
ATOM      2  N   UNL     1       4.163   5.102  17.378  0.00  0.00    +0.000 NA
ATOM      3  C   UNL     1       3.401   4.427  18.305  0.00  0.00    +0.000 A 
ATOM      4  C   UNL     1       3.666   3.068  18.225  0.00  0.00    +0.000 A 
ATOM      5  N   UNL     1       4.580   2.943  17.206  0.00  0.00    +0.000 N 
ATOM      6  C   UNL     1       3.199   1.920  19.037  0.00  0.00    +0.000 C 
ATOM      7  C   UNL     1       1.720   1.955  19.440  0.00  0.00    +0.000 C 
ATOM      8  C   UNL     1       0.905   3.158  18.978  0.00  0.00    +0.000 C 
ATOM      9  N   UNL     1       1.350   4.391  19.590  0.00  0.00    +0.000 N 
ATOM     10  C   UNL     1       2.461   5.105  19.199  0.00  0.00    +0.000 C 
ATOM     11  O   UNL     1       2.599   6.259  19.589  0.00  0.00    +0.000 OA
ATOM     12  H   UNL     1       5.031   2.092  16.906  0.00  0.00    +0.000 HD
ATOM     13  H   UNL     1       0.692   4.955  20.112  0.00  0.00    +0.000 HD
ENDROOT
BRANCH   1  18
ATOM     14  C   UNL     1       6.398   4.203  13.309  0.00  0.00    +0.000 A 
ATOM     15  C   UNL     1       7.554   4.957  13.527  0.00  0.00    +0.000 A 
ATOM     16  C   UNL     1       7.835   5.475  14.800  0.00  0.00    +0.000 A 
ATOM     17  C   UNL     1       6.954   5.250  15.862  0.00  0.00    +0.000 A 
ATOM     18  C   UNL     1       5.801   4.484  15.651  0.00  0.00    +0.000 A 
ATOM     19  C   UNL     1       5.553   3.942  14.380  0.00  0.00    +0.000 A 
BRANCH  14  20
ATOM     20  O   UNL     1       6.207   3.680  12.058  0.00  0.00    +0.000 OA
BRANCH  20  22
ATOM     21  C   UNL     1       4.094   3.102  11.120  0.00  0.00    +0.000 C 
ATOM     22  C   UNL     1       5.270   2.589  11.940  0.00  0.00    +0.000 C 
ATOM     23  C   UNL     1       5.903   1.402  11.213  0.00  0.00    +0.000 C 
ENDBRANCH  20  22
ENDBRANCH  14  20
ENDBRANCH   1  18
TORSDOF 3
ENDMDL
MODEL 9
REMARK VINA RESULT:      -7.7      5.218      7.166
REMARK  Name = 
REMARK  5 active torsions:
REMARK  status: ('A' for Active; 'I' for Inactive)
REMARK    1  A    between atoms: C_1  and  C_2
REMARK    2  A    between atoms: C_2  and  C_3
REMARK    3  A    between atoms: C_2  and  O_4
REMARK    4  A    between atoms: O_4  and  C_5
REMARK    5  A    between atoms: C_9  and  C_10
REMARK                            x       y       z     vdW  Elec       q    Type
REMARK                         _______ _______ _______ _____ _____    ______ ____
ROOT
ATOM      1  C   UNL     1       2.993   7.087  18.721  0.00  0.00    +0.000 A 
ATOM      2  N   UNL     1       3.545   5.984  19.188  0.00  0.00    +0.000 NA
ATOM      3  C   UNL     1       4.450   5.559  18.243  0.00  0.00    +0.000 A 
ATOM      4  C   UNL     1       4.484   6.461  17.191  0.00  0.00    +0.000 A 
ATOM      5  N   UNL     1       3.554   7.420  17.514  0.00  0.00    +0.000 N 
ATOM      6  C   UNL     1       5.332   6.535  15.977  0.00  0.00    +0.000 C 
ATOM      7  C   UNL     1       5.610   5.195  15.285  0.00  0.00    +0.000 C 
ATOM      8  C   UNL     1       5.002   3.949  15.920  0.00  0.00    +0.000 C 
ATOM      9  N   UNL     1       5.564   3.667  17.223  0.00  0.00    +0.000 N 
ATOM     10  C   UNL     1       5.217   4.320  18.385  0.00  0.00    +0.000 C 
ATOM     11  O   UNL     1       5.538   3.834  19.464  0.00  0.00    +0.000 OA
ATOM     12  H   UNL     1       3.350   8.259  16.992  0.00  0.00    +0.000 HD
ATOM     13  H   UNL     1       5.992   2.766  17.398  0.00  0.00    +0.000 HD
ENDROOT
BRANCH   1  18
ATOM     14  C   UNL     1       0.431   9.739  19.320  0.00  0.00    +0.000 A 
ATOM     15  C   UNL     1       0.085   9.506  20.654  0.00  0.00    +0.000 A 
ATOM     16  C   UNL     1       0.692   8.466  21.374  0.00  0.00    +0.000 A 
ATOM     17  C   UNL     1       1.642   7.646  20.760  0.00  0.00    +0.000 A 
ATOM     18  C   UNL     1       2.003   7.885  19.428  0.00  0.00    +0.000 A 
ATOM     19  C   UNL     1       1.413   8.952  18.733  0.00  0.00    +0.000 A 
BRANCH  14  20
ATOM     20  O   UNL     1      -0.157  10.802  18.688  0.00  0.00    +0.000 OA
BRANCH  20  22
ATOM     21  C   UNL     1      -2.046  12.206  19.059  0.00  0.00    +0.000 C 
ATOM     22  C   UNL     1      -1.599  10.815  18.629  0.00  0.00    +0.000 C 
ATOM     23  C   UNL     1      -2.090  10.552  17.205  0.00  0.00    +0.000 C 
ENDBRANCH  20  22
ENDBRANCH  14  20
ENDBRANCH   1  18
TORSDOF 3
ENDMDL
