MODEL 1
REMARK VINA RESULT:      -6.9      0.000      0.000
REMARK  Name = 
REMARK  7 active torsions:
REMARK  status: ('A' for Active; 'I' for Inactive)
REMARK    1  A    between atoms: C_1  and  C_2
REMARK    2  A    between atoms: C_2  and  C_3
REMARK    3  A    between atoms: C_2  and  C_4
REMARK    4  A    between atoms: C_2  and  C_5
REMARK    5  A    between atoms: C_14  and  C_15
REMARK    6  A    between atoms: N_17  and  C_18
REMARK    7  A    between atoms: C_18  and  C_19
REMARK                            x       y       z     vdW  Elec       q    Type
REMARK                         _______ _______ _______ _____ _____    ______ ____
ROOT
ATOM      1  C   UNL     1       2.839   3.744  19.351  0.00  0.00    +0.000 A 
ATOM      2  C   UNL     1       2.325   3.354  18.178  0.00  0.00    +0.000 A 
ATOM      3  C   UNL     1       3.119   3.526  16.953  0.00  0.00    +0.000 A 
ATOM      4  O   UNL     1       2.667   3.090  15.893  0.00  0.00    +0.000 OA
ATOM      5  N   UNL     1       4.336   4.162  17.088  0.00  0.00    +0.000 N 
ATOM      6  C   UNL     1       4.786   4.449  18.355  0.00  0.00    +0.000 A 
ATOM      7  N   UNL     1       4.104   4.265  19.437  0.00  0.00    +0.000 NA
ATOM      8  S   UNL     1       6.363   5.157  18.600  0.00  0.00    +0.000 S 
ATOM      9  C   UNL     1       7.200   4.778  17.059  0.00  0.00    +0.000 C 
ATOM     10  C   UNL     1       6.324   5.221  15.908  0.00  0.00    +0.000 C 
ATOM     11  C   UNL     1       5.110   4.296  15.852  0.00  0.00    +0.000 C 
ENDROOT
BRANCH   1  13
ATOM     12  C   UNL     1       2.095   4.998  21.394  0.00  0.00    +0.000 C 
ATOM     13  C   UNL     1       2.067   3.632  20.683  0.00  0.00    +0.000 C 
ATOM     14  C   UNL     1       2.673   2.566  21.623  0.00  0.00    +0.000 C 
ATOM     15  C   UNL     1       0.588   3.237  20.455  0.00  0.00    +0.000 C 
ENDBRANCH   1  13
BRANCH  10  16
ATOM     16  C   UNL     1       7.098   5.142  14.601  0.00  0.00    +0.000 C 
ATOM     17  O   UNL     1       8.151   5.746  14.421  0.00  0.00    +0.000 OA
ATOM     18  N   UNL     1       6.532   4.343  13.633  0.00  0.00    +0.000 N 
ATOM     19  H   UNL     1       5.819   3.666  13.876  0.00  0.00    +0.000 HD
BRANCH  18  20
ATOM     20  C   UNL     1       7.190   4.162  12.357  0.00  0.00    +0.000 C 
BRANCH  20  21
ATOM     21  C   UNL     1       6.759   2.882  11.744  0.00  0.00    +0.000 A 
ATOM     22  C   UNL     1       7.454   1.853  11.143  0.00  0.00    +0.000 A 
ATOM     23  C   UNL     1       6.500   0.859  10.820  0.00  0.00    +0.000 A 
ATOM     24  C   UNL     1       5.283   1.351  11.230  0.00  0.00    +0.000 A 
ATOM     25  O   UNL     1       5.427   2.582  11.787  0.00  0.00    +0.000 OA
ENDBRANCH  20  21
ENDBRANCH  18  20
ENDBRANCH  10  16
TORSDOF 4
ENDMDL
MODEL 2
REMARK VINA RESULT:      -6.8      6.921      9.632
REMARK  Name = 
REMARK  7 active torsions:
REMARK  status: ('A' for Active; 'I' for Inactive)
REMARK    1  A    between atoms: C_1  and  C_2
REMARK    2  A    between atoms: C_2  and  C_3
REMARK    3  A    between atoms: C_2  and  C_4
REMARK    4  A    between atoms: C_2  and  C_5
REMARK    5  A    between atoms: C_14  and  C_15
REMARK    6  A    between atoms: N_17  and  C_18
REMARK    7  A    between atoms: C_18  and  C_19
REMARK                            x       y       z     vdW  Elec       q    Type
REMARK                         _______ _______ _______ _____ _____    ______ ____
ROOT
ATOM      1  C   UNL     1      -1.484  12.446  22.350  0.00  0.00    +0.000 A 
ATOM      2  C   UNL     1      -1.207  11.362  23.084  0.00  0.00    +0.000 A 
ATOM      3  C   UNL     1      -0.387  10.290  22.502  0.00  0.00    +0.000 A 
ATOM      4  O   UNL     1      -0.073   9.336  23.214  0.00  0.00    +0.000 OA
ATOM      5  N   UNL     1      -0.015  10.442  21.181  0.00  0.00    +0.000 N 
ATOM      6  C   UNL     1      -0.299  11.635  20.556  0.00  0.00    +0.000 A 
ATOM      7  N   UNL     1      -0.988  12.594  21.080  0.00  0.00    +0.000 NA
ATOM      8  S   UNL     1       0.237  11.931  18.921  0.00  0.00    +0.000 S 
ATOM      9  C   UNL     1       1.548  10.723  18.720  0.00  0.00    +0.000 C 
ATOM     10  C   UNL     1       1.023   9.364  19.127  0.00  0.00    +0.000 C 
ATOM     11  C   UNL     1       0.819   9.367  20.640  0.00  0.00    +0.000 C 
ENDROOT
BRANCH   1  13
ATOM     12  C   UNL     1      -3.658  13.026  23.463  0.00  0.00    +0.000 C 
ATOM     13  C   UNL     1      -2.362  13.607  22.866  0.00  0.00    +0.000 C 
ATOM     14  C   UNL     1      -2.731  14.605  21.746  0.00  0.00    +0.000 C 
ATOM     15  C   UNL     1      -1.644  14.419  23.970  0.00  0.00    +0.000 C 
ENDBRANCH   1  13
BRANCH  10  16
ATOM     16  C   UNL     1       2.020   8.281  18.740  0.00  0.00    +0.000 C 
ATOM     17  O   UNL     1       2.683   8.334  17.709  0.00  0.00    +0.000 OA
ATOM     18  N   UNL     1       2.127   7.239  19.633  0.00  0.00    +0.000 N 
ATOM     19  H   UNL     1       1.775   7.331  20.578  0.00  0.00    +0.000 HD
BRANCH  18  20
ATOM     20  C   UNL     1       3.065   6.163  19.392  0.00  0.00    +0.000 C 
BRANCH  20  21
ATOM     21  C   UNL     1       2.561   4.909  20.002  0.00  0.00    +0.000 A 
ATOM     22  C   UNL     1       1.347   4.561  20.557  0.00  0.00    +0.000 A 
ATOM     23  C   UNL     1       1.440   3.193  20.904  0.00  0.00    +0.000 A 
ATOM     24  C   UNL     1       2.710   2.796  20.554  0.00  0.00    +0.000 A 
ATOM     25  O   UNL     1       3.402   3.832  20.012  0.00  0.00    +0.000 OA
ENDBRANCH  20  21
ENDBRANCH  18  20
ENDBRANCH  10  16
TORSDOF 4
ENDMDL
MODEL 3
REMARK VINA RESULT:      -6.8      5.970     10.537
REMARK  Name = 
REMARK  7 active torsions:
REMARK  status: ('A' for Active; 'I' for Inactive)
REMARK    1  A    between atoms: C_1  and  C_2
REMARK    2  A    between atoms: C_2  and  C_3
REMARK    3  A    between atoms: C_2  and  C_4
REMARK    4  A    between atoms: C_2  and  C_5
REMARK    5  A    between atoms: C_14  and  C_15
REMARK    6  A    between atoms: N_17  and  C_18
REMARK    7  A    between atoms: C_18  and  C_19
REMARK                            x       y       z     vdW  Elec       q    Type
REMARK                         _______ _______ _______ _____ _____    ______ ____
ROOT
ATOM      1  C   UNL     1       4.190   5.860  17.832  0.00  0.00    +0.000 A 
ATOM      2  C   UNL     1       3.892   5.104  18.896  0.00  0.00    +0.000 A 
ATOM      3  C   UNL     1       2.933   5.607  19.888  0.00  0.00    +0.000 A 
ATOM      4  O   UNL     1       2.608   4.869  20.820  0.00  0.00    +0.000 OA
ATOM      5  N   UNL     1       2.451   6.886  19.693  0.00  0.00    +0.000 N 
ATOM      6  C   UNL     1       2.775   7.534  18.523  0.00  0.00    +0.000 A 
ATOM      7  N   UNL     1       3.590   7.077  17.631  0.00  0.00    +0.000 NA
ATOM      8  S   UNL     1       2.113   9.110  18.167  0.00  0.00    +0.000 S 
ATOM      9  C   UNL     1       0.691   9.186  19.258  0.00  0.00    +0.000 C 
ATOM     10  C   UNL     1       1.134   8.833  20.660  0.00  0.00    +0.000 C 
ATOM     11  C   UNL     1       1.481   7.346  20.689  0.00  0.00    +0.000 C 
ENDROOT
BRANCH   1  13
ATOM     12  C   UNL     1       5.160   6.433  15.589  0.00  0.00    +0.000 C 
ATOM     13  C   UNL     1       5.209   5.429  16.755  0.00  0.00    +0.000 C 
ATOM     14  C   UNL     1       4.919   4.013  16.209  0.00  0.00    +0.000 C 
ATOM     15  C   UNL     1       6.653   5.405  17.312  0.00  0.00    +0.000 C 
ENDBRANCH   1  13
BRANCH  10  16
ATOM     16  C   UNL     1       0.016   9.124  21.651  0.00  0.00    +0.000 C 
ATOM     17  O   UNL     1      -0.771   8.261  22.028  0.00  0.00    +0.000 OA
ATOM     18  N   UNL     1      -0.047  10.425  22.096  0.00  0.00    +0.000 N 
ATOM     19  H   UNL     1       0.742  11.049  21.980  0.00  0.00    +0.000 HD
BRANCH  18  20
ATOM     20  C   UNL     1      -1.048  10.818  23.065  0.00  0.00    +0.000 C 
BRANCH  20  21
ATOM     21  C   UNL     1      -2.000  11.773  22.447  0.00  0.00    +0.000 A 
ATOM     22  C   UNL     1      -1.961  12.509  21.281  0.00  0.00    +0.000 A 
ATOM     23  C   UNL     1      -3.201  13.184  21.190  0.00  0.00    +0.000 A 
ATOM     24  C   UNL     1      -3.912  12.830  22.314  0.00  0.00    +0.000 A 
ATOM     25  O   UNL     1      -3.189  11.978  23.088  0.00  0.00    +0.000 OA
ENDBRANCH  20  21
ENDBRANCH  18  20
ENDBRANCH  10  16
TORSDOF 4
ENDMDL
MODEL 4
REMARK VINA RESULT:      -6.8      5.878     10.496
REMARK  Name = 
REMARK  7 active torsions:
REMARK  status: ('A' for Active; 'I' for Inactive)
REMARK    1  A    between atoms: C_1  and  C_2
REMARK    2  A    between atoms: C_2  and  C_3
REMARK    3  A    between atoms: C_2  and  C_4
REMARK    4  A    between atoms: C_2  and  C_5
REMARK    5  A    between atoms: C_14  and  C_15
REMARK    6  A    between atoms: N_17  and  C_18
REMARK    7  A    between atoms: C_18  and  C_19
REMARK                            x       y       z     vdW  Elec       q    Type
REMARK                         _______ _______ _______ _____ _____    ______ ____
ROOT
ATOM      1  C   UNL     1       4.186   5.862  17.845  0.00  0.00    +0.000 A 
ATOM      2  C   UNL     1       3.877   5.104  18.904  0.00  0.00    +0.000 A 
ATOM      3  C   UNL     1       2.913   5.609  19.891  0.00  0.00    +0.000 A 
ATOM      4  O   UNL     1       2.577   4.870  20.818  0.00  0.00    +0.000 OA
ATOM      5  N   UNL     1       2.439   6.891  19.696  0.00  0.00    +0.000 N 
ATOM      6  C   UNL     1       2.775   7.541  18.531  0.00  0.00    +0.000 A 
ATOM      7  N   UNL     1       3.594   7.082  17.643  0.00  0.00    +0.000 NA
ATOM      8  S   UNL     1       2.124   9.121  18.174  0.00  0.00    +0.000 S 
ATOM      9  C   UNL     1       0.694   9.202  19.255  0.00  0.00    +0.000 C 
ATOM     10  C   UNL     1       1.125   8.842  20.659  0.00  0.00    +0.000 C 
ATOM     11  C   UNL     1       1.464   7.353  20.686  0.00  0.00    +0.000 C 
ENDROOT
BRANCH   1  13
ATOM     12  C   UNL     1       4.835   4.026  16.261  0.00  0.00    +0.000 C 
ATOM     13  C   UNL     1       5.211   5.428  16.774  0.00  0.00    +0.000 C 
ATOM     14  C   UNL     1       6.653   5.389  17.327  0.00  0.00    +0.000 C 
ATOM     15  C   UNL     1       5.222   6.398  15.568  0.00  0.00    +0.000 C 
ENDBRANCH   1  13
BRANCH  10  16
ATOM     16  C   UNL     1       0.001   9.136  21.643  0.00  0.00    +0.000 C 
ATOM     17  O   UNL     1      -0.805   8.281  21.997  0.00  0.00    +0.000 OA
ATOM     18  N   UNL     1      -0.045  10.430  22.109  0.00  0.00    +0.000 N 
ATOM     19  H   UNL     1       0.756  11.042  22.011  0.00  0.00    +0.000 HD
BRANCH  18  20
ATOM     20  C   UNL     1      -1.050  10.825  23.073  0.00  0.00    +0.000 C 
BRANCH  20  21
ATOM     21  C   UNL     1      -1.989  11.792  22.455  0.00  0.00    +0.000 A 
ATOM     22  C   UNL     1      -3.076  12.484  22.948  0.00  0.00    +0.000 A 
ATOM     23  C   UNL     1      -3.529  13.320  21.899  0.00  0.00    +0.000 A 
ATOM     24  C   UNL     1      -2.701  13.073  20.829  0.00  0.00    +0.000 A 
ATOM     25  O   UNL     1      -1.765  12.141  21.153  0.00  0.00    +0.000 OA
ENDBRANCH  20  21
ENDBRANCH  18  20
ENDBRANCH  10  16
TORSDOF 4
ENDMDL
MODEL 5
REMARK VINA RESULT:      -6.8      6.232      8.560
REMARK  Name = 
REMARK  7 active torsions:
REMARK  status: ('A' for Active; 'I' for Inactive)
REMARK    1  A    between atoms: C_1  and  C_2
REMARK    2  A    between atoms: C_2  and  C_3
REMARK    3  A    between atoms: C_2  and  C_4
REMARK    4  A    between atoms: C_2  and  C_5
REMARK    5  A    between atoms: C_14  and  C_15
REMARK    6  A    between atoms: N_17  and  C_18
REMARK    7  A    between atoms: C_18  and  C_19
REMARK                            x       y       z     vdW  Elec       q    Type
REMARK                         _______ _______ _______ _____ _____    ______ ____
ROOT
ATOM      1  C   UNL     1      -1.328  11.612  21.780  0.00  0.00    +0.000 A 
ATOM      2  C   UNL     1      -0.659  10.921  22.712  0.00  0.00    +0.000 A 
ATOM      3  C   UNL     1       0.321   9.911  22.291  0.00  0.00    +0.000 A 
ATOM      4  O   UNL     1       0.987   9.340  23.156  0.00  0.00    +0.000 OA
ATOM      5  N   UNL     1       0.433   9.683  20.934  0.00  0.00    +0.000 N 
ATOM      6  C   UNL     1      -0.254  10.508  20.074  0.00  0.00    +0.000 A 
ATOM      7  N   UNL     1      -1.090  11.422  20.443  0.00  0.00    +0.000 NA
ATOM      8  S   UNL     1      -0.073  10.341  18.346  0.00  0.00    +0.000 S 
ATOM      9  C   UNL     1       1.470   9.437  18.205  0.00  0.00    +0.000 C 
ATOM     10  C   UNL     1       1.401   8.216  19.097  0.00  0.00    +0.000 C 
ATOM     11  C   UNL     1       1.435   8.687  20.549  0.00  0.00    +0.000 C 
ENDROOT
BRANCH   1  13
ATOM     12  C   UNL     1      -3.104  12.257  23.433  0.00  0.00    +0.000 C 
ATOM     13  C   UNL     1      -2.399  12.669  22.127  0.00  0.00    +0.000 C 
ATOM     14  C   UNL     1      -3.458  12.817  21.012  0.00  0.00    +0.000 C 
ATOM     15  C   UNL     1      -1.773  14.068  22.337  0.00  0.00    +0.000 C 
ENDBRANCH   1  13
BRANCH  10  16
ATOM     16  C   UNL     1       2.583   7.299  18.820  0.00  0.00    +0.000 C 
ATOM     17  O   UNL     1       3.337   7.465  17.867  0.00  0.00    +0.000 OA
ATOM     18  N   UNL     1       2.748   6.270  19.719  0.00  0.00    +0.000 N 
ATOM     19  H   UNL     1       2.287   6.293  20.621  0.00  0.00    +0.000 HD
BRANCH  18  20
ATOM     20  C   UNL     1       3.855   5.348  19.581  0.00  0.00    +0.000 C 
BRANCH  20  21
ATOM     21  C   UNL     1       3.383   4.079  18.975  0.00  0.00    +0.000 A 
ATOM     22  C   UNL     1       3.844   3.318  17.922  0.00  0.00    +0.000 A 
ATOM     23  C   UNL     1       3.021   2.168  17.865  0.00  0.00    +0.000 A 
ATOM     24  C   UNL     1       2.099   2.310  18.877  0.00  0.00    +0.000 A 
ATOM     25  O   UNL     1       2.305   3.470  19.554  0.00  0.00    +0.000 OA
ENDBRANCH  20  21
ENDBRANCH  18  20
ENDBRANCH  10  16
TORSDOF 4
ENDMDL
MODEL 6
REMARK VINA RESULT:      -6.7      6.645      8.919
REMARK  Name = 
REMARK  7 active torsions:
REMARK  status: ('A' for Active; 'I' for Inactive)
REMARK    1  A    between atoms: C_1  and  C_2
REMARK    2  A    between atoms: C_2  and  C_3
REMARK    3  A    between atoms: C_2  and  C_4
REMARK    4  A    between atoms: C_2  and  C_5
REMARK    5  A    between atoms: C_14  and  C_15
REMARK    6  A    between atoms: N_17  and  C_18
REMARK    7  A    between atoms: C_18  and  C_19
REMARK                            x       y       z     vdW  Elec       q    Type
REMARK                         _______ _______ _______ _____ _____    ______ ____
ROOT
ATOM      1  C   UNL     1      -1.625  11.902  22.311  0.00  0.00    +0.000 A 
ATOM      2  C   UNL     1      -1.092  10.937  23.070  0.00  0.00    +0.000 A 
ATOM      3  C   UNL     1      -0.153   9.983  22.463  0.00  0.00    +0.000 A 
ATOM      4  O   UNL     1       0.391   9.150  23.190  0.00  0.00    +0.000 OA
ATOM      5  N   UNL     1       0.060  10.101  21.104  0.00  0.00    +0.000 N 
ATOM      6  C   UNL     1      -0.488  11.180  20.449  0.00  0.00    +0.000 A 
ATOM      7  N   UNL     1      -1.285  12.041  20.990  0.00  0.00    +0.000 NA
ATOM      8  S   UNL     1      -0.170  11.446  18.754  0.00  0.00    +0.000 S 
ATOM      9  C   UNL     1       1.311  10.470  18.481  0.00  0.00    +0.000 C 
ATOM     10  C   UNL     1       1.076   9.073  19.014  0.00  0.00    +0.000 C 
ATOM     11  C   UNL     1       1.018   9.149  20.538  0.00  0.00    +0.000 C 
ENDROOT
BRANCH   1  13
ATOM     12  C   UNL     1      -3.440  13.515  21.673  0.00  0.00    +0.000 C 
ATOM     13  C   UNL     1      -2.644  12.929  22.853  0.00  0.00    +0.000 C 
ATOM     14  C   UNL     1      -1.959  14.084  23.618  0.00  0.00    +0.000 C 
ATOM     15  C   UNL     1      -3.646  12.275  23.835  0.00  0.00    +0.000 C 
ENDBRANCH   1  13
BRANCH  10  16
ATOM     16  C   UNL     1       2.209   8.152  18.584  0.00  0.00    +0.000 C 
ATOM     17  O   UNL     1       2.957   8.420  17.648  0.00  0.00    +0.000 OA
ATOM     18  N   UNL     1       2.338   6.998  19.323  0.00  0.00    +0.000 N 
ATOM     19  H   UNL     1       1.891   6.913  20.228  0.00  0.00    +0.000 HD
BRANCH  18  20
ATOM     20  C   UNL     1       3.397   6.057  19.031  0.00  0.00    +0.000 C 
BRANCH  20  21
ATOM     21  C   UNL     1       2.819   4.783  18.538  0.00  0.00    +0.000 A 
ATOM     22  C   UNL     1       3.278   3.828  17.655  0.00  0.00    +0.000 A 
ATOM     23  C   UNL     1       2.312   2.793  17.644  0.00  0.00    +0.000 A 
ATOM     24  C   UNL     1       1.318   3.190  18.508  0.00  0.00    +0.000 A 
ATOM     25  O   UNL     1       1.612   4.401  19.052  0.00  0.00    +0.000 OA
ENDBRANCH  20  21
ENDBRANCH  18  20
ENDBRANCH  10  16
TORSDOF 4
ENDMDL
MODEL 7
REMARK VINA RESULT:      -6.7      5.997     10.633
REMARK  Name = 
REMARK  7 active torsions:
REMARK  status: ('A' for Active; 'I' for Inactive)
REMARK    1  A    between atoms: C_1  and  C_2
REMARK    2  A    between atoms: C_2  and  C_3
REMARK    3  A    between atoms: C_2  and  C_4
REMARK    4  A    between atoms: C_2  and  C_5
REMARK    5  A    between atoms: C_14  and  C_15
REMARK    6  A    between atoms: N_17  and  C_18
REMARK    7  A    between atoms: C_18  and  C_19
REMARK                            x       y       z     vdW  Elec       q    Type
REMARK                         _______ _______ _______ _____ _____    ______ ____
ROOT
ATOM      1  C   UNL     1       4.233   5.759  17.829  0.00  0.00    +0.000 A 
ATOM      2  C   UNL     1       3.924   4.999  18.887  0.00  0.00    +0.000 A 
ATOM      3  C   UNL     1       2.956   5.500  19.873  0.00  0.00    +0.000 A 
ATOM      4  O   UNL     1       2.621   4.758  20.798  0.00  0.00    +0.000 OA
ATOM      5  N   UNL     1       2.479   6.781  19.678  0.00  0.00    +0.000 N 
ATOM      6  C   UNL     1       2.815   7.432  18.514  0.00  0.00    +0.000 A 
ATOM      7  N   UNL     1       3.638   6.977  17.628  0.00  0.00    +0.000 NA
ATOM      8  S   UNL     1       2.160   9.011  18.159  0.00  0.00    +0.000 S 
ATOM      9  C   UNL     1       0.727   9.086  19.236  0.00  0.00    +0.000 C 
ATOM     10  C   UNL     1       1.157   8.726  20.641  0.00  0.00    +0.000 C 
ATOM     11  C   UNL     1       1.500   7.238  20.666  0.00  0.00    +0.000 C 
ENDROOT
BRANCH   1  13
ATOM     12  C   UNL     1       6.672   5.366  17.379  0.00  0.00    +0.000 C 
ATOM     13  C   UNL     1       5.262   5.330  16.760  0.00  0.00    +0.000 C 
ATOM     14  C   UNL     1       5.236   6.251  15.520  0.00  0.00    +0.000 C 
ATOM     15  C   UNL     1       4.994   3.892  16.254  0.00  0.00    +0.000 C 
ENDBRANCH   1  13
BRANCH  10  16
ATOM     16  C   UNL     1       0.030   9.015  21.622  0.00  0.00    +0.000 C 
ATOM     17  O   UNL     1      -0.801   8.170  21.939  0.00  0.00    +0.000 OA
ATOM     18  N   UNL     1       0.012  10.293  22.133  0.00  0.00    +0.000 N 
ATOM     19  H   UNL     1       0.830  10.887  22.065  0.00  0.00    +0.000 HD
BRANCH  18  20
ATOM     20  C   UNL     1      -0.993  10.681  23.100  0.00  0.00    +0.000 C 
BRANCH  20  21
ATOM     21  C   UNL     1      -1.508  12.034  22.777  0.00  0.00    +0.000 A 
ATOM     22  C   UNL     1      -2.398  12.494  21.829  0.00  0.00    +0.000 A 
ATOM     23  C   UNL     1      -2.551  13.881  22.061  0.00  0.00    +0.000 A 
ATOM     24  C   UNL     1      -1.732  14.183  23.125  0.00  0.00    +0.000 A 
ATOM     25  O   UNL     1      -1.089  13.069  23.564  0.00  0.00    +0.000 OA
ENDBRANCH  20  21
ENDBRANCH  18  20
ENDBRANCH  10  16
TORSDOF 4
ENDMDL
MODEL 8
REMARK VINA RESULT:      -6.7      6.585      9.118
REMARK  Name = 
REMARK  7 active torsions:
REMARK  status: ('A' for Active; 'I' for Inactive)
REMARK    1  A    between atoms: C_1  and  C_2
REMARK    2  A    between atoms: C_2  and  C_3
REMARK    3  A    between atoms: C_2  and  C_4
REMARK    4  A    between atoms: C_2  and  C_5
REMARK    5  A    between atoms: C_14  and  C_15
REMARK    6  A    between atoms: N_17  and  C_18
REMARK    7  A    between atoms: C_18  and  C_19
REMARK                            x       y       z     vdW  Elec       q    Type
REMARK                         _______ _______ _______ _____ _____    ______ ____
ROOT
ATOM      1  C   UNL     1      -1.627  12.307  21.648  0.00  0.00    +0.000 A 
ATOM      2  C   UNL     1      -1.638  12.389  20.312  0.00  0.00    +0.000 A 
ATOM      3  C   UNL     1      -0.876  11.409  19.526  0.00  0.00    +0.000 A 
ATOM      4  O   UNL     1      -0.959  11.446  18.297  0.00  0.00    +0.000 OA
ATOM      5  N   UNL     1      -0.121  10.497  20.236  0.00  0.00    +0.000 N 
ATOM      6  C   UNL     1      -0.251  10.467  21.605  0.00  0.00    +0.000 A 
ATOM      7  N   UNL     1      -0.950  11.306  22.296  0.00  0.00    +0.000 NA
ATOM      8  S   UNL     1       0.595   9.269  22.553  0.00  0.00    +0.000 S 
ATOM      9  C   UNL     1       0.982   8.014  21.331  0.00  0.00    +0.000 C 
ATOM     10  C   UNL     1       1.652   8.678  20.148  0.00  0.00    +0.000 C 
ATOM     11  C   UNL     1       0.607   9.521  19.422  0.00  0.00    +0.000 C 
ENDROOT
BRANCH   1  13
ATOM     12  C   UNL     1      -3.454  12.558  23.351  0.00  0.00    +0.000 C 
ATOM     13  C   UNL     1      -2.371  13.311  22.556  0.00  0.00    +0.000 C 
ATOM     14  C   UNL     1      -3.040  14.445  21.749  0.00  0.00    +0.000 C 
ATOM     15  C   UNL     1      -1.412  13.986  23.566  0.00  0.00    +0.000 C 
ENDBRANCH   1  13
BRANCH  10  16
ATOM     16  C   UNL     1       2.214   7.623  19.206  0.00  0.00    +0.000 C 
ATOM     17  O   UNL     1       2.168   7.739  17.985  0.00  0.00    +0.000 OA
ATOM     18  N   UNL     1       2.780   6.530  19.821  0.00  0.00    +0.000 N 
ATOM     19  H   UNL     1       3.035   6.564  20.801  0.00  0.00    +0.000 HD
BRANCH  18  20
ATOM     20  C   UNL     1       3.376   5.473  19.032  0.00  0.00    +0.000 C 
BRANCH  20  21
ATOM     21  C   UNL     1       2.486   4.287  19.022  0.00  0.00    +0.000 A 
ATOM     22  C   UNL     1       1.465   3.892  18.183  0.00  0.00    +0.000 A 
ATOM     23  C   UNL     1       1.037   2.623  18.640  0.00  0.00    +0.000 A 
ATOM     24  C   UNL     1       1.812   2.332  19.738  0.00  0.00    +0.000 A 
ATOM     25  O   UNL     1       2.691   3.339  19.984  0.00  0.00    +0.000 OA
ENDBRANCH  20  21
ENDBRANCH  18  20
ENDBRANCH  10  16
TORSDOF 4
ENDMDL
MODEL 9
REMARK VINA RESULT:      -6.7      6.716      8.935
REMARK  Name = 
REMARK  7 active torsions:
REMARK  status: ('A' for Active; 'I' for Inactive)
REMARK    1  A    between atoms: C_1  and  C_2
REMARK    2  A    between atoms: C_2  and  C_3
REMARK    3  A    between atoms: C_2  and  C_4
REMARK    4  A    between atoms: C_2  and  C_5
REMARK    5  A    between atoms: C_14  and  C_15
REMARK    6  A    between atoms: N_17  and  C_18
REMARK    7  A    between atoms: C_18  and  C_19
REMARK                            x       y       z     vdW  Elec       q    Type
REMARK                         _______ _______ _______ _____ _____    ______ ____
ROOT
ATOM      1  C   UNL     1      -1.779  12.295  21.708  0.00  0.00    +0.000 A 
ATOM      2  C   UNL     1      -1.950  12.472  20.391  0.00  0.00    +0.000 A 
ATOM      3  C   UNL     1      -1.193  11.634  19.451  0.00  0.00    +0.000 A 
ATOM      4  O   UNL     1      -1.418  11.752  18.245  0.00  0.00    +0.000 OA
ATOM      5  N   UNL     1      -0.279  10.756  19.999  0.00  0.00    +0.000 N 
ATOM      6  C   UNL     1      -0.249  10.615  21.367  0.00  0.00    +0.000 A 
ATOM      7  N   UNL     1      -0.941  11.326  22.195  0.00  0.00    +0.000 NA
ATOM      8  S   UNL     1       0.809   9.446  22.117  0.00  0.00    +0.000 S 
ATOM      9  C   UNL     1       1.172   8.328  20.761  0.00  0.00    +0.000 C 
ATOM     10  C   UNL     1       1.637   9.141  19.573  0.00  0.00    +0.000 C 
ATOM     11  C   UNL     1       0.441   9.923  19.034  0.00  0.00    +0.000 C 
ENDROOT
BRANCH   1  13
ATOM     12  C   UNL     1      -1.464  13.963  23.557  0.00  0.00    +0.000 C 
ATOM     13  C   UNL     1      -2.507  13.149  22.769  0.00  0.00    +0.000 C 
ATOM     14  C   UNL     1      -3.318  12.284  23.759  0.00  0.00    +0.000 C 
ATOM     15  C   UNL     1      -3.503  14.140  22.120  0.00  0.00    +0.000 C 
ENDBRANCH   1  13
BRANCH  10  16
ATOM     16  C   UNL     1       2.185   8.221  18.492  0.00  0.00    +0.000 C 
ATOM     17  O   UNL     1       2.271   8.563  17.317  0.00  0.00    +0.000 OA
ATOM     18  N   UNL     1       2.582   6.977  18.929  0.00  0.00    +0.000 N 
ATOM     19  H   UNL     1       2.742   6.803  19.913  0.00  0.00    +0.000 HD
BRANCH  18  20
ATOM     20  C   UNL     1       3.149   6.023  18.000  0.00  0.00    +0.000 C 
BRANCH  20  21
ATOM     21  C   UNL     1       2.490   4.705  18.166  0.00  0.00    +0.000 A 
ATOM     22  C   UNL     1       2.640   3.496  17.518  0.00  0.00    +0.000 A 
ATOM     23  C   UNL     1       1.784   2.579  18.173  0.00  0.00    +0.000 A 
ATOM     24  C   UNL     1       1.154   3.290  19.168  0.00  0.00    +0.000 A 
ATOM     25  O   UNL     1       1.569   4.584  19.169  0.00  0.00    +0.000 OA
ENDBRANCH  20  21
ENDBRANCH  18  20
ENDBRANCH  10  16
TORSDOF 4
ENDMDL
