MODEL 1
REMARK VINA RESULT:      -9.0      0.000      0.000
REMARK  Name = 
REMARK  4 active torsions:
REMARK  status: ('A' for Active; 'I' for Inactive)
REMARK    1  A    between atoms: C_2  and  C_3
REMARK    2  A    between atoms: C_13  and  C_14
REMARK    3  A    between atoms: C_14  and  C_15
REMARK    4  A    between atoms: C_15  and  C_16
REMARK                            x       y       z     vdW  Elec       q    Type
REMARK                         _______ _______ _______ _____ _____    ______ ____
ROOT
ATOM      1  C   UNL     1       0.156  14.316  19.578  0.00  0.00    +0.000 C 
ATOM      2  C   UNL     1      -0.987  14.553  20.588  0.00  0.00    +0.000 C 
ATOM      3  C   UNL     1      -1.731  13.306  21.069  0.00  0.00    +0.000 C 
ATOM      4  C   UNL     1      -2.010  12.309  19.954  0.00  0.00    +0.000 C 
ATOM      5  N   UNL     1      -0.799  12.040  19.204  0.00  0.00    +0.000 N 
ATOM      6  C   UNL     1       0.014  10.950  19.501  0.00  0.00    +0.000 A 
ATOM      7  C   UNL     1       0.027  10.393  20.794  0.00  0.00    +0.000 A 
ATOM      8  C   UNL     1       0.734   9.225  21.096  0.00  0.00    +0.000 A 
ATOM      9  C   UNL     1       1.406   8.628  20.040  0.00  0.00    +0.000 A 
ATOM     10  N   UNL     1       2.106   7.451  19.962  0.00  0.00    +0.000 NA
ATOM     11  C   UNL     1       2.539   7.392  18.718  0.00  0.00    +0.000 A 
ATOM     12  N   UNL     1       2.143   8.500  18.004  0.00  0.00    +0.000 N 
ATOM     13  C   UNL     1       1.376   9.278  18.817  0.00  0.00    +0.000 A 
ATOM     14  N   UNL     1       0.727  10.407  18.482  0.00  0.00    +0.000 NA
ATOM     15  C   UNL     1      -0.169  13.199  18.565  0.00  0.00    +0.000 C 
ATOM     16  H   UNL     1       2.325   8.699  17.033  0.00  0.00    +0.000 HD
ENDROOT
BRANCH   1  18
ATOM     17  O   UNL     1       1.726  13.393  21.182  0.00  0.00    +0.000 OA
ATOM     18  C   UNL     1       1.544  14.119  20.206  0.00  0.00    +0.000 C 
ATOM     19  N   UNL     1       2.626  14.747  19.611  0.00  0.00    +0.000 N 
ATOM     20  C   UNL     1       3.967  14.496  20.107  0.00  0.00    +0.000 C 
ATOM     21  C   UNL     1       4.796  15.597  19.476  0.00  0.00    +0.000 C 
ATOM     22  C   UNL     1       4.141  15.789  18.112  0.00  0.00    +0.000 C 
ATOM     23  C   UNL     1       2.672  15.434  18.331  0.00  0.00    +0.000 C 
ENDBRANCH   1  18
BRANCH  11  24
ATOM     24  C   UNL     1       3.315   6.196  18.144  0.00  0.00    +0.000 C 
ATOM     25  C   UNL     1       4.429   6.527  17.107  0.00  0.00    +0.000 C 
ATOM     26  O   UNL     1       5.397   5.743  17.866  0.00  0.00    +0.000 OA
ATOM     27  C   UNL     1       4.563   5.913  19.042  0.00  0.00    +0.000 C 
BRANCH  24  28
ATOM     28  C   UNL     1       2.474   4.933  17.891  0.00  0.00    +0.000 C 
BRANCH  28  29
ATOM     29  C   UNL     1       2.403   4.044  19.123  0.00  0.00    +0.000 A 
ATOM     30  C   UNL     1       1.322   4.123  20.010  0.00  0.00    +0.000 A 
ATOM     31  C   UNL     1       1.289   3.358  21.179  0.00  0.00    +0.000 A 
ATOM     32  C   UNL     1       2.329   2.481  21.466  0.00  0.00    +0.000 A 
ATOM     33  C   UNL     1       3.390   2.357  20.575  0.00  0.00    +0.000 A 
ATOM     34  C   UNL     1       3.428   3.130  19.409  0.00  0.00    +0.000 A 
ENDBRANCH  28  29
ENDBRANCH  24  28
ENDBRANCH  11  24
TORSDOF 4
ENDMDL
MODEL 2
REMARK VINA RESULT:      -8.9      2.349      5.054
REMARK  Name = 
REMARK  4 active torsions:
REMARK  status: ('A' for Active; 'I' for Inactive)
REMARK    1  A    between atoms: C_2  and  C_3
REMARK    2  A    between atoms: C_13  and  C_14
REMARK    3  A    between atoms: C_14  and  C_15
REMARK    4  A    between atoms: C_15  and  C_16
REMARK                            x       y       z     vdW  Elec       q    Type
REMARK                         _______ _______ _______ _____ _____    ______ ____
ROOT
ATOM      1  C   UNL     1      -1.951  12.452  20.520  0.00  0.00    +0.000 C 
ATOM      2  C   UNL     1      -1.479  13.895  20.240  0.00  0.00    +0.000 C 
ATOM      3  C   UNL     1      -0.002  14.064  19.881  0.00  0.00    +0.000 C 
ATOM      4  C   UNL     1       0.921  13.204  20.732  0.00  0.00    +0.000 C 
ATOM      5  N   UNL     1       0.456  11.831  20.750  0.00  0.00    +0.000 N 
ATOM      6  C   UNL     1       0.958  10.880  19.866  0.00  0.00    +0.000 A 
ATOM      7  C   UNL     1       1.496  11.267  18.623  0.00  0.00    +0.000 A 
ATOM      8  C   UNL     1       2.121  10.355  17.765  0.00  0.00    +0.000 A 
ATOM      9  C   UNL     1       2.202   9.047  18.219  0.00  0.00    +0.000 A 
ATOM     10  N   UNL     1       2.815   7.942  17.687  0.00  0.00    +0.000 NA
ATOM     11  C   UNL     1       2.560   6.966  18.537  0.00  0.00    +0.000 A 
ATOM     12  N   UNL     1       1.795   7.416  19.590  0.00  0.00    +0.000 N 
ATOM     13  C   UNL     1       1.598   8.755  19.431  0.00  0.00    +0.000 A 
ATOM     14  N   UNL     1       0.974   9.589  20.280  0.00  0.00    +0.000 NA
ATOM     15  C   UNL     1      -0.895  11.619  21.276  0.00  0.00    +0.000 C 
ATOM     16  H   UNL     1       1.473   6.884  20.382  0.00  0.00    +0.000 HD
ENDROOT
BRANCH   1  18
ATOM     17  O   UNL     1      -1.800  10.904  18.657  0.00  0.00    +0.000 OA
ATOM     18  C   UNL     1      -2.490  11.697  19.295  0.00  0.00    +0.000 C 
ATOM     19  N   UNL     1      -3.815  11.890  18.940  0.00  0.00    +0.000 N 
ATOM     20  C   UNL     1      -4.391  11.111  17.859  0.00  0.00    +0.000 C 
ATOM     21  C   UNL     1      -5.682  11.838  17.540  0.00  0.00    +0.000 C 
ATOM     22  C   UNL     1      -6.143  12.346  18.902  0.00  0.00    +0.000 C 
ATOM     23  C   UNL     1      -4.854  12.575  19.688  0.00  0.00    +0.000 C 
ENDBRANCH   1  18
BRANCH  11  24
ATOM     24  C   UNL     1       3.118   5.542  18.390  0.00  0.00    +0.000 C 
ATOM     25  C   UNL     1       3.286   4.725  19.704  0.00  0.00    +0.000 C 
ATOM     26  O   UNL     1       2.538   3.611  19.132  0.00  0.00    +0.000 OA
ATOM     27  C   UNL     1       1.933   4.543  18.197  0.00  0.00    +0.000 C 
BRANCH  24  28
ATOM     28  C   UNL     1       4.208   5.376  17.316  0.00  0.00    +0.000 C 
BRANCH  28  29
ATOM     29  C   UNL     1       5.552   5.911  17.785  0.00  0.00    +0.000 A 
ATOM     30  C   UNL     1       6.135   7.032  17.181  0.00  0.00    +0.000 A 
ATOM     31  C   UNL     1       7.402   7.481  17.562  0.00  0.00    +0.000 A 
ATOM     32  C   UNL     1       8.095   6.829  18.575  0.00  0.00    +0.000 A 
ATOM     33  C   UNL     1       7.513   5.741  19.218  0.00  0.00    +0.000 A 
ATOM     34  C   UNL     1       6.249   5.285  18.829  0.00  0.00    +0.000 A 
ENDBRANCH  28  29
ENDBRANCH  24  28
ENDBRANCH  11  24
TORSDOF 4
ENDMDL
MODEL 3
REMARK VINA RESULT:      -8.7      1.234      1.586
REMARK  Name = 
REMARK  4 active torsions:
REMARK  status: ('A' for Active; 'I' for Inactive)
REMARK    1  A    between atoms: C_2  and  C_3
REMARK    2  A    between atoms: C_13  and  C_14
REMARK    3  A    between atoms: C_14  and  C_15
REMARK    4  A    between atoms: C_15  and  C_16
REMARK                            x       y       z     vdW  Elec       q    Type
REMARK                         _______ _______ _______ _____ _____    ______ ____
ROOT
ATOM      1  C   UNL     1       0.109  13.336  19.358  0.00  0.00    +0.000 C 
ATOM      2  C   UNL     1      -1.173  13.327  20.216  0.00  0.00    +0.000 C 
ATOM      3  C   UNL     1      -1.781  11.953  20.505  0.00  0.00    +0.000 C 
ATOM      4  C   UNL     1      -1.770  11.029  19.297  0.00  0.00    +0.000 C 
ATOM      5  N   UNL     1      -0.448  10.993  18.703  0.00  0.00    +0.000 N 
ATOM      6  C   UNL     1       0.472  10.001  19.033  0.00  0.00    +0.000 A 
ATOM      7  C   UNL     1       0.404   9.341  20.275  0.00  0.00    +0.000 A 
ATOM      8  C   UNL     1       1.231   8.258  20.590  0.00  0.00    +0.000 A 
ATOM      9  C   UNL     1       2.109   7.852  19.597  0.00  0.00    +0.000 A 
ATOM     10  N   UNL     1       2.978   6.792  19.535  0.00  0.00    +0.000 NA
ATOM     11  C   UNL     1       3.568   6.900  18.361  0.00  0.00    +0.000 A 
ATOM     12  N   UNL     1       3.107   8.002  17.677  0.00  0.00    +0.000 N 
ATOM     13  C   UNL     1       2.138   8.596  18.429  0.00  0.00    +0.000 A 
ATOM     14  N   UNL     1       1.378   9.650  18.086  0.00  0.00    +0.000 NA
ATOM     15  C   UNL     1       0.081  12.277  18.236  0.00  0.00    +0.000 C 
ATOM     16  H   UNL     1       3.378   8.307  16.756  0.00  0.00    +0.000 HD
ENDROOT
BRANCH   1  18
ATOM     17  O   UNL     1       1.627  12.425  21.018  0.00  0.00    +0.000 OA
ATOM     18  C   UNL     1       1.422  13.275  20.154  0.00  0.00    +0.000 C 
ATOM     19  N   UNL     1       2.418  14.185  19.841  0.00  0.00    +0.000 N 
ATOM     20  C   UNL     1       3.713  14.089  20.493  0.00  0.00    +0.000 C 
ATOM     21  C   UNL     1       4.372  15.417  20.181  0.00  0.00    +0.000 C 
ATOM     22  C   UNL     1       3.863  15.740  18.781  0.00  0.00    +0.000 C 
ATOM     23  C   UNL     1       2.481  15.095  18.710  0.00  0.00    +0.000 C 
ENDBRANCH   1  18
BRANCH  11  24
ATOM     24  C   UNL     1       4.576   5.876  17.818  0.00  0.00    +0.000 C 
ATOM     25  C   UNL     1       5.979   6.425  17.427  0.00  0.00    +0.000 C 
ATOM     26  O   UNL     1       6.629   5.408  18.247  0.00  0.00    +0.000 OA
ATOM     27  C   UNL     1       5.398   5.283  19.008  0.00  0.00    +0.000 C 
BRANCH  24  28
ATOM     28  C   UNL     1       3.975   4.783  16.917  0.00  0.00    +0.000 C 
BRANCH  28  29
ATOM     29  C   UNL     1       3.071   3.840  17.696  0.00  0.00    +0.000 A 
ATOM     30  C   UNL     1       3.580   2.680  18.294  0.00  0.00    +0.000 A 
ATOM     31  C   UNL     1       2.739   1.776  18.949  0.00  0.00    +0.000 A 
ATOM     32  C   UNL     1       1.376   2.034  19.039  0.00  0.00    +0.000 A 
ATOM     33  C   UNL     1       0.859   3.203  18.490  0.00  0.00    +0.000 A 
ATOM     34  C   UNL     1       1.699   4.102  17.825  0.00  0.00    +0.000 A 
ENDBRANCH  28  29
ENDBRANCH  24  28
ENDBRANCH  11  24
TORSDOF 4
ENDMDL
MODEL 4
REMARK VINA RESULT:      -8.6      1.278      2.780
REMARK  Name = 
REMARK  4 active torsions:
REMARK  status: ('A' for Active; 'I' for Inactive)
REMARK    1  A    between atoms: C_2  and  C_3
REMARK    2  A    between atoms: C_13  and  C_14
REMARK    3  A    between atoms: C_14  and  C_15
REMARK    4  A    between atoms: C_15  and  C_16
REMARK                            x       y       z     vdW  Elec       q    Type
REMARK                         _______ _______ _______ _____ _____    ______ ____
ROOT
ATOM      1  C   UNL     1       0.155  13.933  19.455  0.00  0.00    +0.000 C 
ATOM      2  C   UNL     1      -1.138  14.317  20.206  0.00  0.00    +0.000 C 
ATOM      3  C   UNL     1      -2.016  13.155  20.673  0.00  0.00    +0.000 C 
ATOM      4  C   UNL     1      -2.139  12.046  19.640  0.00  0.00    +0.000 C 
ATOM      5  N   UNL     1      -0.827  11.658  19.159  0.00  0.00    +0.000 N 
ATOM      6  C   UNL     1      -0.135  10.586  19.716  0.00  0.00    +0.000 A 
ATOM      7  C   UNL     1      -0.382  10.182  21.042  0.00  0.00    +0.000 A 
ATOM      8  C   UNL     1       0.202   9.036  21.593  0.00  0.00    +0.000 A 
ATOM      9  C   UNL     1       1.022   8.303  20.749  0.00  0.00    +0.000 A 
ATOM     10  N   UNL     1       1.666   7.105  20.928  0.00  0.00    +0.000 NA
ATOM     11  C   UNL     1       2.312   6.891  19.799  0.00  0.00    +0.000 A 
ATOM     12  N   UNL     1       2.106   7.921  18.909  0.00  0.00    +0.000 N 
ATOM     13  C   UNL     1       1.244   8.809  19.479  0.00  0.00    +0.000 A 
ATOM     14  N   UNL     1       0.721   9.909  18.910  0.00  0.00    +0.000 NA
ATOM     15  C   UNL     1      -0.037  12.717  18.526  0.00  0.00    +0.000 C 
ATOM     16  H   UNL     1       2.468   8.001  17.973  0.00  0.00    +0.000 HD
ENDROOT
BRANCH   1  18
ATOM     17  O   UNL     1       1.378  13.112  21.383  0.00  0.00    +0.000 OA
ATOM     18  C   UNL     1       1.397  13.770  20.344  0.00  0.00    +0.000 C 
ATOM     19  N   UNL     1       2.583  14.349  19.923  0.00  0.00    +0.000 N 
ATOM     20  C   UNL     1       3.802  14.122  20.679  0.00  0.00    +0.000 C 
ATOM     21  C   UNL     1       4.756  15.172  20.144  0.00  0.00    +0.000 C 
ATOM     22  C   UNL     1       4.373  15.275  18.672  0.00  0.00    +0.000 C 
ATOM     23  C   UNL     1       2.882  14.945  18.633  0.00  0.00    +0.000 C 
ENDBRANCH   1  18
BRANCH  11  24
ATOM     24  C   UNL     1       3.119   5.616  19.510  0.00  0.00    +0.000 C 
ATOM     25  C   UNL     1       2.693   4.335  20.285  0.00  0.00    +0.000 C 
ATOM     26  O   UNL     1       2.609   3.583  19.037  0.00  0.00    +0.000 OA
ATOM     27  C   UNL     1       2.451   4.840  18.329  0.00  0.00    +0.000 C 
BRANCH  24  28
ATOM     28  C   UNL     1       4.627   5.834  19.291  0.00  0.00    +0.000 C 
BRANCH  28  29
ATOM     29  C   UNL     1       5.017   5.666  17.831  0.00  0.00    +0.000 A 
ATOM     30  C   UNL     1       4.841   6.707  16.910  0.00  0.00    +0.000 A 
ATOM     31  C   UNL     1       5.132   6.531  15.555  0.00  0.00    +0.000 A 
ATOM     32  C   UNL     1       5.631   5.314  15.104  0.00  0.00    +0.000 A 
ATOM     33  C   UNL     1       5.855   4.283  16.010  0.00  0.00    +0.000 A 
ATOM     34  C   UNL     1       5.553   4.456  17.365  0.00  0.00    +0.000 A 
ENDBRANCH  28  29
ENDBRANCH  24  28
ENDBRANCH  11  24
TORSDOF 4
ENDMDL
MODEL 5
REMARK VINA RESULT:      -8.6      1.413      2.995
REMARK  Name = 
REMARK  4 active torsions:
REMARK  status: ('A' for Active; 'I' for Inactive)
REMARK    1  A    between atoms: C_2  and  C_3
REMARK    2  A    between atoms: C_13  and  C_14
REMARK    3  A    between atoms: C_14  and  C_15
REMARK    4  A    between atoms: C_15  and  C_16
REMARK                            x       y       z     vdW  Elec       q    Type
REMARK                         _______ _______ _______ _____ _____    ______ ____
ROOT
ATOM      1  C   UNL     1       0.266  13.883  19.376  0.00  0.00    +0.000 C 
ATOM      2  C   UNL     1      -0.905  14.160  20.343  0.00  0.00    +0.000 C 
ATOM      3  C   UNL     1      -1.667  12.933  20.848  0.00  0.00    +0.000 C 
ATOM      4  C   UNL     1      -1.918  11.897  19.762  0.00  0.00    +0.000 C 
ATOM      5  N   UNL     1      -0.686  11.598  19.058  0.00  0.00    +0.000 N 
ATOM      6  C   UNL     1       0.114  10.516  19.418  0.00  0.00    +0.000 A 
ATOM      7  C   UNL     1       0.087  10.008  20.731  0.00  0.00    +0.000 A 
ATOM      8  C   UNL     1       0.781   8.849  21.096  0.00  0.00    +0.000 A 
ATOM      9  C   UNL     1       1.480   8.212  20.082  0.00  0.00    +0.000 A 
ATOM     10  N   UNL     1       2.178   7.031  20.068  0.00  0.00    +0.000 NA
ATOM     11  C   UNL     1       2.647   6.925  18.840  0.00  0.00    +0.000 A 
ATOM     12  N   UNL     1       2.276   8.007  18.074  0.00  0.00    +0.000 N 
ATOM     13  C   UNL     1       1.488   8.817  18.836  0.00  0.00    +0.000 A 
ATOM     14  N   UNL     1       0.853   9.934  18.441  0.00  0.00    +0.000 NA
ATOM     15  C   UNL     1      -0.034  12.730  18.396  0.00  0.00    +0.000 C 
ATOM     16  H   UNL     1       2.486   8.169  17.103  0.00  0.00    +0.000 HD
ENDROOT
BRANCH   1  18
ATOM     17  O   UNL     1       1.809  12.927  20.986  0.00  0.00    +0.000 OA
ATOM     18  C   UNL     1       1.635  13.705  20.050  0.00  0.00    +0.000 C 
ATOM     19  N   UNL     1       2.710  14.415  19.543  0.00  0.00    +0.000 N 
ATOM     20  C   UNL     1       4.040  14.190  20.080  0.00  0.00    +0.000 C 
ATOM     21  C   UNL     1       4.843  15.363  19.555  0.00  0.00    +0.000 C 
ATOM     22  C   UNL     1       4.237  15.614  18.179  0.00  0.00    +0.000 C 
ATOM     23  C   UNL     1       2.778  15.183  18.312  0.00  0.00    +0.000 C 
ENDBRANCH   1  18
BRANCH  11  24
ATOM     24  C   UNL     1       3.435   5.707  18.333  0.00  0.00    +0.000 C 
ATOM     25  C   UNL     1       3.935   4.706  19.415  0.00  0.00    +0.000 C 
ATOM     26  O   UNL     1       3.335   3.591  18.691  0.00  0.00    +0.000 OA
ATOM     27  C   UNL     1       2.441   4.536  18.044  0.00  0.00    +0.000 C 
BRANCH  24  28
ATOM     28  C   UNL     1       4.375   5.986  17.147  0.00  0.00    +0.000 C 
BRANCH  28  29
ATOM     29  C   UNL     1       5.770   6.374  17.609  0.00  0.00    +0.000 A 
ATOM     30  C   UNL     1       6.488   5.565  18.500  0.00  0.00    +0.000 A 
ATOM     31  C   UNL     1       7.740   5.955  18.982  0.00  0.00    +0.000 A 
ATOM     32  C   UNL     1       8.307   7.151  18.557  0.00  0.00    +0.000 A 
ATOM     33  C   UNL     1       7.629   7.946  17.638  0.00  0.00    +0.000 A 
ATOM     34  C   UNL     1       6.371   7.561  17.165  0.00  0.00    +0.000 A 
ENDBRANCH  28  29
ENDBRANCH  24  28
ENDBRANCH  11  24
TORSDOF 4
ENDMDL
MODEL 6
REMARK VINA RESULT:      -8.5      2.093      4.248
REMARK  Name = 
REMARK  4 active torsions:
REMARK  status: ('A' for Active; 'I' for Inactive)
REMARK    1  A    between atoms: C_2  and  C_3
REMARK    2  A    between atoms: C_13  and  C_14
REMARK    3  A    between atoms: C_14  and  C_15
REMARK    4  A    between atoms: C_15  and  C_16
REMARK                            x       y       z     vdW  Elec       q    Type
REMARK                         _______ _______ _______ _____ _____    ______ ____
ROOT
ATOM      1  C   UNL     1      -2.231  12.513  20.623  0.00  0.00    +0.000 C 
ATOM      2  C   UNL     1      -1.814  13.997  20.549  0.00  0.00    +0.000 C 
ATOM      3  C   UNL     1      -0.330  14.268  20.295  0.00  0.00    +0.000 C 
ATOM      4  C   UNL     1       0.589  13.345  21.081  0.00  0.00    +0.000 C 
ATOM      5  N   UNL     1       0.187  11.964  20.904  0.00  0.00    +0.000 N 
ATOM      6  C   UNL     1       0.775  11.152  19.937  0.00  0.00    +0.000 A 
ATOM      7  C   UNL     1       1.355  11.713  18.783  0.00  0.00    +0.000 A 
ATOM      8  C   UNL     1       2.062  10.943  17.854  0.00  0.00    +0.000 A 
ATOM      9  C   UNL     1       2.181   9.592  18.146  0.00  0.00    +0.000 A 
ATOM     10  N   UNL     1       2.870   8.588  17.516  0.00  0.00    +0.000 NA
ATOM     11  C   UNL     1       2.618   7.504  18.223  0.00  0.00    +0.000 A 
ATOM     12  N   UNL     1       1.783   7.787  19.281  0.00  0.00    +0.000 N 
ATOM     13  C   UNL     1       1.533   9.126  19.278  0.00  0.00    +0.000 A 
ATOM     14  N   UNL     1       0.831   9.821  20.190  0.00  0.00    +0.000 NA
ATOM     15  C   UNL     1      -1.177  11.634  21.326  0.00  0.00    +0.000 C 
ATOM     16  H   UNL     1       1.448   7.147  19.983  0.00  0.00    +0.000 HD
ENDROOT
BRANCH   1  18
ATOM     17  O   UNL     1      -1.898  11.287  18.555  0.00  0.00    +0.000 OA
ATOM     18  C   UNL     1      -2.675  11.898  19.287  0.00  0.00    +0.000 C 
ATOM     19  N   UNL     1      -4.010  12.000  18.931  0.00  0.00    +0.000 N 
ATOM     20  C   UNL     1      -4.489  11.335  17.732  0.00  0.00    +0.000 C 
ATOM     21  C   UNL     1      -5.848  11.962  17.493  0.00  0.00    +0.000 C 
ATOM     22  C   UNL     1      -6.373  12.208  18.903  0.00  0.00    +0.000 C 
ATOM     23  C   UNL     1      -5.123  12.452  19.747  0.00  0.00    +0.000 C 
ENDBRANCH   1  18
BRANCH  11  24
ATOM     24  C   UNL     1       3.248   6.133  17.932  0.00  0.00    +0.000 C 
ATOM     25  C   UNL     1       4.452   6.119  16.945  0.00  0.00    +0.000 C 
ATOM     26  O   UNL     1       5.257   5.371  17.904  0.00  0.00    +0.000 OA
ATOM     27  C   UNL     1       4.392   5.863  18.962  0.00  0.00    +0.000 C 
BRANCH  24  28
ATOM     28  C   UNL     1       2.252   4.964  17.839  0.00  0.00    +0.000 C 
BRANCH  28  29
ATOM     29  C   UNL     1       2.268   4.106  19.094  0.00  0.00    +0.000 A 
ATOM     30  C   UNL     1       1.415   4.383  20.171  0.00  0.00    +0.000 A 
ATOM     31  C   UNL     1       1.478   3.640  21.353  0.00  0.00    +0.000 A 
ATOM     32  C   UNL     1       2.379   2.588  21.465  0.00  0.00    +0.000 A 
ATOM     33  C   UNL     1       3.203   2.269  20.391  0.00  0.00    +0.000 A 
ATOM     34  C   UNL     1       3.148   3.020  19.212  0.00  0.00    +0.000 A 
ENDBRANCH  28  29
ENDBRANCH  24  28
ENDBRANCH  11  24
TORSDOF 4
ENDMDL
MODEL 7
REMARK VINA RESULT:      -8.5      1.456      2.699
REMARK  Name = 
REMARK  4 active torsions:
REMARK  status: ('A' for Active; 'I' for Inactive)
REMARK    1  A    between atoms: C_2  and  C_3
REMARK    2  A    between atoms: C_13  and  C_14
REMARK    3  A    between atoms: C_14  and  C_15
REMARK    4  A    between atoms: C_15  and  C_16
REMARK                            x       y       z     vdW  Elec       q    Type
REMARK                         _______ _______ _______ _____ _____    ______ ____
ROOT
ATOM      1  C   UNL     1      -0.246  14.565  19.909  0.00  0.00    +0.000 C 
ATOM      2  C   UNL     1      -1.427  14.761  20.883  0.00  0.00    +0.000 C 
ATOM      3  C   UNL     1      -2.163  13.492  21.315  0.00  0.00    +0.000 C 
ATOM      4  C   UNL     1      -2.385  12.512  20.171  0.00  0.00    +0.000 C 
ATOM      5  N   UNL     1      -1.144  12.280  19.459  0.00  0.00    +0.000 N 
ATOM      6  C   UNL     1      -0.322  11.199  19.762  0.00  0.00    +0.000 A 
ATOM      7  C   UNL     1      -0.342  10.617  21.045  0.00  0.00    +0.000 A 
ATOM      8  C   UNL     1       0.376   9.456  21.348  0.00  0.00    +0.000 A 
ATOM      9  C   UNL     1       1.095   8.892  20.304  0.00  0.00    +0.000 A 
ATOM     10  N   UNL     1       1.819   7.730  20.228  0.00  0.00    +0.000 NA
ATOM     11  C   UNL     1       2.295   7.703  18.999  0.00  0.00    +0.000 A 
ATOM     12  N   UNL     1       1.903   8.818  18.293  0.00  0.00    +0.000 N 
ATOM     13  C   UNL     1       1.094   9.566  19.094  0.00  0.00    +0.000 A 
ATOM     14  N   UNL     1       0.435  10.689  18.759  0.00  0.00    +0.000 NA
ATOM     15  C   UNL     1      -0.515  13.463  18.864  0.00  0.00    +0.000 C 
ATOM     16  H   UNL     1       2.114   9.039  17.333  0.00  0.00    +0.000 HD
ENDROOT
BRANCH   1  18
ATOM     17  O   UNL     1       1.270  13.712  21.601  0.00  0.00    +0.000 OA
ATOM     18  C   UNL     1       1.124  14.381  20.579  0.00  0.00    +0.000 C 
ATOM     19  N   UNL     1       2.230  14.952  19.973  0.00  0.00    +0.000 N 
ATOM     20  C   UNL     1       3.555  14.706  20.515  0.00  0.00    +0.000 C 
ATOM     21  C   UNL     1       4.419  15.752  19.839  0.00  0.00    +0.000 C 
ATOM     22  C   UNL     1       3.800  15.873  18.451  0.00  0.00    +0.000 C 
ATOM     23  C   UNL     1       2.319  15.558  18.656  0.00  0.00    +0.000 C 
ENDBRANCH   1  18
BRANCH  11  24
ATOM     24  C   UNL     1       3.113   6.534  18.429  0.00  0.00    +0.000 C 
ATOM     25  C   UNL     1       3.691   5.524  19.463  0.00  0.00    +0.000 C 
ATOM     26  O   UNL     1       3.110   4.406  18.726  0.00  0.00    +0.000 OA
ATOM     27  C   UNL     1       2.158   5.331  18.139  0.00  0.00    +0.000 C 
BRANCH  24  28
ATOM     28  C   UNL     1       3.999   6.885  17.221  0.00  0.00    +0.000 C 
BRANCH  28  29
ATOM     29  C   UNL     1       5.251   6.024  17.167  0.00  0.00    +0.000 A 
ATOM     30  C   UNL     1       6.330   6.262  18.029  0.00  0.00    +0.000 A 
ATOM     31  C   UNL     1       7.509   5.519  17.933  0.00  0.00    +0.000 A 
ATOM     32  C   UNL     1       7.617   4.506  16.988  0.00  0.00    +0.000 A 
ATOM     33  C   UNL     1       6.540   4.225  16.153  0.00  0.00    +0.000 A 
ATOM     34  C   UNL     1       5.363   4.976  16.242  0.00  0.00    +0.000 A 
ENDBRANCH  28  29
ENDBRANCH  24  28
ENDBRANCH  11  24
TORSDOF 4
ENDMDL
MODEL 8
REMARK VINA RESULT:      -8.5      2.326      4.981
REMARK  Name = 
REMARK  4 active torsions:
REMARK  status: ('A' for Active; 'I' for Inactive)
REMARK    1  A    between atoms: C_2  and  C_3
REMARK    2  A    between atoms: C_13  and  C_14
REMARK    3  A    between atoms: C_14  and  C_15
REMARK    4  A    between atoms: C_15  and  C_16
REMARK                            x       y       z     vdW  Elec       q    Type
REMARK                         _______ _______ _______ _____ _____    ______ ____
ROOT
ATOM      1  C   UNL     1      -1.206  12.435  19.658  0.00  0.00    +0.000 C 
ATOM      2  C   UNL     1      -0.553  13.595  18.878  0.00  0.00    +0.000 C 
ATOM      3  C   UNL     1       0.898  13.383  18.442  0.00  0.00    +0.000 C 
ATOM      4  C   UNL     1       1.753  12.723  19.514  0.00  0.00    +0.000 C 
ATOM      5  N   UNL     1       1.094  11.537  20.025  0.00  0.00    +0.000 N 
ATOM      6  C   UNL     1       1.375  10.272  19.516  0.00  0.00    +0.000 A 
ATOM      7  C   UNL     1       1.858  10.116  18.203  0.00  0.00    +0.000 A 
ATOM      8  C   UNL     1       2.268   8.877  17.702  0.00  0.00    +0.000 A 
ATOM      9  C   UNL     1       2.194   7.807  18.582  0.00  0.00    +0.000 A 
ATOM     10  N   UNL     1       2.592   6.501  18.454  0.00  0.00    +0.000 NA
ATOM     11  C   UNL     1       2.268   5.931  19.598  0.00  0.00    +0.000 A 
ATOM     12  N   UNL     1       1.668   6.834  20.447  0.00  0.00    +0.000 N 
ATOM     13  C   UNL     1       1.657   8.051  19.835  0.00  0.00    +0.000 A 
ATOM     14  N   UNL     1       1.236   9.216  20.356  0.00  0.00    +0.000 NA
ATOM     15  C   UNL     1      -0.225  11.746  20.628  0.00  0.00    +0.000 C 
ATOM     16  H   UNL     1       1.339   6.666  21.384  0.00  0.00    +0.000 HD
ENDROOT
BRANCH   1  18
ATOM     17  O   UNL     1      -1.373  10.478  18.232  0.00  0.00    +0.000 OA
ATOM     18  C   UNL     1      -1.951  11.409  18.790  0.00  0.00    +0.000 C 
ATOM     19  N   UNL     1      -3.327  11.521  18.682  0.00  0.00    +0.000 N 
ATOM     20  C   UNL     1      -4.078  10.506  17.964  0.00  0.00    +0.000 C 
ATOM     21  C   UNL     1      -5.437  11.145  17.755  0.00  0.00    +0.000 C 
ATOM     22  C   UNL     1      -5.632  11.974  19.020  0.00  0.00    +0.000 C 
ATOM     23  C   UNL     1      -4.221  12.377  19.443  0.00  0.00    +0.000 C 
ENDBRANCH   1  18
BRANCH  11  24
ATOM     24  C   UNL     1       2.596   4.470  19.944  0.00  0.00    +0.000 C 
ATOM     25  C   UNL     1       1.674   3.783  20.992  0.00  0.00    +0.000 C 
ATOM     26  O   UNL     1       1.448   2.660  20.088  0.00  0.00    +0.000 OA
ATOM     27  C   UNL     1       1.811   3.524  18.979  0.00  0.00    +0.000 C 
BRANCH  24  28
ATOM     28  C   UNL     1       4.097   4.136  20.002  0.00  0.00    +0.000 C 
BRANCH  28  29
ATOM     29  C   UNL     1       4.793   4.420  18.680  0.00  0.00    +0.000 A 
ATOM     30  C   UNL     1       5.790   5.399  18.584  0.00  0.00    +0.000 A 
ATOM     31  C   UNL     1       6.380   5.711  17.356  0.00  0.00    +0.000 A 
ATOM     32  C   UNL     1       5.998   5.027  16.208  0.00  0.00    +0.000 A 
ATOM     33  C   UNL     1       5.042   4.021  16.291  0.00  0.00    +0.000 A 
ATOM     34  C   UNL     1       4.443   3.716  17.519  0.00  0.00    +0.000 A 
ENDBRANCH  28  29
ENDBRANCH  24  28
ENDBRANCH  11  24
TORSDOF 4
ENDMDL
MODEL 9
REMARK VINA RESULT:      -8.5      0.967      1.022
REMARK  Name = 
REMARK  4 active torsions:
REMARK  status: ('A' for Active; 'I' for Inactive)
REMARK    1  A    between atoms: C_2  and  C_3
REMARK    2  A    between atoms: C_13  and  C_14
REMARK    3  A    between atoms: C_14  and  C_15
REMARK    4  A    between atoms: C_15  and  C_16
REMARK                            x       y       z     vdW  Elec       q    Type
REMARK                         _______ _______ _______ _____ _____    ______ ____
ROOT
ATOM      1  C   UNL     1      -0.348  14.385  20.663  0.00  0.00    +0.000 C 
ATOM      2  C   UNL     1      -1.240  14.538  21.914  0.00  0.00    +0.000 C 
ATOM      3  C   UNL     1      -1.777  13.241  22.521  0.00  0.00    +0.000 C 
ATOM      4  C   UNL     1      -2.246  12.241  21.475  0.00  0.00    +0.000 C 
ATOM      5  N   UNL     1      -1.227  12.058  20.461  0.00  0.00    +0.000 N 
ATOM      6  C   UNL     1      -0.304  11.018  20.535  0.00  0.00    +0.000 A 
ATOM      7  C   UNL     1       0.039  10.449  21.777  0.00  0.00    +0.000 A 
ATOM      8  C   UNL     1       0.865   9.324  21.878  0.00  0.00    +0.000 A 
ATOM      9  C   UNL     1       1.309   8.783  20.681  0.00  0.00    +0.000 A 
ATOM     10  N   UNL     1       2.041   7.653  20.415  0.00  0.00    +0.000 NA
ATOM     11  C   UNL     1       2.178   7.636  19.104  0.00  0.00    +0.000 A 
ATOM     12  N   UNL     1       1.564   8.725  18.528  0.00  0.00    +0.000 N 
ATOM     13  C   UNL     1       0.960   9.443  19.515  0.00  0.00    +0.000 A 
ATOM     14  N   UNL     1       0.185  10.532  19.367  0.00  0.00    +0.000 NA
ATOM     15  C   UNL     1      -0.832  13.261  19.724  0.00  0.00    +0.000 C 
ATOM     16  H   UNL     1       1.504   8.945  17.547  0.00  0.00    +0.000 HD
ENDROOT
BRANCH   1  18
ATOM     17  O   UNL     1       1.605  13.510  21.807  0.00  0.00    +0.000 OA
ATOM     18  C   UNL     1       1.157  14.269  20.950  0.00  0.00    +0.000 C 
ATOM     19  N   UNL     1       2.029  15.015  20.175  0.00  0.00    +0.000 N 
ATOM     20  C   UNL     1       3.462  14.849  20.341  0.00  0.00    +0.000 C 
ATOM     21  C   UNL     1       4.048  16.046  19.620  0.00  0.00    +0.000 C 
ATOM     22  C   UNL     1       3.089  16.257  18.454  0.00  0.00    +0.000 C 
ATOM     23  C   UNL     1       1.736  15.771  18.969  0.00  0.00    +0.000 C 
ENDBRANCH   1  18
BRANCH  11  24
ATOM     24  C   UNL     1       2.871   6.498  18.337  0.00  0.00    +0.000 C 
ATOM     25  C   UNL     1       4.117   6.892  17.492  0.00  0.00    +0.000 C 
ATOM     26  O   UNL     1       4.906   5.841  18.128  0.00  0.00    +0.000 OA
ATOM     27  C   UNL     1       3.976   5.866  19.243  0.00  0.00    +0.000 C 
BRANCH  24  28
ATOM     28  C   UNL     1       1.924   5.442  17.741  0.00  0.00    +0.000 C 
BRANCH  28  29
ATOM     29  C   UNL     1       1.847   4.196  18.608  0.00  0.00    +0.000 A 
ATOM     30  C   UNL     1       1.173   4.209  19.836  0.00  0.00    +0.000 A 
ATOM     31  C   UNL     1       1.162   3.086  20.667  0.00  0.00    +0.000 A 
ATOM     32  C   UNL     1       1.806   1.920  20.268  0.00  0.00    +0.000 A 
ATOM     33  C   UNL     1       2.443   1.874  19.033  0.00  0.00    +0.000 A 
ATOM     34  C   UNL     1       2.463   3.002  18.206  0.00  0.00    +0.000 A 
ENDBRANCH  28  29
ENDBRANCH  24  28
ENDBRANCH  11  24
TORSDOF 4
ENDMDL
