MODEL 1
REMARK VINA RESULT:      -7.3      0.000      0.000
REMARK  Name = 
REMARK  10 active torsions:
REMARK  status: ('A' for Active; 'I' for Inactive)
REMARK    1  A    between atoms: C_1  and  O_2
REMARK    2  A    between atoms: O_2  and  C_3
REMARK    3  A    between atoms: C_3  and  C_5
REMARK    4  A    between atoms: C_8  and  C_9
REMARK    5  A    between atoms: C_9  and  O_11
REMARK    6  A    between atoms: O_11  and  C_12
REMARK    7  A    between atoms: C_13  and  N_14
REMARK    8  A    between atoms: C_15  and  C_17
REMARK    9  A    between atoms: C_17  and  S_18
REMARK   10  A    between atoms: S_18  and  C_19
REMARK                            x       y       z     vdW  Elec       q    Type
REMARK                         _______ _______ _______ _____ _____    ______ ____
ROOT
ATOM      1  C   UNL     1       2.127   6.902  20.023  0.00  0.00    +0.000 A 
ATOM      2  C   UNL     1       1.517   5.916  20.801  0.00  0.00    +0.000 A 
ATOM      3  C   UNL     1       1.951   4.593  20.718  0.00  0.00    +0.000 A 
ATOM      4  C   UNL     1       3.000   4.235  19.853  0.00  0.00    +0.000 A 
ATOM      5  C   UNL     1       3.654   5.233  19.109  0.00  0.00    +0.000 A 
ATOM      6  C   UNL     1       3.200   6.560  19.189  0.00  0.00    +0.000 A 
ENDROOT
BRANCH   5   7
ATOM      7  N   UNL     1       4.749   4.916  18.277  0.00  0.00    +0.000 N 
ATOM      8  C   UNL     1       6.080   4.983  18.662  0.00  0.00    +0.000 C 
ATOM      9  O   UNL     1       6.454   5.192  19.815  0.00  0.00    +0.000 OA
ATOM     10  H   UNL     1       4.546   4.408  17.419  0.00  0.00    +0.000 HD
BRANCH   8  11
ATOM     11  C   UNL     1       7.071   4.640  17.560  0.00  0.00    +0.000 C 
BRANCH  11  12
ATOM     12  S   UNL     1       7.211   6.037  16.396  0.00  0.00    +0.000 S 
BRANCH  12  13
ATOM     13  C   UNL     1       6.984   5.204  14.840  0.00  0.00    +0.000 A 
ATOM     14  C   UNL     1       5.986   4.239  14.756  0.00  0.00    +0.000 A 
ATOM     15  C   UNL     1       5.804   3.563  13.554  0.00  0.00    +0.000 A 
ATOM     16  C   UNL     1       6.619   3.874  12.473  0.00  0.00    +0.000 A 
ATOM     17  C   UNL     1       7.586   4.851  12.644  0.00  0.00    +0.000 A 
ATOM     18  N   UNL     1       7.790   5.517  13.804  0.00  0.00    +0.000 NA
ENDBRANCH  12  13
ENDBRANCH  11  12
ENDBRANCH   8  11
ENDBRANCH   5   7
BRANCH   1  19
ATOM     19  C   UNL     1       1.607   8.300  20.128  0.00  0.00    +0.000 C 
ATOM     20  O   UNL     1       1.197   8.790  21.164  0.00  0.00    +0.000 OA
BRANCH  19  22
ATOM     21  C   UNL     1       0.734  10.013  18.799  0.00  0.00    +0.000 C 
ATOM     22  O   UNL     1       1.629   8.906  18.916  0.00  0.00    +0.000 OA
ENDBRANCH  19  22
ENDBRANCH   1  19
BRANCH   4  23
ATOM     23  C   UNL     1       3.413   2.807  19.884  0.00  0.00    +0.000 C 
ATOM     24  O   UNL     1       4.506   2.441  20.282  0.00  0.00    +0.000 OA
BRANCH  23  25
ATOM     25  O   UNL     1       2.408   1.992  19.475  0.00  0.00    +0.000 OA
ATOM     26  C   UNL     1       2.251   1.966  18.053  0.00  0.00    +0.000 C 
ENDBRANCH  23  25
ENDBRANCH   4  23
TORSDOF 8
ENDMDL
MODEL 2
REMARK VINA RESULT:      -7.1      3.400      7.940
REMARK  Name = 
REMARK  10 active torsions:
REMARK  status: ('A' for Active; 'I' for Inactive)
REMARK    1  A    between atoms: C_1  and  O_2
REMARK    2  A    between atoms: O_2  and  C_3
REMARK    3  A    between atoms: C_3  and  C_5
REMARK    4  A    between atoms: C_8  and  C_9
REMARK    5  A    between atoms: C_9  and  O_11
REMARK    6  A    between atoms: O_11  and  C_12
REMARK    7  A    between atoms: C_13  and  N_14
REMARK    8  A    between atoms: C_15  and  C_17
REMARK    9  A    between atoms: C_17  and  S_18
REMARK   10  A    between atoms: S_18  and  C_19
REMARK                            x       y       z     vdW  Elec       q    Type
REMARK                         _______ _______ _______ _____ _____    ______ ____
ROOT
ATOM      1  C   UNL     1       5.930   4.893  18.134  0.00  0.00    +0.000 A 
ATOM      2  C   UNL     1       5.355   3.893  17.348  0.00  0.00    +0.000 A 
ATOM      3  C   UNL     1       3.977   3.678  17.387  0.00  0.00    +0.000 A 
ATOM      4  C   UNL     1       3.154   4.459  18.217  0.00  0.00    +0.000 A 
ATOM      5  C   UNL     1       3.720   5.504  18.969  0.00  0.00    +0.000 A 
ATOM      6  C   UNL     1       5.111   5.702  18.932  0.00  0.00    +0.000 A 
ENDROOT
BRANCH   5   7
ATOM      7  N   UNL     1       2.913   6.344  19.765  0.00  0.00    +0.000 N 
ATOM      8  C   UNL     1       2.282   7.493  19.314  0.00  0.00    +0.000 C 
ATOM      9  O   UNL     1       2.238   7.838  18.134  0.00  0.00    +0.000 OA
ATOM     10  H   UNL     1       2.604   5.973  20.661  0.00  0.00    +0.000 HD
BRANCH   8  11
ATOM     11  C   UNL     1       1.513   8.250  20.386  0.00  0.00    +0.000 C 
BRANCH  11  12
ATOM     12  S   UNL     1       0.790   9.766  19.676  0.00  0.00    +0.000 S 
BRANCH  12  13
ATOM     13  C   UNL     1      -0.150  10.372  21.060  0.00  0.00    +0.000 A 
ATOM     14  C   UNL     1      -0.904  11.528  20.881  0.00  0.00    +0.000 A 
ATOM     15  C   UNL     1      -1.632  12.028  21.955  0.00  0.00    +0.000 A 
ATOM     16  C   UNL     1      -1.589  11.360  23.172  0.00  0.00    +0.000 A 
ATOM     17  C   UNL     1      -0.815  10.214  23.260  0.00  0.00    +0.000 A 
ATOM     18  N   UNL     1      -0.091   9.711  22.235  0.00  0.00    +0.000 NA
ENDBRANCH  12  13
ENDBRANCH  11  12
ENDBRANCH   8  11
ENDBRANCH   5   7
BRANCH   1  19
ATOM     19  C   UNL     1       7.414   5.065  18.076  0.00  0.00    +0.000 C 
ATOM     20  O   UNL     1       8.180   4.190  17.717  0.00  0.00    +0.000 OA
BRANCH  19  22
ATOM     21  C   UNL     1       7.668   7.318  17.511  0.00  0.00    +0.000 C 
ATOM     22  O   UNL     1       7.765   6.299  18.509  0.00  0.00    +0.000 OA
ENDBRANCH  19  22
ENDBRANCH   1  19
BRANCH   4  23
ATOM     23  C   UNL     1       1.696   4.177  18.141  0.00  0.00    +0.000 C 
ATOM     24  O   UNL     1       1.057   4.255  17.105  0.00  0.00    +0.000 OA
BRANCH  23  25
ATOM     25  O   UNL     1       1.207   3.773  19.341  0.00  0.00    +0.000 OA
ATOM     26  C   UNL     1       1.003   2.359  19.416  0.00  0.00    +0.000 C 
ENDBRANCH  23  25
ENDBRANCH   4  23
TORSDOF 8
ENDMDL
MODEL 3
REMARK VINA RESULT:      -7.0      3.458      7.539
REMARK  Name = 
REMARK  10 active torsions:
REMARK  status: ('A' for Active; 'I' for Inactive)
REMARK    1  A    between atoms: C_1  and  O_2
REMARK    2  A    between atoms: O_2  and  C_3
REMARK    3  A    between atoms: C_3  and  C_5
REMARK    4  A    between atoms: C_8  and  C_9
REMARK    5  A    between atoms: C_9  and  O_11
REMARK    6  A    between atoms: O_11  and  C_12
REMARK    7  A    between atoms: C_13  and  N_14
REMARK    8  A    between atoms: C_15  and  C_17
REMARK    9  A    between atoms: C_17  and  S_18
REMARK   10  A    between atoms: S_18  and  C_19
REMARK                            x       y       z     vdW  Elec       q    Type
REMARK                         _______ _______ _______ _____ _____    ______ ____
ROOT
ATOM      1  C   UNL     1       2.325   3.629  18.370  0.00  0.00    +0.000 A 
ATOM      2  C   UNL     1       3.558   3.189  17.886  0.00  0.00    +0.000 A 
ATOM      3  C   UNL     1       4.441   4.092  17.295  0.00  0.00    +0.000 A 
ATOM      4  C   UNL     1       4.102   5.451  17.175  0.00  0.00    +0.000 A 
ATOM      5  C   UNL     1       2.885   5.910  17.710  0.00  0.00    +0.000 A 
ATOM      6  C   UNL     1       1.997   4.989  18.291  0.00  0.00    +0.000 A 
ENDROOT
BRANCH   5   7
ATOM      7  N   UNL     1       2.541   7.278  17.659  0.00  0.00    +0.000 N 
ATOM      8  C   UNL     1       2.134   8.032  18.750  0.00  0.00    +0.000 C 
ATOM      9  O   UNL     1       2.159   7.632  19.913  0.00  0.00    +0.000 OA
ATOM     10  H   UNL     1       2.811   7.792  16.822  0.00  0.00    +0.000 HD
BRANCH   8  11
ATOM     11  C   UNL     1       1.771   9.472  18.418  0.00  0.00    +0.000 C 
BRANCH  11  12
ATOM     12  S   UNL     1       0.740  10.173  19.749  0.00  0.00    +0.000 S 
BRANCH  12  13
ATOM     13  C   UNL     1      -0.764  10.521  18.865  0.00  0.00    +0.000 A 
ATOM     14  C   UNL     1      -0.977   9.864  17.657  0.00  0.00    +0.000 A 
ATOM     15  C   UNL     1      -2.138  10.135  16.941  0.00  0.00    +0.000 A 
ATOM     16  C   UNL     1      -3.051  11.048  17.452  0.00  0.00    +0.000 A 
ATOM     17  C   UNL     1      -2.760  11.654  18.663  0.00  0.00    +0.000 A 
ATOM     18  N   UNL     1      -1.635  11.415  19.376  0.00  0.00    +0.000 NA
ENDBRANCH  12  13
ENDBRANCH  11  12
ENDBRANCH   8  11
ENDBRANCH   5   7
BRANCH   1  19
ATOM     19  C   UNL     1       1.403   2.616  18.970  0.00  0.00    +0.000 C 
ATOM     20  O   UNL     1       0.344   2.289  18.468  0.00  0.00    +0.000 OA
BRANCH  19  22
ATOM     21  C   UNL     1       1.382   2.825  21.297  0.00  0.00    +0.000 C 
ATOM     22  O   UNL     1       1.901   2.160  20.143  0.00  0.00    +0.000 OA
ENDBRANCH  19  22
ENDBRANCH   1  19
BRANCH   4  23
ATOM     23  C   UNL     1       5.138   6.332  16.575  0.00  0.00    +0.000 C 
ATOM     24  O   UNL     1       5.312   6.429  15.372  0.00  0.00    +0.000 OA
BRANCH  23  25
ATOM     25  O   UNL     1       5.800   7.038  17.527  0.00  0.00    +0.000 OA
ATOM     26  C   UNL     1       7.189   6.704  17.607  0.00  0.00    +0.000 C 
ENDBRANCH  23  25
ENDBRANCH   4  23
TORSDOF 8
ENDMDL
MODEL 4
REMARK VINA RESULT:      -6.9      4.817      6.476
REMARK  Name = 
REMARK  10 active torsions:
REMARK  status: ('A' for Active; 'I' for Inactive)
REMARK    1  A    between atoms: C_1  and  O_2
REMARK    2  A    between atoms: O_2  and  C_3
REMARK    3  A    between atoms: C_3  and  C_5
REMARK    4  A    between atoms: C_8  and  C_9
REMARK    5  A    between atoms: C_9  and  O_11
REMARK    6  A    between atoms: O_11  and  C_12
REMARK    7  A    between atoms: C_13  and  N_14
REMARK    8  A    between atoms: C_15  and  C_17
REMARK    9  A    between atoms: C_17  and  S_18
REMARK   10  A    between atoms: S_18  and  C_19
REMARK                            x       y       z     vdW  Elec       q    Type
REMARK                         _______ _______ _______ _____ _____    ______ ____
ROOT
ATOM      1  C   UNL     1       4.096   4.647  18.305  0.00  0.00    +0.000 A 
ATOM      2  C   UNL     1       4.247   3.616  17.375  0.00  0.00    +0.000 A 
ATOM      3  C   UNL     1       5.095   3.781  16.279  0.00  0.00    +0.000 A 
ATOM      4  C   UNL     1       5.802   4.982  16.095  0.00  0.00    +0.000 A 
ATOM      5  C   UNL     1       5.697   6.002  17.058  0.00  0.00    +0.000 A 
ATOM      6  C   UNL     1       4.830   5.830  18.150  0.00  0.00    +0.000 A 
ENDROOT
BRANCH   5   7
ATOM      7  N   UNL     1       6.440   7.194  16.933  0.00  0.00    +0.000 N 
ATOM      8  C   UNL     1       7.502   7.553  17.750  0.00  0.00    +0.000 C 
ATOM      9  O   UNL     1       8.010   6.809  18.588  0.00  0.00    +0.000 OA
ATOM     10  H   UNL     1       6.330   7.720  16.068  0.00  0.00    +0.000 HD
BRANCH   8  11
ATOM     11  C   UNL     1       8.102   8.917  17.439  0.00  0.00    +0.000 C 
BRANCH  11  12
ATOM     12  S   UNL     1       8.915   9.590  18.926  0.00  0.00    +0.000 S 
BRANCH  12  13
ATOM     13  C   UNL     1       9.530  11.138  18.303  0.00  0.00    +0.000 A 
ATOM     14  C   UNL     1      10.886  11.231  18.008  0.00  0.00    +0.000 A 
ATOM     15  C   UNL     1      11.391  12.438  17.537  0.00  0.00    +0.000 A 
ATOM     16  C   UNL     1      10.528  13.513  17.370  0.00  0.00    +0.000 A 
ATOM     17  C   UNL     1       9.191  13.332  17.685  0.00  0.00    +0.000 A 
ATOM     18  N   UNL     1       8.676  12.172  18.154  0.00  0.00    +0.000 NA
ENDBRANCH  12  13
ENDBRANCH  11  12
ENDBRANCH   8  11
ENDBRANCH   5   7
BRANCH   1  19
ATOM     19  C   UNL     1       3.156   4.430  19.447  0.00  0.00    +0.000 C 
ATOM     20  O   UNL     1       2.959   5.253  20.322  0.00  0.00    +0.000 OA
BRANCH  19  22
ATOM     21  C   UNL     1       1.674   2.911  20.425  0.00  0.00    +0.000 C 
ATOM     22  O   UNL     1       2.601   3.197  19.376  0.00  0.00    +0.000 OA
ENDBRANCH  19  22
ENDBRANCH   1  19
BRANCH   4  23
ATOM     23  C   UNL     1       6.714   5.028  14.922  0.00  0.00    +0.000 C 
ATOM     24  O   UNL     1       7.789   5.604  14.939  0.00  0.00    +0.000 OA
BRANCH  23  25
ATOM     25  O   UNL     1       6.221   4.310  13.882  0.00  0.00    +0.000 OA
ATOM     26  C   UNL     1       7.094   4.291  12.749  0.00  0.00    +0.000 C 
ENDBRANCH  23  25
ENDBRANCH   4  23
TORSDOF 8
ENDMDL
MODEL 5
REMARK VINA RESULT:      -6.8      4.747      6.301
REMARK  Name = 
REMARK  10 active torsions:
REMARK  status: ('A' for Active; 'I' for Inactive)
REMARK    1  A    between atoms: C_1  and  O_2
REMARK    2  A    between atoms: O_2  and  C_3
REMARK    3  A    between atoms: C_3  and  C_5
REMARK    4  A    between atoms: C_8  and  C_9
REMARK    5  A    between atoms: C_9  and  O_11
REMARK    6  A    between atoms: O_11  and  C_12
REMARK    7  A    between atoms: C_13  and  N_14
REMARK    8  A    between atoms: C_15  and  C_17
REMARK    9  A    between atoms: C_17  and  S_18
REMARK   10  A    between atoms: S_18  and  C_19
REMARK                            x       y       z     vdW  Elec       q    Type
REMARK                         _______ _______ _______ _____ _____    ______ ____
ROOT
ATOM      1  C   UNL     1       3.950   4.642  18.463  0.00  0.00    +0.000 A 
ATOM      2  C   UNL     1       4.064   3.630  17.508  0.00  0.00    +0.000 A 
ATOM      3  C   UNL     1       4.879   3.810  16.390  0.00  0.00    +0.000 A 
ATOM      4  C   UNL     1       5.591   5.008  16.209  0.00  0.00    +0.000 A 
ATOM      5  C   UNL     1       5.524   6.009  17.195  0.00  0.00    +0.000 A 
ATOM      6  C   UNL     1       4.689   5.823  18.309  0.00  0.00    +0.000 A 
ENDROOT
BRANCH   5   7
ATOM      7  N   UNL     1       6.274   7.198  17.072  0.00  0.00    +0.000 N 
ATOM      8  C   UNL     1       7.419   7.489  17.797  0.00  0.00    +0.000 C 
ATOM      9  O   UNL     1       7.994   6.686  18.530  0.00  0.00    +0.000 OA
ATOM     10  H   UNL     1       6.087   7.781  16.258  0.00  0.00    +0.000 HD
BRANCH   8  11
ATOM     11  C   UNL     1       8.010   8.863  17.515  0.00  0.00    +0.000 C 
BRANCH  11  12
ATOM     12  S   UNL     1       8.959   9.439  18.962  0.00  0.00    +0.000 S 
BRANCH  12  13
ATOM     13  C   UNL     1       9.567  11.001  18.368  0.00  0.00    +0.000 A 
ATOM     14  C   UNL     1       8.639  11.934  17.916  0.00  0.00    +0.000 A 
ATOM     15  C   UNL     1       9.095  13.155  17.431  0.00  0.00    +0.000 A 
ATOM     16  C   UNL     1      10.460  13.410  17.414  0.00  0.00    +0.000 A 
ATOM     17  C   UNL     1      11.313  12.426  17.886  0.00  0.00    +0.000 A 
ATOM     18  N   UNL     1      10.898  11.226  18.355  0.00  0.00    +0.000 NA
ENDBRANCH  12  13
ENDBRANCH  11  12
ENDBRANCH   8  11
ENDBRANCH   5   7
BRANCH   1  19
ATOM     19  C   UNL     1       3.042   4.410  19.627  0.00  0.00    +0.000 C 
ATOM     20  O   UNL     1       2.840   5.236  20.499  0.00  0.00    +0.000 OA
BRANCH  19  22
ATOM     21  C   UNL     1       1.105   3.109  19.744  0.00  0.00    +0.000 C 
ATOM     22  O   UNL     1       2.524   3.160  19.582  0.00  0.00    +0.000 OA
ENDBRANCH  19  22
ENDBRANCH   1  19
BRANCH   4  23
ATOM     23  C   UNL     1       6.468   5.072  15.010  0.00  0.00    +0.000 C 
ATOM     24  O   UNL     1       7.646   5.384  15.064  0.00  0.00    +0.000 OA
BRANCH  23  25
ATOM     25  O   UNL     1       5.804   4.685  13.891  0.00  0.00    +0.000 OA
ATOM     26  C   UNL     1       6.562   3.790  13.071  0.00  0.00    +0.000 C 
ENDBRANCH  23  25
ENDBRANCH   4  23
TORSDOF 8
ENDMDL
MODEL 6
REMARK VINA RESULT:      -6.7      4.103      6.010
REMARK  Name = 
REMARK  10 active torsions:
REMARK  status: ('A' for Active; 'I' for Inactive)
REMARK    1  A    between atoms: C_1  and  O_2
REMARK    2  A    between atoms: O_2  and  C_3
REMARK    3  A    between atoms: C_3  and  C_5
REMARK    4  A    between atoms: C_8  and  C_9
REMARK    5  A    between atoms: C_9  and  O_11
REMARK    6  A    between atoms: O_11  and  C_12
REMARK    7  A    between atoms: C_13  and  N_14
REMARK    8  A    between atoms: C_15  and  C_17
REMARK    9  A    between atoms: C_17  and  S_18
REMARK   10  A    between atoms: S_18  and  C_19
REMARK                            x       y       z     vdW  Elec       q    Type
REMARK                         _______ _______ _______ _____ _____    ______ ____
ROOT
ATOM      1  C   UNL     1       3.801   3.804  18.823  0.00  0.00    +0.000 A 
ATOM      2  C   UNL     1       3.744   3.069  17.637  0.00  0.00    +0.000 A 
ATOM      3  C   UNL     1       4.576   3.400  16.568  0.00  0.00    +0.000 A 
ATOM      4  C   UNL     1       5.477   4.474  16.668  0.00  0.00    +0.000 A 
ATOM      5  C   UNL     1       5.578   5.183  17.878  0.00  0.00    +0.000 A 
ATOM      6  C   UNL     1       4.725   4.850  18.944  0.00  0.00    +0.000 A 
ENDROOT
BRANCH   5   7
ATOM      7  N   UNL     1       6.515   6.228  18.030  0.00  0.00    +0.000 N 
ATOM      8  C   UNL     1       7.661   6.155  18.807  0.00  0.00    +0.000 C 
ATOM      9  O   UNL     1       8.068   5.125  19.342  0.00  0.00    +0.000 OA
ATOM     10  H   UNL     1       6.458   6.999  17.368  0.00  0.00    +0.000 HD
BRANCH   8  11
ATOM     11  C   UNL     1       8.477   7.439  18.845  0.00  0.00    +0.000 C 
BRANCH  11  12
ATOM     12  S   UNL     1       7.748   8.669  17.712  0.00  0.00    +0.000 S 
BRANCH  12  13
ATOM     13  C   UNL     1       8.564  10.154  18.256  0.00  0.00    +0.000 A 
ATOM     14  C   UNL     1       9.346  10.086  19.404  0.00  0.00    +0.000 A 
ATOM     15  C   UNL     1       9.977  11.239  19.856  0.00  0.00    +0.000 A 
ATOM     16  C   UNL     1       9.814  12.422  19.148  0.00  0.00    +0.000 A 
ATOM     17  C   UNL     1       9.021  12.399  18.013  0.00  0.00    +0.000 A 
ATOM     18  N   UNL     1       8.387  11.294  17.556  0.00  0.00    +0.000 NA
ENDBRANCH  12  13
ENDBRANCH  11  12
ENDBRANCH   8  11
ENDBRANCH   5   7
BRANCH   1  19
ATOM     19  C   UNL     1       2.869   3.426  19.929  0.00  0.00    +0.000 C 
ATOM     20  O   UNL     1       3.196   2.743  20.882  0.00  0.00    +0.000 OA
BRANCH  19  22
ATOM     21  C   UNL     1       0.625   2.915  19.521  0.00  0.00    +0.000 C 
ATOM     22  O   UNL     1       1.629   3.918  19.692  0.00  0.00    +0.000 OA
ENDBRANCH  19  22
ENDBRANCH   1  19
BRANCH   4  23
ATOM     23  C   UNL     1       6.351   4.705  15.487  0.00  0.00    +0.000 C 
ATOM     24  O   UNL     1       7.558   4.854  15.573  0.00  0.00    +0.000 OA
BRANCH  23  25
ATOM     25  O   UNL     1       5.641   4.666  14.331  0.00  0.00    +0.000 OA
ATOM     26  C   UNL     1       6.199   3.776  13.360  0.00  0.00    +0.000 C 
ENDBRANCH  23  25
ENDBRANCH   4  23
TORSDOF 8
ENDMDL
MODEL 7
REMARK VINA RESULT:      -6.7      4.412      6.993
REMARK  Name = 
REMARK  10 active torsions:
REMARK  status: ('A' for Active; 'I' for Inactive)
REMARK    1  A    between atoms: C_1  and  O_2
REMARK    2  A    between atoms: O_2  and  C_3
REMARK    3  A    between atoms: C_3  and  C_5
REMARK    4  A    between atoms: C_8  and  C_9
REMARK    5  A    between atoms: C_9  and  O_11
REMARK    6  A    between atoms: O_11  and  C_12
REMARK    7  A    between atoms: C_13  and  N_14
REMARK    8  A    between atoms: C_15  and  C_17
REMARK    9  A    between atoms: C_17  and  S_18
REMARK   10  A    between atoms: S_18  and  C_19
REMARK                            x       y       z     vdW  Elec       q    Type
REMARK                         _______ _______ _______ _____ _____    ______ ____
ROOT
ATOM      1  C   UNL     1      -2.148  11.098  17.847  0.00  0.00    +0.000 A 
ATOM      2  C   UNL     1      -2.163  12.034  18.883  0.00  0.00    +0.000 A 
ATOM      3  C   UNL     1      -1.215  11.964  19.904  0.00  0.00    +0.000 A 
ATOM      4  C   UNL     1      -0.239  10.954  19.906  0.00  0.00    +0.000 A 
ATOM      5  C   UNL     1      -0.184  10.041  18.837  0.00  0.00    +0.000 A 
ATOM      6  C   UNL     1      -1.152  10.112  17.821  0.00  0.00    +0.000 A 
ENDROOT
BRANCH   5   7
ATOM      7  N   UNL     1       0.821   9.052  18.779  0.00  0.00    +0.000 N 
ATOM      8  C   UNL     1       1.963   9.130  17.996  0.00  0.00    +0.000 C 
ATOM      9  O   UNL     1       2.301  10.132  17.368  0.00  0.00    +0.000 OA
ATOM     10  H   UNL     1       0.814   8.343  19.510  0.00  0.00    +0.000 HD
BRANCH   8  11
ATOM     11  C   UNL     1       2.863   7.906  18.075  0.00  0.00    +0.000 C 
BRANCH  11  12
ATOM     12  S   UNL     1       2.374   6.868  19.492  0.00  0.00    +0.000 S 
BRANCH  12  13
ATOM     13  C   UNL     1       2.392   5.252  18.749  0.00  0.00    +0.000 A 
ATOM     14  C   UNL     1       3.316   5.008  17.738  0.00  0.00    +0.000 A 
ATOM     15  C   UNL     1       3.334   3.757  17.132  0.00  0.00    +0.000 A 
ATOM     16  C   UNL     1       2.435   2.786  17.554  0.00  0.00    +0.000 A 
ATOM     17  C   UNL     1       1.552   3.113  18.570  0.00  0.00    +0.000 A 
ATOM     18  N   UNL     1       1.506   4.325  19.171  0.00  0.00    +0.000 NA
ENDBRANCH  12  13
ENDBRANCH  11  12
ENDBRANCH   8  11
ENDBRANCH   5   7
BRANCH   1  19
ATOM     19  C   UNL     1      -3.202  11.200  16.792  0.00  0.00    +0.000 C 
ATOM     20  O   UNL     1      -4.382  11.372  17.034  0.00  0.00    +0.000 OA
BRANCH  19  22
ATOM     21  C   UNL     1      -3.406  10.179  14.700  0.00  0.00    +0.000 C 
ATOM     22  O   UNL     1      -2.658  11.039  15.562  0.00  0.00    +0.000 OA
ENDBRANCH  19  22
ENDBRANCH   1  19
BRANCH   4  23
ATOM     23  C   UNL     1       0.751  11.005  21.014  0.00  0.00    +0.000 C 
ATOM     24  O   UNL     1       1.332  12.027  21.339  0.00  0.00    +0.000 OA
BRANCH  23  25
ATOM     25  O   UNL     1       0.866   9.802  21.632  0.00  0.00    +0.000 OA
ATOM     26  C   UNL     1      -0.132   9.590  22.635  0.00  0.00    +0.000 C 
ENDBRANCH  23  25
ENDBRANCH   4  23
TORSDOF 8
ENDMDL
MODEL 8
REMARK VINA RESULT:      -6.7      3.347      7.268
REMARK  Name = 
REMARK  10 active torsions:
REMARK  status: ('A' for Active; 'I' for Inactive)
REMARK    1  A    between atoms: C_1  and  O_2
REMARK    2  A    between atoms: O_2  and  C_3
REMARK    3  A    between atoms: C_3  and  C_5
REMARK    4  A    between atoms: C_8  and  C_9
REMARK    5  A    between atoms: C_9  and  O_11
REMARK    6  A    between atoms: O_11  and  C_12
REMARK    7  A    between atoms: C_13  and  N_14
REMARK    8  A    between atoms: C_15  and  C_17
REMARK    9  A    between atoms: C_17  and  S_18
REMARK   10  A    between atoms: S_18  and  C_19
REMARK                            x       y       z     vdW  Elec       q    Type
REMARK                         _______ _______ _______ _____ _____    ______ ____
ROOT
ATOM      1  C   UNL     1       5.501   5.298  17.038  0.00  0.00    +0.000 A 
ATOM      2  C   UNL     1       4.920   4.088  16.653  0.00  0.00    +0.000 A 
ATOM      3  C   UNL     1       3.663   3.729  17.141  0.00  0.00    +0.000 A 
ATOM      4  C   UNL     1       2.969   4.574  18.024  0.00  0.00    +0.000 A 
ATOM      5  C   UNL     1       3.525   5.819  18.371  0.00  0.00    +0.000 A 
ATOM      6  C   UNL     1       4.797   6.164  17.886  0.00  0.00    +0.000 A 
ENDROOT
BRANCH   5   7
ATOM      7  N   UNL     1       2.827   6.716  19.208  0.00  0.00    +0.000 N 
ATOM      8  C   UNL     1       2.229   7.892  18.781  0.00  0.00    +0.000 C 
ATOM      9  O   UNL     1       2.117   8.220  17.601  0.00  0.00    +0.000 OA
ATOM     10  H   UNL     1       2.565   6.377  20.132  0.00  0.00    +0.000 HD
BRANCH   8  11
ATOM     11  C   UNL     1       1.585   8.708  19.893  0.00  0.00    +0.000 C 
BRANCH  11  12
ATOM     12  S   UNL     1       0.366   9.865  19.184  0.00  0.00    +0.000 S 
BRANCH  12  13
ATOM     13  C   UNL     1       1.260  11.399  19.282  0.00  0.00    +0.000 A 
ATOM     14  C   UNL     1       2.057  11.761  18.201  0.00  0.00    +0.000 A 
ATOM     15  C   UNL     1       2.779  12.948  18.265  0.00  0.00    +0.000 A 
ATOM     16  C   UNL     1       2.680  13.740  19.402  0.00  0.00    +0.000 A 
ATOM     17  C   UNL     1       1.860  13.305  20.430  0.00  0.00    +0.000 A 
ATOM     18  N   UNL     1       1.155  12.151  20.398  0.00  0.00    +0.000 NA
ENDBRANCH  12  13
ENDBRANCH  11  12
ENDBRANCH   8  11
ENDBRANCH   5   7
BRANCH   1  19
ATOM     19  C   UNL     1       6.861   5.623  16.510  0.00  0.00    +0.000 C 
ATOM     20  O   UNL     1       7.445   6.664  16.749  0.00  0.00    +0.000 OA
BRANCH  19  22
ATOM     21  C   UNL     1       7.181   4.880  14.317  0.00  0.00    +0.000 C 
ATOM     22  O   UNL     1       7.313   4.622  15.717  0.00  0.00    +0.000 OA
ENDBRANCH  19  22
ENDBRANCH   1  19
BRANCH   4  23
ATOM     23  C   UNL     1       1.617   4.116  18.439  0.00  0.00    +0.000 C 
ATOM     24  O   UNL     1       0.852   3.538  17.686  0.00  0.00    +0.000 OA
BRANCH  23  25
ATOM     25  O   UNL     1       1.390   4.371  19.752  0.00  0.00    +0.000 OA
ATOM     26  C   UNL     1       1.136   3.189  20.517  0.00  0.00    +0.000 C 
ENDBRANCH  23  25
ENDBRANCH   4  23
TORSDOF 8
ENDMDL
MODEL 9
REMARK VINA RESULT:      -6.7      2.163      3.013
REMARK  Name = 
REMARK  10 active torsions:
REMARK  status: ('A' for Active; 'I' for Inactive)
REMARK    1  A    between atoms: C_1  and  O_2
REMARK    2  A    between atoms: O_2  and  C_3
REMARK    3  A    between atoms: C_3  and  C_5
REMARK    4  A    between atoms: C_8  and  C_9
REMARK    5  A    between atoms: C_9  and  O_11
REMARK    6  A    between atoms: O_11  and  C_12
REMARK    7  A    between atoms: C_13  and  N_14
REMARK    8  A    between atoms: C_15  and  C_17
REMARK    9  A    between atoms: C_17  and  S_18
REMARK   10  A    between atoms: S_18  and  C_19
REMARK                            x       y       z     vdW  Elec       q    Type
REMARK                         _______ _______ _______ _____ _____    ______ ____
ROOT
ATOM      1  C   UNL     1       2.130   7.019  19.718  0.00  0.00    +0.000 A 
ATOM      2  C   UNL     1       1.455   6.329  20.727  0.00  0.00    +0.000 A 
ATOM      3  C   UNL     1       1.714   4.976  20.943  0.00  0.00    +0.000 A 
ATOM      4  C   UNL     1       2.651   4.290  20.151  0.00  0.00    +0.000 A 
ATOM      5  C   UNL     1       3.374   4.993  19.170  0.00  0.00    +0.000 A 
ATOM      6  C   UNL     1       3.094   6.352  18.951  0.00  0.00    +0.000 A 
ENDROOT
BRANCH   5   7
ATOM      7  N   UNL     1       4.363   4.348  18.398  0.00  0.00    +0.000 N 
ATOM      8  C   UNL     1       4.147   3.771  17.156  0.00  0.00    +0.000 C 
ATOM      9  O   UNL     1       3.100   3.879  16.519  0.00  0.00    +0.000 OA
ATOM     10  H   UNL     1       5.333   4.499  18.670  0.00  0.00    +0.000 HD
BRANCH   8  11
ATOM     11  C   UNL     1       5.369   3.092  16.556  0.00  0.00    +0.000 C 
BRANCH  11  12
ATOM     12  S   UNL     1       6.342   4.303  15.599  0.00  0.00    +0.000 S 
BRANCH  12  13
ATOM     13  C   UNL     1       7.036   5.288  16.908  0.00  0.00    +0.000 A 
ATOM     14  C   UNL     1       7.110   6.664  16.721  0.00  0.00    +0.000 A 
ATOM     15  C   UNL     1       7.666   7.450  17.724  0.00  0.00    +0.000 A 
ATOM     16  C   UNL     1       8.126   6.842  18.884  0.00  0.00    +0.000 A 
ATOM     17  C   UNL     1       8.011   5.465  18.989  0.00  0.00    +0.000 A 
ATOM     18  N   UNL     1       7.483   4.675  18.025  0.00  0.00    +0.000 NA
ENDBRANCH  12  13
ENDBRANCH  11  12
ENDBRANCH   8  11
ENDBRANCH   5   7
BRANCH   1  19
ATOM     19  C   UNL     1       1.796   8.461  19.509  0.00  0.00    +0.000 C 
ATOM     20  O   UNL     1       2.031   9.064  18.478  0.00  0.00    +0.000 OA
BRANCH  19  22
ATOM     21  C   UNL     1       0.070   9.771  20.386  0.00  0.00    +0.000 C 
ATOM     22  O   UNL     1       1.240   8.985  20.627  0.00  0.00    +0.000 OA
ENDBRANCH  19  22
ENDBRANCH   1  19
BRANCH   4  23
ATOM     23  C   UNL     1       2.885   2.865  20.502  0.00  0.00    +0.000 C 
ATOM     24  O   UNL     1       3.196   2.500  21.624  0.00  0.00    +0.000 OA
BRANCH  23  25
ATOM     25  O   UNL     1       2.649   2.049  19.444  0.00  0.00    +0.000 OA
ATOM     26  C   UNL     1       1.284   2.068  19.014  0.00  0.00    +0.000 C 
ENDBRANCH  23  25
ENDBRANCH   4  23
TORSDOF 8
ENDMDL
