MODEL 1
REMARK VINA RESULT:      -8.3      0.000      0.000
REMARK  Name = 
REMARK  10 active torsions:
REMARK  status: ('A' for Active; 'I' for Inactive)
REMARK    1  A    between atoms: C_1  and  O_2
REMARK    2  A    between atoms: O_2  and  C_3
REMARK    3  A    between atoms: C_6  and  N_7
REMARK    4  A    between atoms: C_9  and  C_10
REMARK    5  A    between atoms: C_12  and  C_13
REMARK    6  A    between atoms: C_16  and  N_17
REMARK    7  A    between atoms: N_17  and  S_18
REMARK    8  A    between atoms: S_18  and  C_21
REMARK    9  A    between atoms: C_24  and  C_25
REMARK   10  A    between atoms: C_27  and  C_28
REMARK                            x       y       z     vdW  Elec       q    Type
REMARK                         _______ _______ _______ _____ _____    ______ ____
ROOT
ATOM      1  C   UNL     1      -2.697  11.282  18.400  0.00  0.00    +0.000 A 
ATOM      2  C   UNL     1      -4.047  11.619  18.496  0.00  0.00    +0.000 A 
ATOM      3  C   UNL     1      -4.520  12.336  19.591  0.00  0.00    +0.000 A 
ATOM      4  C   UNL     1      -3.666  12.789  20.597  0.00  0.00    +0.000 A 
ATOM      5  C   UNL     1      -2.296  12.529  20.442  0.00  0.00    +0.000 A 
ATOM      6  C   UNL     1      -1.810  11.766  19.374  0.00  0.00    +0.000 A 
ENDROOT
BRANCH   4   7
ATOM      7  N   UNL     1      -4.161  13.422  21.709  0.00  0.00    +0.000 N 
ATOM      8  C   UNL     1      -5.595  13.459  22.023  0.00  0.00    +0.000 C 
ATOM      9  C   UNL     1      -5.799  13.050  23.507  0.00  0.00    +0.000 C 
ATOM     10  C   UNL     1      -7.278  13.118  23.878  0.00  0.00    +0.000 C 
ATOM     11  N   UNL     1      -5.015  13.892  24.441  0.00  0.00    +0.000 NA
ATOM     12  C   UNL     1      -3.579  13.864  24.064  0.00  0.00    +0.000 C 
ATOM     13  C   UNL     1      -2.811  14.806  24.985  0.00  0.00    +0.000 C 
ATOM     14  C   UNL     1      -3.327  14.252  22.584  0.00  0.00    +0.000 C 
ATOM     15  H   UNL     1      -5.116  13.523  25.386  0.00  0.00    +0.000 HD
ENDBRANCH   4   7
BRANCH   1  17
ATOM     16  C   UNL     1      -2.612  10.845  16.082  0.00  0.00    +0.000 C 
ATOM     17  O   UNL     1      -2.193  10.484  17.402  0.00  0.00    +0.000 OA
ENDBRANCH   1  17
BRANCH   6  18
ATOM     18  N   UNL     1      -0.404  11.498  19.322  0.00  0.00    +0.000 N 
ATOM     19  H   UNL     1       0.185  12.257  18.981  0.00  0.00    +0.000 HD
BRANCH  18  20
ATOM     20  S   UNL     1       0.307  10.641  20.597  0.00  0.00    +0.000 S 
ATOM     21  O   UNL     1       1.235  11.499  21.294  0.00  0.00    +0.000 OA
ATOM     22  O   UNL     1      -0.781   9.980  21.303  0.00  0.00    +0.000 OA
BRANCH  20  23
ATOM     23  C   UNL     1       1.224   9.395  19.767  0.00  0.00    +0.000 A 
ATOM     24  C   UNL     1       1.527   9.495  18.413  0.00  0.00    +0.000 A 
ATOM     25  C   UNL     1       2.135   8.409  17.788  0.00  0.00    +0.000 A 
ATOM     26  C   UNL     1       2.440   7.277  18.545  0.00  0.00    +0.000 A 
ATOM     27  N   UNL     1       2.195   7.201  19.880  0.00  0.00    +0.000 NA
ATOM     28  C   UNL     1       1.605   8.267  20.468  0.00  0.00    +0.000 A 
BRANCH  26  29
ATOM     29  C   UNL     1       2.981   6.041  17.969  0.00  0.00    +0.000 A 
ATOM     30  C   UNL     1       4.179   5.871  17.296  0.00  0.00    +0.000 A 
ATOM     31  C   UNL     1       4.412   4.524  16.869  0.00  0.00    +0.000 A 
ATOM     32  C   UNL     1       5.626   4.056  16.144  0.00  0.00    +0.000 C 
ATOM     33  C   UNL     1       3.348   3.717  17.218  0.00  0.00    +0.000 A 
ATOM     34  S   UNL     1       2.120   4.561  18.049  0.00  0.00    +0.000 S 
ENDBRANCH  26  29
ENDBRANCH  20  23
ENDBRANCH  18  20
ENDBRANCH   6  18
TORSDOF 6
ENDMDL
MODEL 2
REMARK VINA RESULT:      -8.0      0.965      1.091
REMARK  Name = 
REMARK  10 active torsions:
REMARK  status: ('A' for Active; 'I' for Inactive)
REMARK    1  A    between atoms: C_1  and  O_2
REMARK    2  A    between atoms: O_2  and  C_3
REMARK    3  A    between atoms: C_6  and  N_7
REMARK    4  A    between atoms: C_9  and  C_10
REMARK    5  A    between atoms: C_12  and  C_13
REMARK    6  A    between atoms: C_16  and  N_17
REMARK    7  A    between atoms: N_17  and  S_18
REMARK    8  A    between atoms: S_18  and  C_21
REMARK    9  A    between atoms: C_24  and  C_25
REMARK   10  A    between atoms: C_27  and  C_28
REMARK                            x       y       z     vdW  Elec       q    Type
REMARK                         _______ _______ _______ _____ _____    ______ ____
ROOT
ATOM      1  C   UNL     1      -2.812  11.037  17.798  0.00  0.00    +0.000 A 
ATOM      2  C   UNL     1      -4.148  11.418  17.921  0.00  0.00    +0.000 A 
ATOM      3  C   UNL     1      -4.572  12.163  19.018  0.00  0.00    +0.000 A 
ATOM      4  C   UNL     1      -3.679  12.600  19.998  0.00  0.00    +0.000 A 
ATOM      5  C   UNL     1      -2.322  12.295  19.814  0.00  0.00    +0.000 A 
ATOM      6  C   UNL     1      -1.887  11.504  18.745  0.00  0.00    +0.000 A 
ENDROOT
BRANCH   4   7
ATOM      7  N   UNL     1      -4.128  13.262  21.113  0.00  0.00    +0.000 N 
ATOM      8  C   UNL     1      -4.976  14.458  21.033  0.00  0.00    +0.000 C 
ATOM      9  C   UNL     1      -6.188  14.284  21.988  0.00  0.00    +0.000 C 
ATOM     10  C   UNL     1      -7.070  15.529  21.959  0.00  0.00    +0.000 C 
ATOM     11  N   UNL     1      -5.777  14.000  23.383  0.00  0.00    +0.000 NA
ATOM     12  C   UNL     1      -4.886  12.812  23.416  0.00  0.00    +0.000 C 
ATOM     13  C   UNL     1      -4.408  12.596  24.848  0.00  0.00    +0.000 C 
ATOM     14  C   UNL     1      -3.666  12.935  22.465  0.00  0.00    +0.000 C 
ATOM     15  H   UNL     1      -6.607  13.806  23.941  0.00  0.00    +0.000 HD
ENDBRANCH   4   7
BRANCH   1  17
ATOM     16  C   UNL     1      -2.780  10.581  15.482  0.00  0.00    +0.000 C 
ATOM     17  O   UNL     1      -2.358  10.212  16.798  0.00  0.00    +0.000 OA
ENDBRANCH   1  17
BRANCH   6  18
ATOM     18  N   UNL     1      -0.492  11.190  18.663  0.00  0.00    +0.000 N 
ATOM     19  H   UNL     1       0.092  11.866  18.171  0.00  0.00    +0.000 HD
BRANCH  18  20
ATOM     20  S   UNL     1       0.273  10.531  20.022  0.00  0.00    +0.000 S 
ATOM     21  O   UNL     1       1.110  11.535  20.635  0.00  0.00    +0.000 OA
ATOM     22  O   UNL     1      -0.762   9.848  20.783  0.00  0.00    +0.000 OA
BRANCH  20  23
ATOM     23  C   UNL     1       1.311   9.298  19.326  0.00  0.00    +0.000 A 
ATOM     24  C   UNL     1       1.755   9.378  18.010  0.00  0.00    +0.000 A 
ATOM     25  C   UNL     1       2.459   8.299  17.481  0.00  0.00    +0.000 A 
ATOM     26  C   UNL     1       2.714   7.195  18.295  0.00  0.00    +0.000 A 
ATOM     27  N   UNL     1       2.329   7.139  19.598  0.00  0.00    +0.000 NA
ATOM     28  C   UNL     1       1.647   8.198  20.092  0.00  0.00    +0.000 A 
BRANCH  26  29
ATOM     29  C   UNL     1       3.350   5.964  17.811  0.00  0.00    +0.000 A 
ATOM     30  C   UNL     1       4.497   5.846  17.043  0.00  0.00    +0.000 A 
ATOM     31  C   UNL     1       4.855   4.491  16.751  0.00  0.00    +0.000 A 
ATOM     32  C   UNL     1       6.049   4.074  15.963  0.00  0.00    +0.000 C 
ATOM     33  C   UNL     1       3.933   3.620  17.296  0.00  0.00    +0.000 A 
ATOM     34  S   UNL     1       2.688   4.419  18.147  0.00  0.00    +0.000 S 
ENDBRANCH  26  29
ENDBRANCH  20  23
ENDBRANCH  18  20
ENDBRANCH   6  18
TORSDOF 6
ENDMDL
MODEL 3
REMARK VINA RESULT:      -7.9      5.215      8.472
REMARK  Name = 
REMARK  10 active torsions:
REMARK  status: ('A' for Active; 'I' for Inactive)
REMARK    1  A    between atoms: C_1  and  O_2
REMARK    2  A    between atoms: O_2  and  C_3
REMARK    3  A    between atoms: C_6  and  N_7
REMARK    4  A    between atoms: C_9  and  C_10
REMARK    5  A    between atoms: C_12  and  C_13
REMARK    6  A    between atoms: C_16  and  N_17
REMARK    7  A    between atoms: N_17  and  S_18
REMARK    8  A    between atoms: S_18  and  C_21
REMARK    9  A    between atoms: C_24  and  C_25
REMARK   10  A    between atoms: C_27  and  C_28
REMARK                            x       y       z     vdW  Elec       q    Type
REMARK                         _______ _______ _______ _____ _____    ______ ____
ROOT
ATOM      1  C   UNL     1       3.015   3.746  19.816  0.00  0.00    +0.000 A 
ATOM      2  C   UNL     1       1.707   4.028  20.211  0.00  0.00    +0.000 A 
ATOM      3  C   UNL     1       1.288   5.345  20.378  0.00  0.00    +0.000 A 
ATOM      4  C   UNL     1       2.130   6.424  20.106  0.00  0.00    +0.000 A 
ATOM      5  C   UNL     1       3.412   6.132  19.615  0.00  0.00    +0.000 A 
ATOM      6  C   UNL     1       3.867   4.814  19.491  0.00  0.00    +0.000 A 
ENDROOT
BRANCH   4   7
ATOM      7  N   UNL     1       1.727   7.712  20.354  0.00  0.00    +0.000 N 
ATOM      8  C   UNL     1       1.710   8.748  19.314  0.00  0.00    +0.000 C 
ATOM      9  C   UNL     1       0.336   9.471  19.343  0.00  0.00    +0.000 C 
ATOM     10  C   UNL     1       0.299  10.584  18.298  0.00  0.00    +0.000 C 
ATOM     11  N   UNL     1       0.018  10.034  20.676  0.00  0.00    +0.000 NA
ATOM     12  C   UNL     1       0.089   8.965  21.705  0.00  0.00    +0.000 C 
ATOM     13  C   UNL     1      -0.155   9.587  23.076  0.00  0.00    +0.000 C 
ATOM     14  C   UNL     1       1.441   8.204  21.705  0.00  0.00    +0.000 C 
ATOM     15  H   UNL     1      -0.928  10.414  20.660  0.00  0.00    +0.000 HD
ENDBRANCH   4   7
BRANCH   1  17
ATOM     16  C   UNL     1       3.222   1.784  18.521  0.00  0.00    +0.000 C 
ATOM     17  O   UNL     1       3.516   2.470  19.742  0.00  0.00    +0.000 OA
ENDBRANCH   1  17
BRANCH   6  18
ATOM     18  N   UNL     1       5.209   4.604  19.037  0.00  0.00    +0.000 N 
ATOM     19  H   UNL     1       5.637   3.716  19.299  0.00  0.00    +0.000 HD
BRANCH  18  20
ATOM     20  S   UNL     1       5.622   5.093  17.471  0.00  0.00    +0.000 S 
ATOM     21  O   UNL     1       6.330   4.025  16.805  0.00  0.00    +0.000 OA
ATOM     22  O   UNL     1       4.419   5.673  16.892  0.00  0.00    +0.000 OA
BRANCH  20  23
ATOM     23  C   UNL     1       6.751   6.407  17.757  0.00  0.00    +0.000 A 
ATOM     24  C   UNL     1       7.752   6.311  18.717  0.00  0.00    +0.000 A 
ATOM     25  C   UNL     1       8.523   7.438  18.989  0.00  0.00    +0.000 A 
ATOM     26  C   UNL     1       8.279   8.611  18.272  0.00  0.00    +0.000 A 
ATOM     27  N   UNL     1       7.337   8.690  17.294  0.00  0.00    +0.000 NA
ATOM     28  C   UNL     1       6.601   7.583  17.046  0.00  0.00    +0.000 A 
BRANCH  26  29
ATOM     29  C   UNL     1       8.954   9.884  18.550  0.00  0.00    +0.000 A 
ATOM     30  C   UNL     1       9.529  10.755  17.640  0.00  0.00    +0.000 A 
ATOM     31  C   UNL     1      10.100  11.922  18.245  0.00  0.00    +0.000 A 
ATOM     32  C   UNL     1      10.763  13.030  17.504  0.00  0.00    +0.000 C 
ATOM     33  C   UNL     1       9.956  11.873  19.617  0.00  0.00    +0.000 A 
ATOM     34  S   UNL     1       9.142  10.470  20.150  0.00  0.00    +0.000 S 
ENDBRANCH  26  29
ENDBRANCH  20  23
ENDBRANCH  18  20
ENDBRANCH   6  18
TORSDOF 6
ENDMDL
MODEL 4
REMARK VINA RESULT:      -7.8      1.050      1.858
REMARK  Name = 
REMARK  10 active torsions:
REMARK  status: ('A' for Active; 'I' for Inactive)
REMARK    1  A    between atoms: C_1  and  O_2
REMARK    2  A    between atoms: O_2  and  C_3
REMARK    3  A    between atoms: C_6  and  N_7
REMARK    4  A    between atoms: C_9  and  C_10
REMARK    5  A    between atoms: C_12  and  C_13
REMARK    6  A    between atoms: C_16  and  N_17
REMARK    7  A    between atoms: N_17  and  S_18
REMARK    8  A    between atoms: S_18  and  C_21
REMARK    9  A    between atoms: C_24  and  C_25
REMARK   10  A    between atoms: C_27  and  C_28
REMARK                            x       y       z     vdW  Elec       q    Type
REMARK                         _______ _______ _______ _____ _____    ______ ____
ROOT
ATOM      1  C   UNL     1      -1.923  11.435  19.060  0.00  0.00    +0.000 A 
ATOM      2  C   UNL     1      -3.180  12.039  19.091  0.00  0.00    +0.000 A 
ATOM      3  C   UNL     1      -3.664  12.605  20.267  0.00  0.00    +0.000 A 
ATOM      4  C   UNL     1      -2.899  12.640  21.434  0.00  0.00    +0.000 A 
ATOM      5  C   UNL     1      -1.599  12.117  21.366  0.00  0.00    +0.000 A 
ATOM      6  C   UNL     1      -1.116  11.499  20.207  0.00  0.00    +0.000 A 
ENDROOT
BRANCH   4   7
ATOM      7  N   UNL     1      -3.423  13.128  22.604  0.00  0.00    +0.000 N 
ATOM      8  C   UNL     1      -2.584  13.494  23.752  0.00  0.00    +0.000 C 
ATOM      9  C   UNL     1      -3.000  14.902  24.254  0.00  0.00    +0.000 C 
ATOM     10  C   UNL     1      -2.173  15.297  25.475  0.00  0.00    +0.000 C 
ATOM     11  N   UNL     1      -4.442  14.986  24.586  0.00  0.00    +0.000 NA
ATOM     12  C   UNL     1      -5.254  14.567  23.415  0.00  0.00    +0.000 C 
ATOM     13  C   UNL     1      -6.727  14.577  23.810  0.00  0.00    +0.000 C 
ATOM     14  C   UNL     1      -4.864  13.168  22.869  0.00  0.00    +0.000 C 
ATOM     15  H   UNL     1      -4.674  15.950  24.820  0.00  0.00    +0.000 HD
ENDBRANCH   4   7
BRANCH   1  17
ATOM     16  C   UNL     1      -2.337  10.724  16.848  0.00  0.00    +0.000 C 
ATOM     17  O   UNL     1      -1.440  10.765  17.963  0.00  0.00    +0.000 OA
ENDBRANCH   1  17
BRANCH   6  18
ATOM     18  N   UNL     1       0.202  10.939  20.241  0.00  0.00    +0.000 N 
ATOM     19  H   UNL     1       0.971  11.606  20.297  0.00  0.00    +0.000 HD
BRANCH  18  20
ATOM     20  S   UNL     1       0.471   9.551  21.171  0.00  0.00    +0.000 S 
ATOM     21  O   UNL     1       1.222   9.903  22.353  0.00  0.00    +0.000 OA
ATOM     22  O   UNL     1      -0.812   8.870  21.270  0.00  0.00    +0.000 OA
BRANCH  20  23
ATOM     23  C   UNL     1       1.500   8.578  20.133  0.00  0.00    +0.000 A 
ATOM     24  C   UNL     1       1.836   8.992  18.849  0.00  0.00    +0.000 A 
ATOM     25  C   UNL     1       2.540   8.111  18.030  0.00  0.00    +0.000 A 
ATOM     26  C   UNL     1       2.901   6.862  18.537  0.00  0.00    +0.000 A 
ATOM     27  N   UNL     1       2.620   6.478  19.811  0.00  0.00    +0.000 NA
ATOM     28  C   UNL     1       1.937   7.349  20.588  0.00  0.00    +0.000 A 
BRANCH  26  29
ATOM     29  C   UNL     1       3.546   5.819  17.731  0.00  0.00    +0.000 A 
ATOM     30  C   UNL     1       4.587   5.965  16.830  0.00  0.00    +0.000 A 
ATOM     31  C   UNL     1       4.991   4.736  16.215  0.00  0.00    +0.000 A 
ATOM     32  C   UNL     1       6.095   4.599  15.225  0.00  0.00    +0.000 C 
ATOM     33  C   UNL     1       4.206   3.692  16.663  0.00  0.00    +0.000 A 
ATOM     34  S   UNL     1       3.035   4.184  17.802  0.00  0.00    +0.000 S 
ENDBRANCH  26  29
ENDBRANCH  20  23
ENDBRANCH  18  20
ENDBRANCH   6  18
TORSDOF 6
ENDMDL
MODEL 5
REMARK VINA RESULT:      -7.8      1.453      2.153
REMARK  Name = 
REMARK  10 active torsions:
REMARK  status: ('A' for Active; 'I' for Inactive)
REMARK    1  A    between atoms: C_1  and  O_2
REMARK    2  A    between atoms: O_2  and  C_3
REMARK    3  A    between atoms: C_6  and  N_7
REMARK    4  A    between atoms: C_9  and  C_10
REMARK    5  A    between atoms: C_12  and  C_13
REMARK    6  A    between atoms: C_16  and  N_17
REMARK    7  A    between atoms: N_17  and  S_18
REMARK    8  A    between atoms: S_18  and  C_21
REMARK    9  A    between atoms: C_24  and  C_25
REMARK   10  A    between atoms: C_27  and  C_28
REMARK                            x       y       z     vdW  Elec       q    Type
REMARK                         _______ _______ _______ _____ _____    ______ ____
ROOT
ATOM      1  C   UNL     1      -2.946  10.832  17.319  0.00  0.00    +0.000 A 
ATOM      2  C   UNL     1      -4.313  11.071  17.462  0.00  0.00    +0.000 A 
ATOM      3  C   UNL     1      -4.796  11.770  18.565  0.00  0.00    +0.000 A 
ATOM      4  C   UNL     1      -3.940  12.303  19.530  0.00  0.00    +0.000 A 
ATOM      5  C   UNL     1      -2.561  12.141  19.325  0.00  0.00    +0.000 A 
ATOM      6  C   UNL     1      -2.061  11.397  18.250  0.00  0.00    +0.000 A 
ENDROOT
BRANCH   4   7
ATOM      7  N   UNL     1      -4.438  12.917  20.651  0.00  0.00    +0.000 N 
ATOM      8  C   UNL     1      -3.715  12.935  21.928  0.00  0.00    +0.000 C 
ATOM      9  C   UNL     1      -3.688  14.388  22.474  0.00  0.00    +0.000 C 
ATOM     10  C   UNL     1      -2.977  14.436  23.824  0.00  0.00    +0.000 C 
ATOM     11  N   UNL     1      -5.045  14.970  22.609  0.00  0.00    +0.000 NA
ATOM     12  C   UNL     1      -5.758  14.893  21.309  0.00  0.00    +0.000 C 
ATOM     13  C   UNL     1      -7.179  15.416  21.497  0.00  0.00    +0.000 C 
ATOM     14  C   UNL     1      -5.798  13.460  20.716  0.00  0.00    +0.000 C 
ATOM     15  H   UNL     1      -4.961  15.948  22.883  0.00  0.00    +0.000 HD
ENDBRANCH   4   7
BRANCH   1  17
ATOM     16  C   UNL     1      -2.876  10.398  15.000  0.00  0.00    +0.000 C 
ATOM     17  O   UNL     1      -2.423  10.056  16.314  0.00  0.00    +0.000 OA
ENDBRANCH   1  17
BRANCH   6  18
ATOM     18  N   UNL     1      -0.642  11.232  18.147  0.00  0.00    +0.000 N 
ATOM     19  H   UNL     1      -0.171  11.817  17.457  0.00  0.00    +0.000 HD
BRANCH  18  20
ATOM     20  S   UNL     1       0.258  11.043  19.568  0.00  0.00    +0.000 S 
ATOM     21  O   UNL     1       1.170  12.153  19.710  0.00  0.00    +0.000 OA
ATOM     22  O   UNL     1      -0.696  10.714  20.617  0.00  0.00    +0.000 OA
BRANCH  20  23
ATOM     23  C   UNL     1       1.198   9.596  19.245  0.00  0.00    +0.000 A 
ATOM     24  C   UNL     1       1.755   9.354  17.993  0.00  0.00    +0.000 A 
ATOM     25  C   UNL     1       2.369   8.125  17.766  0.00  0.00    +0.000 A 
ATOM     26  C   UNL     1       2.425   7.196  18.807  0.00  0.00    +0.000 A 
ATOM     27  N   UNL     1       1.930   7.453  20.047  0.00  0.00    +0.000 NA
ATOM     28  C   UNL     1       1.339   8.653  20.245  0.00  0.00    +0.000 A 
BRANCH  26  29
ATOM     29  C   UNL     1       2.950   5.835  18.647  0.00  0.00    +0.000 A 
ATOM     30  C   UNL     1       2.275   4.712  18.198  0.00  0.00    +0.000 A 
ATOM     31  C   UNL     1       3.088   3.534  18.151  0.00  0.00    +0.000 A 
ATOM     32  C   UNL     1       2.625   2.195  17.690  0.00  0.00    +0.000 C 
ATOM     33  C   UNL     1       4.363   3.810  18.602  0.00  0.00    +0.000 A 
ATOM     34  S   UNL     1       4.570   5.444  19.048  0.00  0.00    +0.000 S 
ENDBRANCH  26  29
ENDBRANCH  20  23
ENDBRANCH  18  20
ENDBRANCH   6  18
TORSDOF 6
ENDMDL
MODEL 6
REMARK VINA RESULT:      -7.7      2.207      2.924
REMARK  Name = 
REMARK  10 active torsions:
REMARK  status: ('A' for Active; 'I' for Inactive)
REMARK    1  A    between atoms: C_1  and  O_2
REMARK    2  A    between atoms: O_2  and  C_3
REMARK    3  A    between atoms: C_6  and  N_7
REMARK    4  A    between atoms: C_9  and  C_10
REMARK    5  A    between atoms: C_12  and  C_13
REMARK    6  A    between atoms: C_16  and  N_17
REMARK    7  A    between atoms: N_17  and  S_18
REMARK    8  A    between atoms: S_18  and  C_21
REMARK    9  A    between atoms: C_24  and  C_25
REMARK   10  A    between atoms: C_27  and  C_28
REMARK                            x       y       z     vdW  Elec       q    Type
REMARK                         _______ _______ _______ _____ _____    ______ ____
ROOT
ATOM      1  C   UNL     1       0.378  12.750  20.872  0.00  0.00    +0.000 A 
ATOM      2  C   UNL     1       0.276  14.008  21.466  0.00  0.00    +0.000 A 
ATOM      3  C   UNL     1      -0.766  14.292  22.345  0.00  0.00    +0.000 A 
ATOM      4  C   UNL     1      -1.706  13.326  22.705  0.00  0.00    +0.000 A 
ATOM      5  C   UNL     1      -1.539  12.037  22.177  0.00  0.00    +0.000 A 
ATOM      6  C   UNL     1      -0.528  11.748  21.254  0.00  0.00    +0.000 A 
ENDROOT
BRANCH   4   7
ATOM      7  N   UNL     1      -2.773  13.647  23.507  0.00  0.00    +0.000 N 
ATOM      8  C   UNL     1      -2.758  14.802  24.414  0.00  0.00    +0.000 C 
ATOM      9  C   UNL     1      -4.063  15.619  24.213  0.00  0.00    +0.000 C 
ATOM     10  C   UNL     1      -4.099  16.807  25.172  0.00  0.00    +0.000 C 
ATOM     11  N   UNL     1      -5.282  14.798  24.398  0.00  0.00    +0.000 NA
ATOM     12  C   UNL     1      -5.238  13.618  23.496  0.00  0.00    +0.000 C 
ATOM     13  C   UNL     1      -6.459  12.745  23.769  0.00  0.00    +0.000 C 
ATOM     14  C   UNL     1      -3.944  12.778  23.651  0.00  0.00    +0.000 C 
ATOM     15  H   UNL     1      -6.100  15.360  24.166  0.00  0.00    +0.000 HD
ENDBRANCH   4   7
BRANCH   1  17
ATOM     16  C   UNL     1       2.496  13.256  19.962  0.00  0.00    +0.000 C 
ATOM     17  O   UNL     1       1.316  12.447  19.916  0.00  0.00    +0.000 OA
ENDBRANCH   1  17
BRANCH   6  18
ATOM     18  N   UNL     1      -0.463  10.421  20.719  0.00  0.00    +0.000 N 
ATOM     19  H   UNL     1      -0.211  10.346  19.734  0.00  0.00    +0.000 HD
BRANCH  18  20
ATOM     20  S   UNL     1       0.226   9.198  21.665  0.00  0.00    +0.000 S 
ATOM     21  O   UNL     1       1.029   9.792  22.707  0.00  0.00    +0.000 OA
ATOM     22  O   UNL     1      -0.851   8.270  21.982  0.00  0.00    +0.000 OA
BRANCH  20  23
ATOM     23  C   UNL     1       1.298   8.388  20.536  0.00  0.00    +0.000 A 
ATOM     24  C   UNL     1       1.616   8.949  19.304  0.00  0.00    +0.000 A 
ATOM     25  C   UNL     1       2.359   8.192  18.401  0.00  0.00    +0.000 A 
ATOM     26  C   UNL     1       2.777   6.914  18.776  0.00  0.00    +0.000 A 
ATOM     27  N   UNL     1       2.514   6.386  20.001  0.00  0.00    +0.000 NA
ATOM     28  C   UNL     1       1.792   7.139  20.862  0.00  0.00    +0.000 A 
BRANCH  26  29
ATOM     29  C   UNL     1       3.469   5.992  17.868  0.00  0.00    +0.000 A 
ATOM     30  C   UNL     1       4.391   6.304  16.882  0.00  0.00    +0.000 A 
ATOM     31  C   UNL     1       4.887   5.159  16.178  0.00  0.00    +0.000 A 
ATOM     32  C   UNL     1       5.899   5.202  15.086  0.00  0.00    +0.000 C 
ATOM     33  C   UNL     1       4.290   4.007  16.649  0.00  0.00    +0.000 A 
ATOM     34  S   UNL     1       3.181   4.303  17.911  0.00  0.00    +0.000 S 
ENDBRANCH  26  29
ENDBRANCH  20  23
ENDBRANCH  18  20
ENDBRANCH   6  18
TORSDOF 6
ENDMDL
MODEL 7
REMARK VINA RESULT:      -7.7      2.795      4.397
REMARK  Name = 
REMARK  10 active torsions:
REMARK  status: ('A' for Active; 'I' for Inactive)
REMARK    1  A    between atoms: C_1  and  O_2
REMARK    2  A    between atoms: O_2  and  C_3
REMARK    3  A    between atoms: C_6  and  N_7
REMARK    4  A    between atoms: C_9  and  C_10
REMARK    5  A    between atoms: C_12  and  C_13
REMARK    6  A    between atoms: C_16  and  N_17
REMARK    7  A    between atoms: N_17  and  S_18
REMARK    8  A    between atoms: S_18  and  C_21
REMARK    9  A    between atoms: C_24  and  C_25
REMARK   10  A    between atoms: C_27  and  C_28
REMARK                            x       y       z     vdW  Elec       q    Type
REMARK                         _______ _______ _______ _____ _____    ______ ____
ROOT
ATOM      1  C   UNL     1       0.178  12.872  20.820  0.00  0.00    +0.000 A 
ATOM      2  C   UNL     1      -0.954  13.655  20.595  0.00  0.00    +0.000 A 
ATOM      3  C   UNL     1      -2.016  13.163  19.841  0.00  0.00    +0.000 A 
ATOM      4  C   UNL     1      -2.015  11.863  19.333  0.00  0.00    +0.000 A 
ATOM      5  C   UNL     1      -0.916  11.050  19.647  0.00  0.00    +0.000 A 
ATOM      6  C   UNL     1       0.183  11.545  20.360  0.00  0.00    +0.000 A 
ENDROOT
BRANCH   4   7
ATOM      7  N   UNL     1      -3.033  11.423  18.524  0.00  0.00    +0.000 N 
ATOM      8  C   UNL     1      -4.445  11.713  18.803  0.00  0.00    +0.000 C 
ATOM      9  C   UNL     1      -5.116  12.251  17.511  0.00  0.00    +0.000 C 
ATOM     10  C   UNL     1      -6.598  12.525  17.756  0.00  0.00    +0.000 C 
ATOM     11  N   UNL     1      -4.968  11.324  16.365  0.00  0.00    +0.000 NA
ATOM     12  C   UNL     1      -3.530  11.021  16.143  0.00  0.00    +0.000 C 
ATOM     13  C   UNL     1      -3.412   9.998  15.017  0.00  0.00    +0.000 C 
ATOM     14  C   UNL     1      -2.813  10.493  17.413  0.00  0.00    +0.000 C 
ATOM     15  H   UNL     1      -5.345  11.766  15.528  0.00  0.00    +0.000 HD
ENDBRANCH   4   7
BRANCH   1  17
ATOM     16  C   UNL     1       2.128  14.192  20.662  0.00  0.00    +0.000 C 
ATOM     17  O   UNL     1       1.298  13.341  21.460  0.00  0.00    +0.000 OA
ENDBRANCH   1  17
BRANCH   6  18
ATOM     18  N   UNL     1       1.290  10.666  20.588  0.00  0.00    +0.000 N 
ATOM     19  H   UNL     1       2.183  11.113  20.792  0.00  0.00    +0.000 HD
BRANCH  18  20
ATOM     20  S   UNL     1       1.038   9.263  21.500  0.00  0.00    +0.000 S 
ATOM     21  O   UNL     1       1.883   9.292  22.670  0.00  0.00    +0.000 OA
ATOM     22  O   UNL     1      -0.404   9.105  21.618  0.00  0.00    +0.000 OA
BRANCH  20  23
ATOM     23  C   UNL     1       1.617   7.994  20.433  0.00  0.00    +0.000 A 
ATOM     24  C   UNL     1       1.750   6.681  20.869  0.00  0.00    +0.000 A 
ATOM     25  C   UNL     1       2.344   5.755  20.015  0.00  0.00    +0.000 A 
ATOM     26  C   UNL     1       2.759   6.172  18.750  0.00  0.00    +0.000 A 
ATOM     27  N   UNL     1       2.578   7.443  18.301  0.00  0.00    +0.000 NA
ATOM     28  C   UNL     1       1.998   8.326  19.147  0.00  0.00    +0.000 A 
BRANCH  26  29
ATOM     29  C   UNL     1       3.491   5.311  17.814  0.00  0.00    +0.000 A 
ATOM     30  C   UNL     1       4.473   5.682  16.911  0.00  0.00    +0.000 A 
ATOM     31  C   UNL     1       4.995   4.587  16.149  0.00  0.00    +0.000 A 
ATOM     32  C   UNL     1       6.070   4.696  15.124  0.00  0.00    +0.000 C 
ATOM     33  C   UNL     1       4.356   3.413  16.492  0.00  0.00    +0.000 A 
ATOM     34  S   UNL     1       3.178   3.629  17.707  0.00  0.00    +0.000 S 
ENDBRANCH  26  29
ENDBRANCH  20  23
ENDBRANCH  18  20
ENDBRANCH   6  18
TORSDOF 6
ENDMDL
MODEL 8
REMARK VINA RESULT:      -7.7      5.217      8.440
REMARK  Name = 
REMARK  10 active torsions:
REMARK  status: ('A' for Active; 'I' for Inactive)
REMARK    1  A    between atoms: C_1  and  O_2
REMARK    2  A    between atoms: O_2  and  C_3
REMARK    3  A    between atoms: C_6  and  N_7
REMARK    4  A    between atoms: C_9  and  C_10
REMARK    5  A    between atoms: C_12  and  C_13
REMARK    6  A    between atoms: C_16  and  N_17
REMARK    7  A    between atoms: N_17  and  S_18
REMARK    8  A    between atoms: S_18  and  C_21
REMARK    9  A    between atoms: C_24  and  C_25
REMARK   10  A    between atoms: C_27  and  C_28
REMARK                            x       y       z     vdW  Elec       q    Type
REMARK                         _______ _______ _______ _____ _____    ______ ____
ROOT
ATOM      1  C   UNL     1       2.876   4.197  18.486  0.00  0.00    +0.000 A 
ATOM      2  C   UNL     1       1.807   4.335  19.370  0.00  0.00    +0.000 A 
ATOM      3  C   UNL     1       1.446   5.591  19.851  0.00  0.00    +0.000 A 
ATOM      4  C   UNL     1       2.096   6.753  19.431  0.00  0.00    +0.000 A 
ATOM      5  C   UNL     1       3.106   6.612  18.468  0.00  0.00    +0.000 A 
ATOM      6  C   UNL     1       3.515   5.353  18.012  0.00  0.00    +0.000 A 
ENDROOT
BRANCH   4   7
ATOM      7  N   UNL     1       1.782   7.971  19.978  0.00  0.00    +0.000 N 
ATOM      8  C   UNL     1       1.916   9.229  19.232  0.00  0.00    +0.000 C 
ATOM      9  C   UNL     1       0.606  10.048  19.383  0.00  0.00    +0.000 C 
ATOM     10  C   UNL     1       0.726  11.383  18.652  0.00  0.00    +0.000 C 
ATOM     11  N   UNL     1       0.247  10.292  20.800  0.00  0.00    +0.000 NA
ATOM     12  C   UNL     1       0.165   9.000  21.529  0.00  0.00    +0.000 C 
ATOM     13  C   UNL     1      -0.117   9.285  23.001  0.00  0.00    +0.000 C 
ATOM     14  C   UNL     1       1.449   8.139  21.395  0.00  0.00    +0.000 C 
ATOM     15  H   UNL     1      -0.662  10.751  20.839  0.00  0.00    +0.000 HD
ENDBRANCH   4   7
BRANCH   1  17
ATOM     16  C   UNL     1       2.928   1.868  18.867  0.00  0.00    +0.000 C 
ATOM     17  O   UNL     1       3.346   2.977  18.065  0.00  0.00    +0.000 OA
ENDBRANCH   1  17
BRANCH   6  18
ATOM     18  N   UNL     1       4.594   5.295  17.071  0.00  0.00    +0.000 N 
ATOM     19  H   UNL     1       4.685   6.093  16.443  0.00  0.00    +0.000 HD
BRANCH  18  20
ATOM     20  S   UNL     1       6.090   4.695  17.587  0.00  0.00    +0.000 S 
ATOM     21  O   UNL     1       5.928   4.033  18.860  0.00  0.00    +0.000 OA
ATOM     22  O   UNL     1       6.667   3.999  16.446  0.00  0.00    +0.000 OA
BRANCH  20  23
ATOM     23  C   UNL     1       7.030   6.155  17.840  0.00  0.00    +0.000 A 
ATOM     24  C   UNL     1       7.941   6.262  18.885  0.00  0.00    +0.000 A 
ATOM     25  C   UNL     1       8.551   7.494  19.112  0.00  0.00    +0.000 A 
ATOM     26  C   UNL     1       8.244   8.563  18.269  0.00  0.00    +0.000 A 
ATOM     27  N   UNL     1       7.396   8.445  17.213  0.00  0.00    +0.000 NA
ATOM     28  C   UNL     1       6.816   7.240  17.011  0.00  0.00    +0.000 A 
BRANCH  26  29
ATOM     29  C   UNL     1       8.743   9.927  18.480  0.00  0.00    +0.000 A 
ATOM     30  C   UNL     1       9.699  10.350  19.389  0.00  0.00    +0.000 A 
ATOM     31  C   UNL     1       9.965  11.756  19.329  0.00  0.00    +0.000 A 
ATOM     32  C   UNL     1      10.958  12.474  20.176  0.00  0.00    +0.000 C 
ATOM     33  C   UNL     1       9.165  12.358  18.379  0.00  0.00    +0.000 A 
ATOM     34  S   UNL     1       8.141  11.254  17.577  0.00  0.00    +0.000 S 
ENDBRANCH  26  29
ENDBRANCH  20  23
ENDBRANCH  18  20
ENDBRANCH   6  18
TORSDOF 6
ENDMDL
MODEL 9
REMARK VINA RESULT:      -7.6      2.636     10.023
REMARK  Name = 
REMARK  10 active torsions:
REMARK  status: ('A' for Active; 'I' for Inactive)
REMARK    1  A    between atoms: C_1  and  O_2
REMARK    2  A    between atoms: O_2  and  C_3
REMARK    3  A    between atoms: C_6  and  N_7
REMARK    4  A    between atoms: C_9  and  C_10
REMARK    5  A    between atoms: C_12  and  C_13
REMARK    6  A    between atoms: C_16  and  N_17
REMARK    7  A    between atoms: N_17  and  S_18
REMARK    8  A    between atoms: S_18  and  C_21
REMARK    9  A    between atoms: C_24  and  C_25
REMARK   10  A    between atoms: C_27  and  C_28
REMARK                            x       y       z     vdW  Elec       q    Type
REMARK                         _______ _______ _______ _____ _____    ______ ____
ROOT
ATOM      1  C   UNL     1       1.410  10.058  18.912  0.00  0.00    +0.000 A 
ATOM      2  C   UNL     1       1.666   9.243  17.810  0.00  0.00    +0.000 A 
ATOM      3  C   UNL     1       2.042   7.915  17.986  0.00  0.00    +0.000 A 
ATOM      4  C   UNL     1       2.121   7.336  19.253  0.00  0.00    +0.000 A 
ATOM      5  C   UNL     1       1.767   8.136  20.350  0.00  0.00    +0.000 A 
ATOM      6  C   UNL     1       1.437   9.488  20.195  0.00  0.00    +0.000 A 
ENDROOT
BRANCH   4   7
ATOM      7  N   UNL     1       2.572   6.049  19.413  0.00  0.00    +0.000 N 
ATOM      8  C   UNL     1       2.169   5.206  20.545  0.00  0.00    +0.000 C 
ATOM      9  C   UNL     1       1.717   3.822  20.009  0.00  0.00    +0.000 C 
ATOM     10  C   UNL     1       1.329   2.905  21.166  0.00  0.00    +0.000 C 
ATOM     11  N   UNL     1       2.757   3.163  19.184  0.00  0.00    +0.000 NA
ATOM     12  C   UNL     1       3.169   4.064  18.077  0.00  0.00    +0.000 C 
ATOM     13  C   UNL     1       4.301   3.400  17.299  0.00  0.00    +0.000 C 
ATOM     14  C   UNL     1       3.617   5.467  18.565  0.00  0.00    +0.000 C 
ATOM     15  H   UNL     1       2.374   2.306  18.788  0.00  0.00    +0.000 HD
ENDBRANCH   4   7
BRANCH   1  17
ATOM     16  C   UNL     1       2.245  12.192  18.345  0.00  0.00    +0.000 C 
ATOM     17  O   UNL     1       1.144  11.402  18.805  0.00  0.00    +0.000 OA
ENDBRANCH   1  17
BRANCH   6  18
ATOM     18  N   UNL     1       1.144  10.249  21.372  0.00  0.00    +0.000 N 
ATOM     19  H   UNL     1       1.208  11.263  21.278  0.00  0.00    +0.000 HD
BRANCH  18  20
ATOM     20  S   UNL     1      -0.147   9.764  22.353  0.00  0.00    +0.000 S 
ATOM     21  O   UNL     1      -0.786   8.608  21.768  0.00  0.00    +0.000 OA
ATOM     22  O   UNL     1       0.364   9.731  23.715  0.00  0.00    +0.000 OA
BRANCH  20  23
ATOM     23  C   UNL     1      -1.254  11.121  22.241  0.00  0.00    +0.000 A 
ATOM     24  C   UNL     1      -2.008  11.537  23.334  0.00  0.00    +0.000 A 
ATOM     25  C   UNL     1      -2.966  12.529  23.140  0.00  0.00    +0.000 A 
ATOM     26  C   UNL     1      -3.116  13.084  21.868  0.00  0.00    +0.000 A 
ATOM     27  N   UNL     1      -2.342  12.717  20.813  0.00  0.00    +0.000 NA
ATOM     28  C   UNL     1      -1.417  11.753  21.023  0.00  0.00    +0.000 A 
BRANCH  26  29
ATOM     29  C   UNL     1      -4.163  14.054  21.528  0.00  0.00    +0.000 A 
ATOM     30  C   UNL     1      -4.330  15.334  22.030  0.00  0.00    +0.000 A 
ATOM     31  C   UNL     1      -5.455  16.025  21.476  0.00  0.00    +0.000 A 
ATOM     32  C   UNL     1      -5.856  17.418  21.821  0.00  0.00    +0.000 C 
ATOM     33  C   UNL     1      -6.124  15.217  20.579  0.00  0.00    +0.000 A 
ATOM     34  S   UNL     1      -5.402  13.681  20.404  0.00  0.00    +0.000 S 
ENDBRANCH  26  29
ENDBRANCH  20  23
ENDBRANCH  18  20
ENDBRANCH   6  18
TORSDOF 6
ENDMDL
