MODEL 1
REMARK VINA RESULT:      -8.2      0.000      0.000
REMARK  Name = 
REMARK  11 active torsions:
REMARK  status: ('A' for Active; 'I' for Inactive)
REMARK    1  A    between atoms: C_1  and  C_2
REMARK    2  A    between atoms: C_2  and  S_3
REMARK    3  A    between atoms: S_3  and  C_6
REMARK    4  A    between atoms: C_9  and  C_10
REMARK    5  A    between atoms: C_10  and  C_11
REMARK    6  A    between atoms: N_13  and  C_14
REMARK    7  A    between atoms: C_17  and  C_18
REMARK    8  A    between atoms: C_18  and  C_19
REMARK    9  A    between atoms: C_18  and  C_20
REMARK   10  A    between atoms: C_18  and  C_21
REMARK   11  A    between atoms: N_23  and  C_24
REMARK                            x       y       z     vdW  Elec       q    Type
REMARK                         _______ _______ _______ _____ _____    ______ ____
ROOT
ATOM      1  C   UNL     1       1.662   7.910  20.587  0.00  0.00    +0.000 A 
ATOM      2  C   UNL     1       1.156   8.395  21.797  0.00  0.00    +0.000 A 
ATOM      3  C   UNL     1       0.474   9.627  21.841  0.00  0.00    +0.000 A 
ATOM      4  C   UNL     1       0.246  10.378  20.674  0.00  0.00    +0.000 A 
ATOM      5  C   UNL     1       0.690   9.818  19.460  0.00  0.00    +0.000 A 
ATOM      6  C   UNL     1       1.422   8.629  19.421  0.00  0.00    +0.000 A 
ENDROOT
BRANCH   1   9
ATOM      7  C   UNL     1       1.853   5.475  20.520  0.00  0.00    +0.000 C 
ATOM      8  O   UNL     1       0.642   5.281  20.608  0.00  0.00    +0.000 OA
ATOM      9  N   UNL     1       2.435   6.729  20.494  0.00  0.00    +0.000 N 
ATOM     10  H   UNL     1       3.314   6.812  19.999  0.00  0.00    +0.000 HD
BRANCH   7  11
ATOM     11  C   UNL     1       2.812   4.309  20.359  0.00  0.00    +0.000 C 
BRANCH  11  15
ATOM     12  C   UNL     1       5.453   4.650  16.952  0.00  0.00    +0.000 A 
ATOM     13  C   UNL     1       4.120   4.289  16.757  0.00  0.00    +0.000 A 
ATOM     14  C   UNL     1       3.265   4.186  17.862  0.00  0.00    +0.000 A 
ATOM     15  C   UNL     1       3.737   4.430  19.165  0.00  0.00    +0.000 A 
ATOM     16  C   UNL     1       5.075   4.821  19.332  0.00  0.00    +0.000 A 
ATOM     17  C   UNL     1       5.938   4.907  18.236  0.00  0.00    +0.000 A 
BRANCH  12  18
ATOM     18  S   UNL     1       6.564   4.765  15.566  0.00  0.00    +0.000 S 
ATOM     19  O   UNL     1       7.900   4.470  16.049  0.00  0.00    +0.000 OA
ATOM     20  O   UNL     1       6.280   6.005  14.884  0.00  0.00    +0.000 OA
BRANCH  18  22
ATOM     21  C   UNL     1       6.133   3.792  13.049  0.00  0.00    +0.000 C 
ATOM     22  C   UNL     1       6.033   3.424  14.515  0.00  0.00    +0.000 C 
ENDBRANCH  18  22
ENDBRANCH  12  18
ENDBRANCH  11  15
ENDBRANCH   7  11
ENDBRANCH   1   9
BRANCH   4  23
ATOM     23  C   UNL     1      -0.362  11.800  20.728  0.00  0.00    +0.000 C 
ATOM     24  C   UNL     1      -1.506  11.878  19.680  0.00  0.00    +0.000 C 
ATOM     25  C   UNL     1      -0.994  12.122  22.103  0.00  0.00    +0.000 C 
BRANCH  23  26
ATOM     26  C   UNL     1       0.658  12.931  20.423  0.00  0.00    +0.000 C 
ATOM     27  O   UNL     1       1.394  13.382  21.302  0.00  0.00    +0.000 OA
ATOM     28  N   UNL     1       0.700  13.366  19.107  0.00  0.00    +0.000 N 
ATOM     29  H   UNL     1      -0.200  13.419  18.647  0.00  0.00    +0.000 HD
BRANCH  28  30
ATOM     30  C   UNL     1       1.548  14.441  18.772  0.00  0.00    +0.000 A 
ATOM     31  N   UNL     1       2.781  14.090  18.341  0.00  0.00    +0.000 NA
ATOM     32  C   UNL     1       3.565  15.091  17.870  0.00  0.00    +0.000 A 
ATOM     33  C   UNL     1       3.213  16.435  17.886  0.00  0.00    +0.000 A 
ATOM     34  C   UNL     1       1.978  16.781  18.417  0.00  0.00    +0.000 A 
ATOM     35  C   UNL     1       1.128  15.772  18.855  0.00  0.00    +0.000 A 
ATOM     36  F   UNL     1      -0.049  16.105  19.408  0.00  0.00    +0.000 F 
ENDBRANCH  28  30
ENDBRANCH  23  26
ENDBRANCH   4  23
TORSDOF 8
ENDMDL
MODEL 2
REMARK VINA RESULT:      -8.0      4.615      6.894
REMARK  Name = 
REMARK  11 active torsions:
REMARK  status: ('A' for Active; 'I' for Inactive)
REMARK    1  A    between atoms: C_1  and  C_2
REMARK    2  A    between atoms: C_2  and  S_3
REMARK    3  A    between atoms: S_3  and  C_6
REMARK    4  A    between atoms: C_9  and  C_10
REMARK    5  A    between atoms: C_10  and  C_11
REMARK    6  A    between atoms: N_13  and  C_14
REMARK    7  A    between atoms: C_17  and  C_18
REMARK    8  A    between atoms: C_18  and  C_19
REMARK    9  A    between atoms: C_18  and  C_20
REMARK   10  A    between atoms: C_18  and  C_21
REMARK   11  A    between atoms: N_23  and  C_24
REMARK                            x       y       z     vdW  Elec       q    Type
REMARK                         _______ _______ _______ _____ _____    ______ ____
ROOT
ATOM      1  C   UNL     1       8.819   9.377  18.842  0.00  0.00    +0.000 A 
ATOM      2  C   UNL     1       9.403  10.034  19.929  0.00  0.00    +0.000 A 
ATOM      3  C   UNL     1       9.662  11.418  19.869  0.00  0.00    +0.000 A 
ATOM      4  C   UNL     1       9.306  12.180  18.742  0.00  0.00    +0.000 A 
ATOM      5  C   UNL     1       8.638  11.504  17.702  0.00  0.00    +0.000 A 
ATOM      6  C   UNL     1       8.437  10.122  17.732  0.00  0.00    +0.000 A 
ENDROOT
BRANCH   1   9
ATOM      7  C   UNL     1       7.721   7.393  17.931  0.00  0.00    +0.000 C 
ATOM      8  O   UNL     1       7.046   8.021  17.118  0.00  0.00    +0.000 OA
ATOM      9  N   UNL     1       8.619   7.977  18.805  0.00  0.00    +0.000 N 
ATOM     10  H   UNL     1       9.405   7.409  19.097  0.00  0.00    +0.000 HD
BRANCH   7  11
ATOM     11  C   UNL     1       7.658   5.877  17.979  0.00  0.00    +0.000 C 
BRANCH  11  15
ATOM     12  C   UNL     1       3.642   4.291  18.215  0.00  0.00    +0.000 A 
ATOM     13  C   UNL     1       4.352   4.196  17.018  0.00  0.00    +0.000 A 
ATOM     14  C   UNL     1       5.655   4.704  16.946  0.00  0.00    +0.000 A 
ATOM     15  C   UNL     1       6.251   5.319  18.062  0.00  0.00    +0.000 A 
ATOM     16  C   UNL     1       5.529   5.377  19.264  0.00  0.00    +0.000 A 
ATOM     17  C   UNL     1       4.220   4.888  19.337  0.00  0.00    +0.000 A 
BRANCH  12  18
ATOM     18  S   UNL     1       1.976   3.672  18.324  0.00  0.00    +0.000 S 
ATOM     19  O   UNL     1       2.048   2.224  18.359  0.00  0.00    +0.000 OA
ATOM     20  O   UNL     1       1.194   4.352  17.319  0.00  0.00    +0.000 OA
BRANCH  18  22
ATOM     21  C   UNL     1       1.183   3.100  20.876  0.00  0.00    +0.000 C 
ATOM     22  C   UNL     1       1.439   4.251  19.925  0.00  0.00    +0.000 C 
ENDBRANCH  18  22
ENDBRANCH  12  18
ENDBRANCH  11  15
ENDBRANCH   7  11
ENDBRANCH   1   9
BRANCH   4  23
ATOM     23  C   UNL     1       9.722  13.663  18.598  0.00  0.00    +0.000 C 
ATOM     24  C   UNL     1      10.596  14.043  19.824  0.00  0.00    +0.000 C 
ATOM     25  C   UNL     1      10.587  13.917  17.340  0.00  0.00    +0.000 C 
BRANCH  23  26
ATOM     26  C   UNL     1       8.523  14.648  18.528  0.00  0.00    +0.000 C 
ATOM     27  O   UNL     1       8.488  15.555  17.696  0.00  0.00    +0.000 OA
ATOM     28  N   UNL     1       7.500  14.416  19.436  0.00  0.00    +0.000 N 
ATOM     29  H   UNL     1       7.804  14.123  20.355  0.00  0.00    +0.000 HD
BRANCH  28  30
ATOM     30  C   UNL     1       6.414  15.314  19.480  0.00  0.00    +0.000 A 
ATOM     31  N   UNL     1       6.517  16.297  20.404  0.00  0.00    +0.000 NA
ATOM     32  C   UNL     1       5.564  17.261  20.369  0.00  0.00    +0.000 A 
ATOM     33  C   UNL     1       4.468  17.249  19.515  0.00  0.00    +0.000 A 
ATOM     34  C   UNL     1       4.335  16.182  18.636  0.00  0.00    +0.000 A 
ATOM     35  C   UNL     1       5.326  15.208  18.608  0.00  0.00    +0.000 A 
ATOM     36  F   UNL     1       5.181  14.154  17.790  0.00  0.00    +0.000 F 
ENDBRANCH  28  30
ENDBRANCH  23  26
ENDBRANCH   4  23
TORSDOF 8
ENDMDL
MODEL 3
REMARK VINA RESULT:      -7.9      6.349     10.781
REMARK  Name = 
REMARK  11 active torsions:
REMARK  status: ('A' for Active; 'I' for Inactive)
REMARK    1  A    between atoms: C_1  and  C_2
REMARK    2  A    between atoms: C_2  and  S_3
REMARK    3  A    between atoms: S_3  and  C_6
REMARK    4  A    between atoms: C_9  and  C_10
REMARK    5  A    between atoms: C_10  and  C_11
REMARK    6  A    between atoms: N_13  and  C_14
REMARK    7  A    between atoms: C_17  and  C_18
REMARK    8  A    between atoms: C_18  and  C_19
REMARK    9  A    between atoms: C_18  and  C_20
REMARK   10  A    between atoms: C_18  and  C_21
REMARK   11  A    between atoms: N_23  and  C_24
REMARK                            x       y       z     vdW  Elec       q    Type
REMARK                         _______ _______ _______ _____ _____    ______ ____
ROOT
ATOM      1  C   UNL     1       8.183   7.419  18.467  0.00  0.00    +0.000 A 
ATOM      2  C   UNL     1       8.024   6.103  18.912  0.00  0.00    +0.000 A 
ATOM      3  C   UNL     1       7.205   5.205  18.199  0.00  0.00    +0.000 A 
ATOM      4  C   UNL     1       6.563   5.589  17.008  0.00  0.00    +0.000 A 
ATOM      5  C   UNL     1       6.816   6.893  16.542  0.00  0.00    +0.000 A 
ATOM      6  C   UNL     1       7.575   7.806  17.278  0.00  0.00    +0.000 A 
ENDROOT
BRANCH   1   9
ATOM      7  C   UNL     1       8.896   9.728  18.831  0.00  0.00    +0.000 C 
ATOM      8  O   UNL     1       8.244  10.180  17.892  0.00  0.00    +0.000 OA
ATOM      9  N   UNL     1       8.915   8.392  19.187  0.00  0.00    +0.000 N 
ATOM     10  H   UNL     1       9.090   8.184  20.163  0.00  0.00    +0.000 HD
BRANCH   7  11
ATOM     11  C   UNL     1       9.693  10.654  19.733  0.00  0.00    +0.000 C 
BRANCH  11  15
ATOM     12  C   UNL     1      10.007  14.710  18.266  0.00  0.00    +0.000 A 
ATOM     13  C   UNL     1      10.741  13.696  17.651  0.00  0.00    +0.000 A 
ATOM     14  C   UNL     1      10.631  12.382  18.123  0.00  0.00    +0.000 A 
ATOM     15  C   UNL     1       9.802  12.075  19.217  0.00  0.00    +0.000 A 
ATOM     16  C   UNL     1       9.051  13.108  19.801  0.00  0.00    +0.000 A 
ATOM     17  C   UNL     1       9.169  14.425  19.346  0.00  0.00    +0.000 A 
BRANCH  12  18
ATOM     18  S   UNL     1      10.146  16.392  17.698  0.00  0.00    +0.000 S 
ATOM     19  O   UNL     1       8.837  17.004  17.817  0.00  0.00    +0.000 OA
ATOM     20  O   UNL     1      10.840  16.366  16.432  0.00  0.00    +0.000 OA
BRANCH  18  22
ATOM     21  C   UNL     1      12.331  16.181  19.326  0.00  0.00    +0.000 C 
ATOM     22  C   UNL     1      11.230  17.134  18.906  0.00  0.00    +0.000 C 
ENDBRANCH  18  22
ENDBRANCH  12  18
ENDBRANCH  11  15
ENDBRANCH   7  11
ENDBRANCH   1   9
BRANCH   4  23
ATOM     23  C   UNL     1       5.541   4.667  16.302  0.00  0.00    +0.000 C 
ATOM     24  C   UNL     1       4.682   5.538  15.344  0.00  0.00    +0.000 C 
ATOM     25  C   UNL     1       6.223   3.586  15.429  0.00  0.00    +0.000 C 
BRANCH  23  26
ATOM     26  C   UNL     1       4.587   3.924  17.276  0.00  0.00    +0.000 C 
ATOM     27  O   UNL     1       4.503   2.695  17.277  0.00  0.00    +0.000 OA
ATOM     28  N   UNL     1       3.872   4.730  18.150  0.00  0.00    +0.000 N 
ATOM     29  H   UNL     1       3.542   5.600  17.754  0.00  0.00    +0.000 HD
BRANCH  28  30
ATOM     30  C   UNL     1       2.931   4.131  19.012  0.00  0.00    +0.000 A 
ATOM     31  N   UNL     1       3.425   3.702  20.196  0.00  0.00    +0.000 NA
ATOM     32  C   UNL     1       2.521   3.261  21.105  0.00  0.00    +0.000 A 
ATOM     33  C   UNL     1       1.157   3.147  20.861  0.00  0.00    +0.000 A 
ATOM     34  C   UNL     1       0.685   3.508  19.607  0.00  0.00    +0.000 A 
ATOM     35  C   UNL     1       1.579   4.019  18.673  0.00  0.00    +0.000 A 
ATOM     36  F   UNL     1       1.134   4.329  17.446  0.00  0.00    +0.000 F 
ENDBRANCH  28  30
ENDBRANCH  23  26
ENDBRANCH   4  23
TORSDOF 8
ENDMDL
MODEL 4
REMARK VINA RESULT:      -7.9      4.698     10.903
REMARK  Name = 
REMARK  11 active torsions:
REMARK  status: ('A' for Active; 'I' for Inactive)
REMARK    1  A    between atoms: C_1  and  C_2
REMARK    2  A    between atoms: C_2  and  S_3
REMARK    3  A    between atoms: S_3  and  C_6
REMARK    4  A    between atoms: C_9  and  C_10
REMARK    5  A    between atoms: C_10  and  C_11
REMARK    6  A    between atoms: N_13  and  C_14
REMARK    7  A    between atoms: C_17  and  C_18
REMARK    8  A    between atoms: C_18  and  C_19
REMARK    9  A    between atoms: C_18  and  C_20
REMARK   10  A    between atoms: C_18  and  C_21
REMARK   11  A    between atoms: N_23  and  C_24
REMARK                            x       y       z     vdW  Elec       q    Type
REMARK                         _______ _______ _______ _____ _____    ______ ____
ROOT
ATOM      1  C   UNL     1       1.345   8.819  20.036  0.00  0.00    +0.000 A 
ATOM      2  C   UNL     1       1.875   8.409  18.809  0.00  0.00    +0.000 A 
ATOM      3  C   UNL     1       2.233   7.062  18.603  0.00  0.00    +0.000 A 
ATOM      4  C   UNL     1       2.030   6.091  19.600  0.00  0.00    +0.000 A 
ATOM      5  C   UNL     1       1.411   6.521  20.789  0.00  0.00    +0.000 A 
ATOM      6  C   UNL     1       1.114   7.866  21.022  0.00  0.00    +0.000 A 
ENDROOT
BRANCH   1   9
ATOM      7  C   UNL     1      -0.068  10.803  19.831  0.00  0.00    +0.000 C 
ATOM      8  O   UNL     1      -0.898  10.256  19.108  0.00  0.00    +0.000 OA
ATOM      9  N   UNL     1       1.054  10.170  20.336  0.00  0.00    +0.000 N 
ATOM     10  H   UNL     1       1.413  10.517  21.217  0.00  0.00    +0.000 HD
BRANCH   7  11
ATOM     11  C   UNL     1      -0.266  12.238  20.285  0.00  0.00    +0.000 C 
BRANCH  11  15
ATOM     12  C   UNL     1      -3.832  12.864  22.651  0.00  0.00    +0.000 A 
ATOM     13  C   UNL     1      -3.792  13.316  21.331  0.00  0.00    +0.000 A 
ATOM     14  C   UNL     1      -2.638  13.105  20.566  0.00  0.00    +0.000 A 
ATOM     15  C   UNL     1      -1.517  12.456  21.113  0.00  0.00    +0.000 A 
ATOM     16  C   UNL     1      -1.592  11.985  22.434  0.00  0.00    +0.000 A 
ATOM     17  C   UNL     1      -2.734  12.208  23.210  0.00  0.00    +0.000 A 
BRANCH  12  18
ATOM     18  S   UNL     1      -5.278  13.140  23.651  0.00  0.00    +0.000 S 
ATOM     19  O   UNL     1      -5.317  14.550  23.986  0.00  0.00    +0.000 OA
ATOM     20  O   UNL     1      -5.290  12.131  24.684  0.00  0.00    +0.000 OA
BRANCH  18  22
ATOM     21  C   UNL     1      -7.875  12.380  23.262  0.00  0.00    +0.000 C 
ATOM     22  C   UNL     1      -6.617  12.789  22.523  0.00  0.00    +0.000 C 
ENDBRANCH  18  22
ENDBRANCH  12  18
ENDBRANCH  11  15
ENDBRANCH   7  11
ENDBRANCH   1   9
BRANCH   4  23
ATOM     23  C   UNL     1       2.558   4.645  19.446  0.00  0.00    +0.000 C 
ATOM     24  C   UNL     1       2.779   4.055  20.866  0.00  0.00    +0.000 C 
ATOM     25  C   UNL     1       1.546   3.717  18.732  0.00  0.00    +0.000 C 
BRANCH  23  26
ATOM     26  C   UNL     1       3.894   4.545  18.661  0.00  0.00    +0.000 C 
ATOM     27  O   UNL     1       4.933   4.177  19.211  0.00  0.00    +0.000 OA
ATOM     28  N   UNL     1       3.826   4.863  17.313  0.00  0.00    +0.000 N 
ATOM     29  H   UNL     1       3.215   5.639  17.089  0.00  0.00    +0.000 HD
BRANCH  28  30
ATOM     30  C   UNL     1       5.014   4.867  16.554  0.00  0.00    +0.000 A 
ATOM     31  N   UNL     1       5.186   3.795  15.748  0.00  0.00    +0.000 NA
ATOM     32  C   UNL     1       6.240   3.841  14.896  0.00  0.00    +0.000 A 
ATOM     33  C   UNL     1       7.179   4.865  14.867  0.00  0.00    +0.000 A 
ATOM     34  C   UNL     1       7.032   5.912  15.767  0.00  0.00    +0.000 A 
ATOM     35  C   UNL     1       5.930   5.922  16.613  0.00  0.00    +0.000 A 
ATOM     36  F   UNL     1       5.807   6.910  17.513  0.00  0.00    +0.000 F 
ENDBRANCH  28  30
ENDBRANCH  23  26
ENDBRANCH   4  23
TORSDOF 8
ENDMDL
MODEL 5
REMARK VINA RESULT:      -7.8      6.457     11.033
REMARK  Name = 
REMARK  11 active torsions:
REMARK  status: ('A' for Active; 'I' for Inactive)
REMARK    1  A    between atoms: C_1  and  C_2
REMARK    2  A    between atoms: C_2  and  S_3
REMARK    3  A    between atoms: S_3  and  C_6
REMARK    4  A    between atoms: C_9  and  C_10
REMARK    5  A    between atoms: C_10  and  C_11
REMARK    6  A    between atoms: N_13  and  C_14
REMARK    7  A    between atoms: C_17  and  C_18
REMARK    8  A    between atoms: C_18  and  C_19
REMARK    9  A    between atoms: C_18  and  C_20
REMARK   10  A    between atoms: C_18  and  C_21
REMARK   11  A    between atoms: N_23  and  C_24
REMARK                            x       y       z     vdW  Elec       q    Type
REMARK                         _______ _______ _______ _____ _____    ______ ____
ROOT
ATOM      1  C   UNL     1       8.305   7.800  18.618  0.00  0.00    +0.000 A 
ATOM      2  C   UNL     1       8.196   6.459  18.996  0.00  0.00    +0.000 A 
ATOM      3  C   UNL     1       7.353   5.585  18.281  0.00  0.00    +0.000 A 
ATOM      4  C   UNL     1       6.636   6.020  17.151  0.00  0.00    +0.000 A 
ATOM      5  C   UNL     1       6.840   7.353  16.745  0.00  0.00    +0.000 A 
ATOM      6  C   UNL     1       7.624   8.239  17.488  0.00  0.00    +0.000 A 
ENDROOT
BRANCH   1   9
ATOM      7  C   UNL     1       9.123  10.076  18.973  0.00  0.00    +0.000 C 
ATOM      8  O   UNL     1       8.529  10.544  18.004  0.00  0.00    +0.000 OA
ATOM      9  N   UNL     1       9.061   8.747  19.349  0.00  0.00    +0.000 N 
ATOM     10  H   UNL     1       9.190   8.546  20.333  0.00  0.00    +0.000 HD
BRANCH   7  11
ATOM     11  C   UNL     1       9.934  10.975  19.889  0.00  0.00    +0.000 C 
BRANCH  11  15
ATOM     12  C   UNL     1      10.201  15.075  18.539  0.00  0.00    +0.000 A 
ATOM     13  C   UNL     1       9.289  14.737  19.540  0.00  0.00    +0.000 A 
ATOM     14  C   UNL     1       9.210  13.409  19.980  0.00  0.00    +0.000 A 
ATOM     15  C   UNL     1      10.028  12.413  19.417  0.00  0.00    +0.000 A 
ATOM     16  C   UNL     1      10.958  12.783  18.433  0.00  0.00    +0.000 A 
ATOM     17  C   UNL     1      11.030  14.103  17.976  0.00  0.00    +0.000 A 
BRANCH  12  18
ATOM     18  S   UNL     1      10.305  16.751  17.948  0.00  0.00    +0.000 S 
ATOM     19  O   UNL     1      10.475  16.698  16.508  0.00  0.00    +0.000 OA
ATOM     20  O   UNL     1      11.255  17.447  18.782  0.00  0.00    +0.000 OA
BRANCH  18  22
ATOM     21  C   UNL     1       8.721  18.417  19.426  0.00  0.00    +0.000 C 
ATOM     22  C   UNL     1       8.681  17.401  18.303  0.00  0.00    +0.000 C 
ENDBRANCH  18  22
ENDBRANCH  12  18
ENDBRANCH  11  15
ENDBRANCH   7  11
ENDBRANCH   1   9
BRANCH   4  23
ATOM     23  C   UNL     1       5.592   5.118  16.452  0.00  0.00    +0.000 C 
ATOM     24  C   UNL     1       5.156   5.812  15.134  0.00  0.00    +0.000 C 
ATOM     25  C   UNL     1       6.171   3.738  16.058  0.00  0.00    +0.000 C 
BRANCH  23  26
ATOM     26  C   UNL     1       4.324   4.848  17.306  0.00  0.00    +0.000 C 
ATOM     27  O   UNL     1       3.378   5.638  17.315  0.00  0.00    +0.000 OA
ATOM     28  N   UNL     1       4.321   3.659  18.022  0.00  0.00    +0.000 N 
ATOM     29  H   UNL     1       5.213   3.403  18.425  0.00  0.00    +0.000 HD
BRANCH  28  30
ATOM     30  C   UNL     1       3.235   3.383  18.877  0.00  0.00    +0.000 A 
ATOM     31  N   UNL     1       3.306   3.951  20.102  0.00  0.00    +0.000 NA
ATOM     32  C   UNL     1       2.210   3.829  20.890  0.00  0.00    +0.000 A 
ATOM     33  C   UNL     1       1.079   3.096  20.551  0.00  0.00    +0.000 A 
ATOM     34  C   UNL     1       1.065   2.445  19.325  0.00  0.00    +0.000 A 
ATOM     35  C   UNL     1       2.150   2.599  18.470  0.00  0.00    +0.000 A 
ATOM     36  F   UNL     1       2.159   1.938  17.302  0.00  0.00    +0.000 F 
ENDBRANCH  28  30
ENDBRANCH  23  26
ENDBRANCH   4  23
TORSDOF 8
ENDMDL
MODEL 6
REMARK VINA RESULT:      -7.8      4.520      6.817
REMARK  Name = 
REMARK  11 active torsions:
REMARK  status: ('A' for Active; 'I' for Inactive)
REMARK    1  A    between atoms: C_1  and  C_2
REMARK    2  A    between atoms: C_2  and  S_3
REMARK    3  A    between atoms: S_3  and  C_6
REMARK    4  A    between atoms: C_9  and  C_10
REMARK    5  A    between atoms: C_10  and  C_11
REMARK    6  A    between atoms: N_13  and  C_14
REMARK    7  A    between atoms: C_17  and  C_18
REMARK    8  A    between atoms: C_18  and  C_19
REMARK    9  A    between atoms: C_18  and  C_20
REMARK   10  A    between atoms: C_18  and  C_21
REMARK   11  A    between atoms: N_23  and  C_24
REMARK                            x       y       z     vdW  Elec       q    Type
REMARK                         _______ _______ _______ _____ _____    ______ ____
ROOT
ATOM      1  C   UNL     1       9.071   9.920  18.971  0.00  0.00    +0.000 A 
ATOM      2  C   UNL     1       8.805  10.679  17.827  0.00  0.00    +0.000 A 
ATOM      3  C   UNL     1       8.944  12.080  17.854  0.00  0.00    +0.000 A 
ATOM      4  C   UNL     1       9.390  12.749  19.009  0.00  0.00    +0.000 A 
ATOM      5  C   UNL     1       9.735  11.947  20.114  0.00  0.00    +0.000 A 
ATOM      6  C   UNL     1       9.538  10.563  20.112  0.00  0.00    +0.000 A 
ENDROOT
BRANCH   1   9
ATOM      7  C   UNL     1       8.039   7.869  18.134  0.00  0.00    +0.000 C 
ATOM      8  O   UNL     1       7.447   8.427  17.213  0.00  0.00    +0.000 OA
ATOM      9  N   UNL     1       8.861   8.523  19.034  0.00  0.00    +0.000 N 
ATOM     10  H   UNL     1       9.611   7.979  19.443  0.00  0.00    +0.000 HD
BRANCH   7  11
ATOM     11  C   UNL     1       7.956   6.362  18.303  0.00  0.00    +0.000 C 
BRANCH  11  15
ATOM     12  C   UNL     1       3.944   4.772  18.038  0.00  0.00    +0.000 A 
ATOM     13  C   UNL     1       4.610   4.760  19.263  0.00  0.00    +0.000 A 
ATOM     14  C   UNL     1       5.907   5.282  19.347  0.00  0.00    +0.000 A 
ATOM     15  C   UNL     1       6.549   5.807  18.211  0.00  0.00    +0.000 A 
ATOM     16  C   UNL     1       5.847   5.835  16.996  0.00  0.00    +0.000 A 
ATOM     17  C   UNL     1       4.559   5.299  16.901  0.00  0.00    +0.000 A 
BRANCH  12  18
ATOM     18  S   UNL     1       2.303   4.094  17.900  0.00  0.00    +0.000 S 
ATOM     19  O   UNL     1       2.345   3.046  16.898  0.00  0.00    +0.000 OA
ATOM     20  O   UNL     1       1.385   5.201  17.778  0.00  0.00    +0.000 OA
BRANCH  18  22
ATOM     21  C   UNL     1       0.904   3.994  20.246  0.00  0.00    +0.000 C 
ATOM     22  C   UNL     1       2.048   3.340  19.498  0.00  0.00    +0.000 C 
ENDBRANCH  18  22
ENDBRANCH  12  18
ENDBRANCH  11  15
ENDBRANCH   7  11
ENDBRANCH   1   9
BRANCH   4  23
ATOM     23  C   UNL     1       9.399  14.293  19.103  0.00  0.00    +0.000 C 
ATOM     24  C   UNL     1       9.615  14.687  20.589  0.00  0.00    +0.000 C 
ATOM     25  C   UNL     1      10.560  14.928  18.301  0.00  0.00    +0.000 C 
BRANCH  23  26
ATOM     26  C   UNL     1       8.088  14.959  18.605  0.00  0.00    +0.000 C 
ATOM     27  O   UNL     1       8.087  15.725  17.640  0.00  0.00    +0.000 OA
ATOM     28  N   UNL     1       6.936  14.612  19.294  0.00  0.00    +0.000 N 
ATOM     29  H   UNL     1       7.052  14.511  20.294  0.00  0.00    +0.000 HD
BRANCH  28  30
ATOM     30  C   UNL     1       5.720  15.235  18.945  0.00  0.00    +0.000 A 
ATOM     31  N   UNL     1       5.034  14.640  17.944  0.00  0.00    +0.000 NA
ATOM     32  C   UNL     1       3.794  15.125  17.689  0.00  0.00    +0.000 A 
ATOM     33  C   UNL     1       3.238  16.228  18.326  0.00  0.00    +0.000 A 
ATOM     34  C   UNL     1       3.998  16.879  19.288  0.00  0.00    +0.000 A 
ATOM     35  C   UNL     1       5.250  16.370  19.613  0.00  0.00    +0.000 A 
ATOM     36  F   UNL     1       6.005  17.021  20.512  0.00  0.00    +0.000 F 
ENDBRANCH  28  30
ENDBRANCH  23  26
ENDBRANCH   4  23
TORSDOF 8
ENDMDL
MODEL 7
REMARK VINA RESULT:      -7.8      4.710     10.865
REMARK  Name = 
REMARK  11 active torsions:
REMARK  status: ('A' for Active; 'I' for Inactive)
REMARK    1  A    between atoms: C_1  and  C_2
REMARK    2  A    between atoms: C_2  and  S_3
REMARK    3  A    between atoms: S_3  and  C_6
REMARK    4  A    between atoms: C_9  and  C_10
REMARK    5  A    between atoms: C_10  and  C_11
REMARK    6  A    between atoms: N_13  and  C_14
REMARK    7  A    between atoms: C_17  and  C_18
REMARK    8  A    between atoms: C_18  and  C_19
REMARK    9  A    between atoms: C_18  and  C_20
REMARK   10  A    between atoms: C_18  and  C_21
REMARK   11  A    between atoms: N_23  and  C_24
REMARK                            x       y       z     vdW  Elec       q    Type
REMARK                         _______ _______ _______ _____ _____    ______ ____
ROOT
ATOM      1  C   UNL     1       1.093   9.039  20.082  0.00  0.00    +0.000 A 
ATOM      2  C   UNL     1       0.938   8.104  21.111  0.00  0.00    +0.000 A 
ATOM      3  C   UNL     1       1.414   6.788  20.954  0.00  0.00    +0.000 A 
ATOM      4  C   UNL     1       2.091   6.389  19.787  0.00  0.00    +0.000 A 
ATOM      5  C   UNL     1       2.309   7.379  18.810  0.00  0.00    +0.000 A 
ATOM      6  C   UNL     1       1.783   8.667  18.934  0.00  0.00    +0.000 A 
ENDROOT
BRANCH   1   9
ATOM      7  C   UNL     1       0.416  11.021  21.341  0.00  0.00    +0.000 C 
ATOM      8  O   UNL     1       0.754  10.564  22.431  0.00  0.00    +0.000 OA
ATOM      9  N   UNL     1       0.556  10.346  20.142  0.00  0.00    +0.000 N 
ATOM     10  H   UNL     1       0.675  10.913  19.312  0.00  0.00    +0.000 HD
BRANCH   7  11
ATOM     11  C   UNL     1      -0.129  12.434  21.233  0.00  0.00    +0.000 C 
BRANCH  11  15
ATOM     12  C   UNL     1      -4.408  12.722  21.788  0.00  0.00    +0.000 A 
ATOM     13  C   UNL     1      -3.874  12.793  20.501  0.00  0.00    +0.000 A 
ATOM     14  C   UNL     1      -2.489  12.692  20.324  0.00  0.00    +0.000 A 
ATOM     15  C   UNL     1      -1.629  12.533  21.427  0.00  0.00    +0.000 A 
ATOM     16  C   UNL     1      -2.193  12.434  22.709  0.00  0.00    +0.000 A 
ATOM     17  C   UNL     1      -3.574  12.552  22.894  0.00  0.00    +0.000 A 
BRANCH  12  18
ATOM     18  S   UNL     1      -6.165  12.869  22.041  0.00  0.00    +0.000 S 
ATOM     19  O   UNL     1      -6.785  11.667  21.518  0.00  0.00    +0.000 OA
ATOM     20  O   UNL     1      -6.563  14.174  21.569  0.00  0.00    +0.000 OA
BRANCH  18  22
ATOM     21  C   UNL     1      -7.574  13.565  24.277  0.00  0.00    +0.000 C 
ATOM     22  C   UNL     1      -6.315  12.857  23.819  0.00  0.00    +0.000 C 
ENDBRANCH  18  22
ENDBRANCH  12  18
ENDBRANCH  11  15
ENDBRANCH   7  11
ENDBRANCH   1   9
BRANCH   4  23
ATOM     23  C   UNL     1       2.481   4.913  19.537  0.00  0.00    +0.000 C 
ATOM     24  C   UNL     1       2.604   4.204  20.913  0.00  0.00    +0.000 C 
ATOM     25  C   UNL     1       1.404   4.143  18.735  0.00  0.00    +0.000 C 
BRANCH  23  26
ATOM     26  C   UNL     1       3.823   4.738  18.775  0.00  0.00    +0.000 C 
ATOM     27  O   UNL     1       4.844   4.365  19.355  0.00  0.00    +0.000 OA
ATOM     28  N   UNL     1       3.780   4.999  17.413  0.00  0.00    +0.000 N 
ATOM     29  H   UNL     1       3.196   5.782  17.148  0.00  0.00    +0.000 HD
BRANCH  28  30
ATOM     30  C   UNL     1       4.976   4.934  16.671  0.00  0.00    +0.000 A 
ATOM     31  N   UNL     1       5.145   3.802  15.949  0.00  0.00    +0.000 NA
ATOM     32  C   UNL     1       6.210   3.774  15.109  0.00  0.00    +0.000 A 
ATOM     33  C   UNL     1       7.161   4.784  15.015  0.00  0.00    +0.000 A 
ATOM     34  C   UNL     1       7.016   5.896  15.832  0.00  0.00    +0.000 A 
ATOM     35  C   UNL     1       5.903   5.980  16.662  0.00  0.00    +0.000 A 
ATOM     36  F   UNL     1       5.782   7.034  17.484  0.00  0.00    +0.000 F 
ENDBRANCH  28  30
ENDBRANCH  23  26
ENDBRANCH   4  23
TORSDOF 8
ENDMDL
MODEL 8
REMARK VINA RESULT:      -7.8      4.744      6.993
REMARK  Name = 
REMARK  11 active torsions:
REMARK  status: ('A' for Active; 'I' for Inactive)
REMARK    1  A    between atoms: C_1  and  C_2
REMARK    2  A    between atoms: C_2  and  S_3
REMARK    3  A    between atoms: S_3  and  C_6
REMARK    4  A    between atoms: C_9  and  C_10
REMARK    5  A    between atoms: C_10  and  C_11
REMARK    6  A    between atoms: N_13  and  C_14
REMARK    7  A    between atoms: C_17  and  C_18
REMARK    8  A    between atoms: C_18  and  C_19
REMARK    9  A    between atoms: C_18  and  C_20
REMARK   10  A    between atoms: C_18  and  C_21
REMARK   11  A    between atoms: N_23  and  C_24
REMARK                            x       y       z     vdW  Elec       q    Type
REMARK                         _______ _______ _______ _____ _____    ______ ____
ROOT
ATOM      1  C   UNL     1       8.796   9.407  18.838  0.00  0.00    +0.000 A 
ATOM      2  C   UNL     1       9.265  10.039  19.994  0.00  0.00    +0.000 A 
ATOM      3  C   UNL     1       9.520  11.424  19.994  0.00  0.00    +0.000 A 
ATOM      4  C   UNL     1       9.274  12.213  18.856  0.00  0.00    +0.000 A 
ATOM      5  C   UNL     1       8.718  11.561  17.739  0.00  0.00    +0.000 A 
ATOM      6  C   UNL     1       8.523  10.178  17.714  0.00  0.00    +0.000 A 
ENDROOT
BRANCH   1   9
ATOM      7  C   UNL     1       7.657   7.454  17.911  0.00  0.00    +0.000 C 
ATOM      8  O   UNL     1       6.920   8.110  17.178  0.00  0.00    +0.000 OA
ATOM      9  N   UNL     1       8.609   8.008  18.747  0.00  0.00    +0.000 N 
ATOM     10  H   UNL     1       9.419   7.438  18.955  0.00  0.00    +0.000 HD
BRANCH   7  11
ATOM     11  C   UNL     1       7.614   5.936  17.888  0.00  0.00    +0.000 C 
BRANCH  11  15
ATOM     12  C   UNL     1       3.637   4.276  18.246  0.00  0.00    +0.000 A 
ATOM     13  C   UNL     1       4.297   4.736  19.386  0.00  0.00    +0.000 A 
ATOM     14  C   UNL     1       5.582   5.280  19.265  0.00  0.00    +0.000 A 
ATOM     15  C   UNL     1       6.219   5.356  18.014  0.00  0.00    +0.000 A 
ATOM     16  C   UNL     1       5.523   4.914  16.877  0.00  0.00    +0.000 A 
ATOM     17  C   UNL     1       4.248   4.353  16.993  0.00  0.00    +0.000 A 
BRANCH  12  18
ATOM     18  S   UNL     1       2.012   3.560  18.376  0.00  0.00    +0.000 S 
ATOM     19  O   UNL     1       2.175   2.125  18.511  0.00  0.00    +0.000 OA
ATOM     20  O   UNL     1       1.206   4.119  17.317  0.00  0.00    +0.000 OA
BRANCH  18  22
ATOM     21  C   UNL     1       1.218   3.113  20.953  0.00  0.00    +0.000 C 
ATOM     22  C   UNL     1       1.412   4.211  19.926  0.00  0.00    +0.000 C 
ENDBRANCH  18  22
ENDBRANCH  12  18
ENDBRANCH  11  15
ENDBRANCH   7  11
ENDBRANCH   1   9
BRANCH   4  23
ATOM     23  C   UNL     1       9.694  13.701  18.791  0.00  0.00    +0.000 C 
ATOM     24  C   UNL     1      10.510  14.031  20.071  0.00  0.00    +0.000 C 
ATOM     25  C   UNL     1      10.616  14.005  17.586  0.00  0.00    +0.000 C 
BRANCH  23  26
ATOM     26  C   UNL     1       8.498  14.688  18.706  0.00  0.00    +0.000 C 
ATOM     27  O   UNL     1       8.332  15.408  17.720  0.00  0.00    +0.000 OA
ATOM     28  N   UNL     1       7.629  14.677  19.787  0.00  0.00    +0.000 N 
ATOM     29  H   UNL     1       8.074  14.567  20.690  0.00  0.00    +0.000 HD
BRANCH  28  30
ATOM     30  C   UNL     1       6.563  15.599  19.812  0.00  0.00    +0.000 A 
ATOM     31  N   UNL     1       5.377  15.120  19.376  0.00  0.00    +0.000 NA
ATOM     32  C   UNL     1       4.303  15.933  19.530  0.00  0.00    +0.000 A 
ATOM     33  C   UNL     1       4.367  17.232  20.019  0.00  0.00    +0.000 A 
ATOM     34  C   UNL     1       5.611  17.735  20.377  0.00  0.00    +0.000 A 
ATOM     35  C   UNL     1       6.723  16.905  20.285  0.00  0.00    +0.000 A 
ATOM     36  F   UNL     1       7.932  17.401  20.590  0.00  0.00    +0.000 F 
ENDBRANCH  28  30
ENDBRANCH  23  26
ENDBRANCH   4  23
TORSDOF 8
ENDMDL
MODEL 9
REMARK VINA RESULT:      -7.8      4.197      6.396
REMARK  Name = 
REMARK  11 active torsions:
REMARK  status: ('A' for Active; 'I' for Inactive)
REMARK    1  A    between atoms: C_1  and  C_2
REMARK    2  A    between atoms: C_2  and  S_3
REMARK    3  A    between atoms: S_3  and  C_6
REMARK    4  A    between atoms: C_9  and  C_10
REMARK    5  A    between atoms: C_10  and  C_11
REMARK    6  A    between atoms: N_13  and  C_14
REMARK    7  A    between atoms: C_17  and  C_18
REMARK    8  A    between atoms: C_18  and  C_19
REMARK    9  A    between atoms: C_18  and  C_20
REMARK   10  A    between atoms: C_18  and  C_21
REMARK   11  A    between atoms: N_23  and  C_24
REMARK                            x       y       z     vdW  Elec       q    Type
REMARK                         _______ _______ _______ _____ _____    ______ ____
ROOT
ATOM      1  C   UNL     1      -1.452  10.465  17.920  0.00  0.00    +0.000 A 
ATOM      2  C   UNL     1      -2.530   9.747  17.391  0.00  0.00    +0.000 A 
ATOM      3  C   UNL     1      -3.852  10.178  17.619  0.00  0.00    +0.000 A 
ATOM      4  C   UNL     1      -4.124  11.354  18.341  0.00  0.00    +0.000 A 
ATOM      5  C   UNL     1      -3.014  12.100  18.782  0.00  0.00    +0.000 A 
ATOM      6  C   UNL     1      -1.704  11.643  18.613  0.00  0.00    +0.000 A 
ENDROOT
BRANCH   1   9
ATOM      7  C   UNL     1       0.641   9.691  18.914  0.00  0.00    +0.000 C 
ATOM      8  O   UNL     1       0.215   9.713  20.067  0.00  0.00    +0.000 OA
ATOM      9  N   UNL     1      -0.110  10.034  17.805  0.00  0.00    +0.000 N 
ATOM     10  H   UNL     1       0.140   9.588  16.931  0.00  0.00    +0.000 HD
BRANCH   7  11
ATOM     11  C   UNL     1       2.048   9.200  18.622  0.00  0.00    +0.000 C 
BRANCH  11  15
ATOM     12  C   UNL     1       2.568   4.935  19.107  0.00  0.00    +0.000 A 
ATOM     13  C   UNL     1       2.115   5.701  20.182  0.00  0.00    +0.000 A 
ATOM     14  C   UNL     1       1.941   7.081  20.019  0.00  0.00    +0.000 A 
ATOM     15  C   UNL     1       2.228   7.705  18.792  0.00  0.00    +0.000 A 
ATOM     16  C   UNL     1       2.654   6.909  17.717  0.00  0.00    +0.000 A 
ATOM     17  C   UNL     1       2.848   5.533  17.877  0.00  0.00    +0.000 A 
BRANCH  12  18
ATOM     18  S   UNL     1       2.819   3.182  19.295  0.00  0.00    +0.000 S 
ATOM     19  O   UNL     1       4.017   2.994  20.090  0.00  0.00    +0.000 OA
ATOM     20  O   UNL     1       2.694   2.583  17.988  0.00  0.00    +0.000 OA
BRANCH  18  22
ATOM     21  C   UNL     1       1.747   2.614  21.744  0.00  0.00    +0.000 C 
ATOM     22  C   UNL     1       1.409   2.680  20.269  0.00  0.00    +0.000 C 
ENDBRANCH  18  22
ENDBRANCH  12  18
ENDBRANCH  11  15
ENDBRANCH   7  11
ENDBRANCH   1   9
BRANCH   4  23
ATOM     23  C   UNL     1      -5.566  11.754  18.731  0.00  0.00    +0.000 C 
ATOM     24  C   UNL     1      -6.094  12.760  17.672  0.00  0.00    +0.000 C 
ATOM     25  C   UNL     1      -6.538  10.549  18.722  0.00  0.00    +0.000 C 
BRANCH  23  26
ATOM     26  C   UNL     1      -5.678  12.415  20.132  0.00  0.00    +0.000 C 
ATOM     27  O   UNL     1      -5.899  11.742  21.140  0.00  0.00    +0.000 OA
ATOM     28  N   UNL     1      -5.484  13.788  20.167  0.00  0.00    +0.000 N 
ATOM     29  H   UNL     1      -5.879  14.294  19.385  0.00  0.00    +0.000 HD
BRANCH  28  30
ATOM     30  C   UNL     1      -5.645  14.466  21.393  0.00  0.00    +0.000 A 
ATOM     31  N   UNL     1      -6.886  14.950  21.625  0.00  0.00    +0.000 NA
ATOM     32  C   UNL     1      -7.110  15.473  22.856  0.00  0.00    +0.000 A 
ATOM     33  C   UNL     1      -6.135  15.613  23.837  0.00  0.00    +0.000 A 
ATOM     34  C   UNL     1      -4.846  15.191  23.543  0.00  0.00    +0.000 A 
ATOM     35  C   UNL     1      -4.598  14.598  22.310  0.00  0.00    +0.000 A 
ATOM     36  F   UNL     1      -3.345  14.227  22.006  0.00  0.00    +0.000 F 
ENDBRANCH  28  30
ENDBRANCH  23  26
ENDBRANCH   4  23
TORSDOF 8
ENDMDL
