MODEL 1
REMARK VINA RESULT:      -7.9      0.000      0.000
REMARK  Name = 
REMARK  9 active torsions:
REMARK  status: ('A' for Active; 'I' for Inactive)
REMARK    1  A    between atoms: C_1  and  N_2
REMARK    2  A    between atoms: N_2  and  C_3
REMARK    3  A    between atoms: N_2  and  C_4
REMARK    4  A    between atoms: C_4  and  C_5
REMARK    5  A    between atoms: C_5  and  N_6
REMARK    6  A    between atoms: C_7  and  C_9
REMARK    7  A    between atoms: N_24  and  C_25
REMARK    8  A    between atoms: C_25  and  C_26
REMARK    9  A    between atoms: C_26  and  N_27
REMARK                            x       y       z     vdW  Elec       q    Type
REMARK                         _______ _______ _______ _____ _____    ______ ____
ROOT
ATOM      1  C   UNL     1       3.121   7.419  18.004  0.00  0.00    +0.000 A 
ATOM      2  C   UNL     1       4.142   7.720  17.069  0.00  0.00    +0.000 A 
ATOM      3  C   UNL     1       5.121   6.780  16.729  0.00  0.00    +0.000 A 
ATOM      4  C   UNL     1       5.043   5.559  17.377  0.00  0.00    +0.000 A 
ATOM      5  C   UNL     1       4.103   5.339  18.356  0.00  0.00    +0.000 A 
ATOM      6  C   UNL     1       4.316   4.108  18.951  0.00  0.00    +0.000 A 
ATOM      7  C   UNL     1       3.388   3.666  19.902  0.00  0.00    +0.000 A 
ATOM      8  C   UNL     1       3.442   2.426  20.536  0.00  0.00    +0.000 A 
ATOM      9  C   UNL     1       2.436   2.088  21.451  0.00  0.00    +0.000 A 
ATOM     10  C   UNL     1       1.400   2.981  21.736  0.00  0.00    +0.000 A 
ATOM     11  C   UNL     1       1.361   4.223  21.103  0.00  0.00    +0.000 A 
ATOM     12  C   UNL     1       2.328   4.591  20.188  0.00  0.00    +0.000 A 
ATOM     13  N   UNL     1       2.196   5.805  19.619  0.00  0.00    +0.000 NA
ATOM     14  C   UNL     1       3.097   6.201  18.689  0.00  0.00    +0.000 A 
ATOM     15  N   UNL     1       5.502   3.566  18.371  0.00  0.00    +0.000 N 
ATOM     16  N   UNL     1       5.851   4.408  17.253  0.00  0.00    +0.000 N 
ATOM     17  H   UNL     1       5.658   2.564  18.262  0.00  0.00    +0.000 HD
ENDROOT
BRANCH   1  19
ATOM     18  N   UNL     1       1.762   8.786  19.492  0.00  0.00    +0.000 N 
ATOM     19  C   UNL     1       2.062   8.442  18.195  0.00  0.00    +0.000 C 
ATOM     20  O   UNL     1       1.464   8.895  17.224  0.00  0.00    +0.000 OA
ATOM     21  H   UNL     1       2.448   8.575  20.219  0.00  0.00    +0.000 HD
BRANCH  18  22
ATOM     22  C   UNL     1       0.743   9.764  19.792  0.00  0.00    +0.000 C 
BRANCH  22  23
ATOM     23  C   UNL     1      -0.059   9.406  21.055  0.00  0.00    +0.000 C 
BRANCH  23  25
ATOM     24  C   UNL     1      -0.616  11.437  22.282  0.00  0.00    +0.000 C 
ATOM     25  N   UNL     1       0.239  10.249  22.238  0.00  0.00    +0.000 NA
ATOM     26  C   UNL     1       0.053   9.463  23.461  0.00  0.00    +0.000 C 
ENDBRANCH  23  25
ENDBRANCH  22  23
ENDBRANCH  18  22
ENDBRANCH   1  19
BRANCH  16  27
ATOM     27  C   UNL     1       7.211   4.593  16.704  0.00  0.00    +0.000 C 
BRANCH  27  28
ATOM     28  C   UNL     1       7.430   5.212  15.314  0.00  0.00    +0.000 C 
BRANCH  28  29
ATOM     29  N   UNL     1       6.929   4.297  14.230  0.00  0.00    +0.000 NA
ATOM     30  C   UNL     1       5.458   4.273  14.142  0.00  0.00    +0.000 C 
ATOM     31  C   UNL     1       4.936   3.316  13.061  0.00  0.00    +0.000 C 
ATOM     32  C   UNL     1       5.537   3.642  11.708  0.00  0.00    +0.000 C 
ATOM     33  C   UNL     1       7.054   3.670  11.813  0.00  0.00    +0.000 C 
ATOM     34  C   UNL     1       7.532   4.617  12.927  0.00  0.00    +0.000 C 
ENDBRANCH  28  29
ENDBRANCH  27  28
ENDBRANCH  16  27
TORSDOF 7
ENDMDL
MODEL 2
REMARK VINA RESULT:      -7.9      4.066      7.457
REMARK  Name = 
REMARK  9 active torsions:
REMARK  status: ('A' for Active; 'I' for Inactive)
REMARK    1  A    between atoms: C_1  and  N_2
REMARK    2  A    between atoms: N_2  and  C_3
REMARK    3  A    between atoms: N_2  and  C_4
REMARK    4  A    between atoms: C_4  and  C_5
REMARK    5  A    between atoms: C_5  and  N_6
REMARK    6  A    between atoms: C_7  and  C_9
REMARK    7  A    between atoms: N_24  and  C_25
REMARK    8  A    between atoms: C_25  and  C_26
REMARK    9  A    between atoms: C_26  and  N_27
REMARK                            x       y       z     vdW  Elec       q    Type
REMARK                         _______ _______ _______ _____ _____    ______ ____
ROOT
ATOM      1  C   UNL     1       5.114   4.131  18.174  0.00  0.00    +0.000 A 
ATOM      2  C   UNL     1       5.427   4.996  19.251  0.00  0.00    +0.000 A 
ATOM      3  C   UNL     1       6.224   6.132  19.068  0.00  0.00    +0.000 A 
ATOM      4  C   UNL     1       6.704   6.337  17.786  0.00  0.00    +0.000 A 
ATOM      5  C   UNL     1       6.469   5.420  16.789  0.00  0.00    +0.000 A 
ATOM      6  C   UNL     1       7.166   5.770  15.647  0.00  0.00    +0.000 A 
ATOM      7  C   UNL     1       6.963   5.007  14.490  0.00  0.00    +0.000 A 
ATOM      8  C   UNL     1       7.550   5.280  13.256  0.00  0.00    +0.000 A 
ATOM      9  C   UNL     1       7.246   4.455  12.164  0.00  0.00    +0.000 A 
ATOM     10  C   UNL     1       6.379   3.370  12.308  0.00  0.00    +0.000 A 
ATOM     11  C   UNL     1       5.806   3.099  13.551  0.00  0.00    +0.000 A 
ATOM     12  C   UNL     1       6.073   3.893  14.650  0.00  0.00    +0.000 A 
ATOM     13  N   UNL     1       5.460   3.561  15.802  0.00  0.00    +0.000 NA
ATOM     14  C   UNL     1       5.659   4.326  16.901  0.00  0.00    +0.000 A 
ATOM     15  N   UNL     1       7.944   6.923  15.972  0.00  0.00    +0.000 N 
ATOM     16  N   UNL     1       7.508   7.377  17.270  0.00  0.00    +0.000 N 
ATOM     17  H   UNL     1       8.186   7.639  15.288  0.00  0.00    +0.000 HD
ENDROOT
BRANCH   1  19
ATOM     18  N   UNL     1       2.902   3.149  17.907  0.00  0.00    +0.000 N 
ATOM     19  C   UNL     1       4.158   3.030  18.452  0.00  0.00    +0.000 C 
ATOM     20  O   UNL     1       4.487   2.102  19.186  0.00  0.00    +0.000 OA
ATOM     21  H   UNL     1       2.775   3.790  17.122  0.00  0.00    +0.000 HD
BRANCH  18  22
ATOM     22  C   UNL     1       1.891   2.140  18.121  0.00  0.00    +0.000 C 
BRANCH  22  23
ATOM     23  C   UNL     1       0.964   2.480  19.301  0.00  0.00    +0.000 C 
BRANCH  23  25
ATOM     24  C   UNL     1       0.968   4.631  20.448  0.00  0.00    +0.000 C 
ATOM     25  N   UNL     1       1.588   3.306  20.361  0.00  0.00    +0.000 NA
ATOM     26  C   UNL     1       1.470   2.622  21.652  0.00  0.00    +0.000 C 
ENDBRANCH  23  25
ENDBRANCH  22  23
ENDBRANCH  18  22
ENDBRANCH   1  19
BRANCH  16  27
ATOM     27  C   UNL     1       8.325   8.142  18.235  0.00  0.00    +0.000 C 
BRANCH  27  28
ATOM     28  C   UNL     1       8.246   9.675  18.304  0.00  0.00    +0.000 C 
BRANCH  28  29
ATOM     29  N   UNL     1       9.522  10.258  18.846  0.00  0.00    +0.000 NA
ATOM     30  C   UNL     1      10.230  11.094  17.860  0.00  0.00    +0.000 C 
ATOM     31  C   UNL     1      11.550  11.666  18.392  0.00  0.00    +0.000 C 
ATOM     32  C   UNL     1      11.330  12.443  19.675  0.00  0.00    +0.000 C 
ATOM     33  C   UNL     1      10.594  11.573  20.682  0.00  0.00    +0.000 C 
ATOM     34  C   UNL     1       9.293  10.997  20.097  0.00  0.00    +0.000 C 
ENDBRANCH  28  29
ENDBRANCH  27  28
ENDBRANCH  16  27
TORSDOF 7
ENDMDL
MODEL 3
REMARK VINA RESULT:      -7.9      3.363      7.289
REMARK  Name = 
REMARK  9 active torsions:
REMARK  status: ('A' for Active; 'I' for Inactive)
REMARK    1  A    between atoms: C_1  and  N_2
REMARK    2  A    between atoms: N_2  and  C_3
REMARK    3  A    between atoms: N_2  and  C_4
REMARK    4  A    between atoms: C_4  and  C_5
REMARK    5  A    between atoms: C_5  and  N_6
REMARK    6  A    between atoms: C_7  and  C_9
REMARK    7  A    between atoms: N_24  and  C_25
REMARK    8  A    between atoms: C_25  and  C_26
REMARK    9  A    between atoms: C_26  and  N_27
REMARK                            x       y       z     vdW  Elec       q    Type
REMARK                         _______ _______ _______ _____ _____    ______ ____
ROOT
ATOM      1  C   UNL     1       6.893   6.182  18.102  0.00  0.00    +0.000 A 
ATOM      2  C   UNL     1       6.178   5.773  19.254  0.00  0.00    +0.000 A 
ATOM      3  C   UNL     1       5.339   4.653  19.235  0.00  0.00    +0.000 A 
ATOM      4  C   UNL     1       5.234   3.994  18.022  0.00  0.00    +0.000 A 
ATOM      5  C   UNL     1       5.859   4.480  16.898  0.00  0.00    +0.000 A 
ATOM      6  C   UNL     1       5.490   3.738  15.790  0.00  0.00    +0.000 A 
ATOM      7  C   UNL     1       6.112   4.023  14.568  0.00  0.00    +0.000 A 
ATOM      8  C   UNL     1       5.884   3.319  13.387  0.00  0.00    +0.000 A 
ATOM      9  C   UNL     1       6.590   3.685  12.233  0.00  0.00    +0.000 A 
ATOM     10  C   UNL     1       7.500   4.744  12.258  0.00  0.00    +0.000 A 
ATOM     11  C   UNL     1       7.712   5.449  13.443  0.00  0.00    +0.000 A 
ATOM     12  C   UNL     1       7.043   5.115  14.604  0.00  0.00    +0.000 A 
ATOM     13  N   UNL     1       7.327   5.844  15.700  0.00  0.00    +0.000 NA
ATOM     14  C   UNL     1       6.725   5.535  16.874  0.00  0.00    +0.000 A 
ATOM     15  N   UNL     1       4.519   2.788  16.231  0.00  0.00    +0.000 N 
ATOM     16  N   UNL     1       4.499   2.840  17.673  0.00  0.00    +0.000 N 
ATOM     17  H   UNL     1       4.404   1.872  15.799  0.00  0.00    +0.000 HD
ENDROOT
BRANCH   1  19
ATOM     18  N   UNL     1       7.670   8.396  17.453  0.00  0.00    +0.000 N 
ATOM     19  C   UNL     1       7.851   7.305  18.268  0.00  0.00    +0.000 C 
ATOM     20  O   UNL     1       8.781   7.205  19.063  0.00  0.00    +0.000 OA
ATOM     21  H   UNL     1       6.759   8.524  17.010  0.00  0.00    +0.000 HD
BRANCH  18  22
ATOM     22  C   UNL     1       8.549   9.540  17.525  0.00  0.00    +0.000 C 
BRANCH  22  23
ATOM     23  C   UNL     1       8.865   9.945  18.975  0.00  0.00    +0.000 C 
BRANCH  23  25
ATOM     24  C   UNL     1      10.784  11.397  19.369  0.00  0.00    +0.000 C 
ATOM     25  N   UNL     1       9.338  11.340  19.140  0.00  0.00    +0.000 NA
ATOM     26  C   UNL     1       8.998  12.119  17.945  0.00  0.00    +0.000 C 
ENDBRANCH  23  25
ENDBRANCH  22  23
ENDBRANCH  18  22
ENDBRANCH   1  19
BRANCH  16  27
ATOM     27  C   UNL     1       3.350   2.485  18.532  0.00  0.00    +0.000 C 
BRANCH  27  28
ATOM     28  C   UNL     1       1.922   2.923  18.171  0.00  0.00    +0.000 C 
BRANCH  28  29
ATOM     29  N   UNL     1       1.633   4.305  18.689  0.00  0.00    +0.000 NA
ATOM     30  C   UNL     1       1.999   4.469  20.107  0.00  0.00    +0.000 C 
ATOM     31  C   UNL     1       1.677   5.866  20.655  0.00  0.00    +0.000 C 
ATOM     32  C   UNL     1       2.333   6.945  19.816  0.00  0.00    +0.000 C 
ATOM     33  C   UNL     1       1.952   6.762  18.355  0.00  0.00    +0.000 C 
ATOM     34  C   UNL     1       2.264   5.341  17.857  0.00  0.00    +0.000 C 
ENDBRANCH  28  29
ENDBRANCH  27  28
ENDBRANCH  16  27
TORSDOF 7
ENDMDL
MODEL 4
REMARK VINA RESULT:      -7.8      1.082      1.587
REMARK  Name = 
REMARK  9 active torsions:
REMARK  status: ('A' for Active; 'I' for Inactive)
REMARK    1  A    between atoms: C_1  and  N_2
REMARK    2  A    between atoms: N_2  and  C_3
REMARK    3  A    between atoms: N_2  and  C_4
REMARK    4  A    between atoms: C_4  and  C_5
REMARK    5  A    between atoms: C_5  and  N_6
REMARK    6  A    between atoms: C_7  and  C_9
REMARK    7  A    between atoms: N_24  and  C_25
REMARK    8  A    between atoms: C_25  and  C_26
REMARK    9  A    between atoms: C_26  and  N_27
REMARK                            x       y       z     vdW  Elec       q    Type
REMARK                         _______ _______ _______ _____ _____    ______ ____
ROOT
ATOM      1  C   UNL     1       3.041   7.375  18.057  0.00  0.00    +0.000 A 
ATOM      2  C   UNL     1       4.047   7.690  17.112  0.00  0.00    +0.000 A 
ATOM      3  C   UNL     1       5.030   6.761  16.754  0.00  0.00    +0.000 A 
ATOM      4  C   UNL     1       4.971   5.536  17.396  0.00  0.00    +0.000 A 
ATOM      5  C   UNL     1       4.045   5.302  18.386  0.00  0.00    +0.000 A 
ATOM      6  C   UNL     1       4.277   4.070  18.971  0.00  0.00    +0.000 A 
ATOM      7  C   UNL     1       3.364   3.614  19.932  0.00  0.00    +0.000 A 
ATOM      8  C   UNL     1       3.438   2.372  20.558  0.00  0.00    +0.000 A 
ATOM      9  C   UNL     1       2.446   2.020  21.484  0.00  0.00    +0.000 A 
ATOM     10  C   UNL     1       1.405   2.902  21.786  0.00  0.00    +0.000 A 
ATOM     11  C   UNL     1       1.348   4.147  21.161  0.00  0.00    +0.000 A 
ATOM     12  C   UNL     1       2.300   4.529  20.236  0.00  0.00    +0.000 A 
ATOM     13  N   UNL     1       2.151   5.744  19.675  0.00  0.00    +0.000 NA
ATOM     14  C   UNL     1       3.037   6.153  18.736  0.00  0.00    +0.000 A 
ATOM     15  N   UNL     1       5.460   3.541  18.373  0.00  0.00    +0.000 N 
ATOM     16  N   UNL     1       5.788   4.392  17.255  0.00  0.00    +0.000 N 
ATOM     17  H   UNL     1       5.623   2.541  18.257  0.00  0.00    +0.000 HD
ENDROOT
BRANCH   1  19
ATOM     18  N   UNL     1       1.579   8.608  19.565  0.00  0.00    +0.000 N 
ATOM     19  C   UNL     1       1.975   8.388  18.268  0.00  0.00    +0.000 C 
ATOM     20  O   UNL     1       1.455   8.940  17.303  0.00  0.00    +0.000 OA
ATOM     21  H   UNL     1       2.206   8.318  20.318  0.00  0.00    +0.000 HD
BRANCH  18  22
ATOM     22  C   UNL     1       0.545   9.565  19.882  0.00  0.00    +0.000 C 
BRANCH  22  23
ATOM     23  C   UNL     1       1.092  10.996  20.015  0.00  0.00    +0.000 C 
BRANCH  23  25
ATOM     24  C   UNL     1      -0.766  11.446  18.504  0.00  0.00    +0.000 C 
ATOM     25  N   UNL     1       0.274  12.037  19.349  0.00  0.00    +0.000 NA
ATOM     26  C   UNL     1      -0.344  12.899  20.361  0.00  0.00    +0.000 C 
ENDBRANCH  23  25
ENDBRANCH  22  23
ENDBRANCH  18  22
ENDBRANCH   1  19
BRANCH  16  27
ATOM     27  C   UNL     1       7.139   4.593  16.691  0.00  0.00    +0.000 C 
BRANCH  27  28
ATOM     28  C   UNL     1       7.402   5.660  15.617  0.00  0.00    +0.000 C 
BRANCH  28  29
ATOM     29  N   UNL     1       6.889   5.213  14.274  0.00  0.00    +0.000 NA
ATOM     30  C   UNL     1       7.933   5.232  13.233  0.00  0.00    +0.000 C 
ATOM     31  C   UNL     1       7.413   4.810  11.853  0.00  0.00    +0.000 C 
ATOM     32  C   UNL     1       6.755   3.446  11.911  0.00  0.00    +0.000 C 
ATOM     33  C   UNL     1       5.685   3.437  12.992  0.00  0.00    +0.000 C 
ATOM     34  C   UNL     1       6.242   3.895  14.351  0.00  0.00    +0.000 C 
ENDBRANCH  28  29
ENDBRANCH  27  28
ENDBRANCH  16  27
TORSDOF 7
ENDMDL
MODEL 5
REMARK VINA RESULT:      -7.7      1.766      8.117
REMARK  Name = 
REMARK  9 active torsions:
REMARK  status: ('A' for Active; 'I' for Inactive)
REMARK    1  A    between atoms: C_1  and  N_2
REMARK    2  A    between atoms: N_2  and  C_3
REMARK    3  A    between atoms: N_2  and  C_4
REMARK    4  A    between atoms: C_4  and  C_5
REMARK    5  A    between atoms: C_5  and  N_6
REMARK    6  A    between atoms: C_7  and  C_9
REMARK    7  A    between atoms: N_24  and  C_25
REMARK    8  A    between atoms: C_25  and  C_26
REMARK    9  A    between atoms: C_26  and  N_27
REMARK                            x       y       z     vdW  Elec       q    Type
REMARK                         _______ _______ _______ _____ _____    ______ ____
ROOT
ATOM      1  C   UNL     1       3.959   6.817  17.293  0.00  0.00    +0.000 A 
ATOM      2  C   UNL     1       3.468   8.143  17.209  0.00  0.00    +0.000 A 
ATOM      3  C   UNL     1       2.645   8.683  18.203  0.00  0.00    +0.000 A 
ATOM      4  C   UNL     1       2.322   7.836  19.250  0.00  0.00    +0.000 A 
ATOM      5  C   UNL     1       2.728   6.522  19.246  0.00  0.00    +0.000 A 
ATOM      6  C   UNL     1       2.166   5.848  20.315  0.00  0.00    +0.000 A 
ATOM      7  C   UNL     1       2.552   4.519  20.534  0.00  0.00    +0.000 A 
ATOM      8  C   UNL     1       2.115   3.739  21.603  0.00  0.00    +0.000 A 
ATOM      9  C   UNL     1       2.597   2.429  21.728  0.00  0.00    +0.000 A 
ATOM     10  C   UNL     1       3.491   1.905  20.792  0.00  0.00    +0.000 A 
ATOM     11  C   UNL     1       3.914   2.690  19.720  0.00  0.00    +0.000 A 
ATOM     12  C   UNL     1       3.470   3.990  19.566  0.00  0.00    +0.000 A 
ATOM     13  N   UNL     1       3.947   4.673  18.508  0.00  0.00    +0.000 NA
ATOM     14  C   UNL     1       3.572   5.962  18.330  0.00  0.00    +0.000 A 
ATOM     15  N   UNL     1       1.296   6.767  20.976  0.00  0.00    +0.000 N 
ATOM     16  N   UNL     1       1.540   8.068  20.402  0.00  0.00    +0.000 N 
ATOM     17  H   UNL     1       1.107   6.730  21.977  0.00  0.00    +0.000 HD
ENDROOT
BRANCH   1  19
ATOM     18  N   UNL     1       5.758   5.343  16.570  0.00  0.00    +0.000 N 
ATOM     19  C   UNL     1       4.926   6.390  16.251  0.00  0.00    +0.000 C 
ATOM     20  O   UNL     1       4.993   7.002  15.189  0.00  0.00    +0.000 OA
ATOM     21  H   UNL     1       5.488   4.730  17.342  0.00  0.00    +0.000 HD
BRANCH  18  22
ATOM     22  C   UNL     1       6.741   4.854  15.633  0.00  0.00    +0.000 C 
BRANCH  22  23
ATOM     23  C   UNL     1       6.180   3.751  14.718  0.00  0.00    +0.000 C 
BRANCH  23  25
ATOM     24  C   UNL     1       5.727   3.454  12.342  0.00  0.00    +0.000 C 
ATOM     25  N   UNL     1       6.753   3.729  13.351  0.00  0.00    +0.000 NA
ATOM     26  C   UNL     1       7.392   5.017  13.065  0.00  0.00    +0.000 C 
ENDBRANCH  23  25
ENDBRANCH  22  23
ENDBRANCH  18  22
ENDBRANCH   1  19
BRANCH  16  27
ATOM     27  C   UNL     1       0.569   9.181  20.346  0.00  0.00    +0.000 C 
BRANCH  27  28
ATOM     28  C   UNL     1       0.655  10.362  21.327  0.00  0.00    +0.000 C 
BRANCH  28  29
ATOM     29  N   UNL     1       0.393  11.667  20.626  0.00  0.00    +0.000 NA
ATOM     30  C   UNL     1       1.283  11.880  19.471  0.00  0.00    +0.000 C 
ATOM     31  C   UNL     1       1.046  13.224  18.769  0.00  0.00    +0.000 C 
ATOM     32  C   UNL     1      -0.403  13.373  18.349  0.00  0.00    +0.000 C 
ATOM     33  C   UNL     1      -1.311  13.144  19.548  0.00  0.00    +0.000 C 
ATOM     34  C   UNL     1      -1.020  11.801  20.237  0.00  0.00    +0.000 C 
ENDBRANCH  28  29
ENDBRANCH  27  28
ENDBRANCH  16  27
TORSDOF 7
ENDMDL
MODEL 6
REMARK VINA RESULT:      -7.7      1.491      8.716
REMARK  Name = 
REMARK  9 active torsions:
REMARK  status: ('A' for Active; 'I' for Inactive)
REMARK    1  A    between atoms: C_1  and  N_2
REMARK    2  A    between atoms: N_2  and  C_3
REMARK    3  A    between atoms: N_2  and  C_4
REMARK    4  A    between atoms: C_4  and  C_5
REMARK    5  A    between atoms: C_5  and  N_6
REMARK    6  A    between atoms: C_7  and  C_9
REMARK    7  A    between atoms: N_24  and  C_25
REMARK    8  A    between atoms: C_25  and  C_26
REMARK    9  A    between atoms: C_26  and  N_27
REMARK                            x       y       z     vdW  Elec       q    Type
REMARK                         _______ _______ _______ _____ _____    ______ ____
ROOT
ATOM      1  C   UNL     1       3.936   6.880  17.287  0.00  0.00    +0.000 A 
ATOM      2  C   UNL     1       3.467   8.214  17.196  0.00  0.00    +0.000 A 
ATOM      3  C   UNL     1       2.653   8.771  18.189  0.00  0.00    +0.000 A 
ATOM      4  C   UNL     1       2.318   7.935  19.240  0.00  0.00    +0.000 A 
ATOM      5  C   UNL     1       2.703   6.615  19.242  0.00  0.00    +0.000 A 
ATOM      6  C   UNL     1       2.131   5.955  20.315  0.00  0.00    +0.000 A 
ATOM      7  C   UNL     1       2.496   4.621  20.541  0.00  0.00    +0.000 A 
ATOM      8  C   UNL     1       2.047   3.854  21.614  0.00  0.00    +0.000 A 
ATOM      9  C   UNL     1       2.508   2.537  21.745  0.00  0.00    +0.000 A 
ATOM     10  C   UNL     1       3.393   1.994  20.811  0.00  0.00    +0.000 A 
ATOM     11  C   UNL     1       3.828   2.767  19.735  0.00  0.00    +0.000 A 
ATOM     12  C   UNL     1       3.405   4.072  19.574  0.00  0.00    +0.000 A 
ATOM     13  N   UNL     1       3.891   4.743  18.512  0.00  0.00    +0.000 NA
ATOM     14  C   UNL     1       3.536   6.037  18.328  0.00  0.00    +0.000 A 
ATOM     15  N   UNL     1       1.276   6.891  20.972  0.00  0.00    +0.000 N 
ATOM     16  N   UNL     1       1.540   8.186  20.392  0.00  0.00    +0.000 N 
ATOM     17  H   UNL     1       1.088   6.862  21.973  0.00  0.00    +0.000 HD
ENDROOT
BRANCH   1  19
ATOM     18  N   UNL     1       5.699   5.364  16.564  0.00  0.00    +0.000 N 
ATOM     19  C   UNL     1       4.895   6.433  16.246  0.00  0.00    +0.000 C 
ATOM     20  O   UNL     1       4.981   7.047  15.187  0.00  0.00    +0.000 OA
ATOM     21  H   UNL     1       5.412   4.755  17.332  0.00  0.00    +0.000 HD
BRANCH  18  22
ATOM     22  C   UNL     1       6.673   4.853  15.628  0.00  0.00    +0.000 C 
BRANCH  22  23
ATOM     23  C   UNL     1       6.043   3.924  14.576  0.00  0.00    +0.000 C 
BRANCH  23  25
ATOM     24  C   UNL     1       6.024   3.282  12.224  0.00  0.00    +0.000 C 
ATOM     25  N   UNL     1       6.846   3.749  13.343  0.00  0.00    +0.000 NA
ATOM     26  C   UNL     1       7.485   5.020  12.987  0.00  0.00    +0.000 C 
ENDBRANCH  23  25
ENDBRANCH  22  23
ENDBRANCH  18  22
ENDBRANCH   1  19
BRANCH  16  27
ATOM     27  C   UNL     1       0.588   9.314  20.331  0.00  0.00    +0.000 C 
BRANCH  27  28
ATOM     28  C   UNL     1       0.550  10.383  21.434  0.00  0.00    +0.000 C 
BRANCH  28  29
ATOM     29  N   UNL     1      -0.832  10.961  21.580  0.00  0.00    +0.000 NA
ATOM     30  C   UNL     1      -1.091  11.476  22.936  0.00  0.00    +0.000 C 
ATOM     31  C   UNL     1      -2.510  12.036  23.106  0.00  0.00    +0.000 C 
ATOM     32  C   UNL     1      -2.800  13.108  22.074  0.00  0.00    +0.000 C 
ATOM     33  C   UNL     1      -2.522  12.567  20.679  0.00  0.00    +0.000 C 
ATOM     34  C   UNL     1      -1.102  11.989  20.563  0.00  0.00    +0.000 C 
ENDBRANCH  28  29
ENDBRANCH  27  28
ENDBRANCH  16  27
TORSDOF 7
ENDMDL
MODEL 7
REMARK VINA RESULT:      -7.6      0.864      1.266
REMARK  Name = 
REMARK  9 active torsions:
REMARK  status: ('A' for Active; 'I' for Inactive)
REMARK    1  A    between atoms: C_1  and  N_2
REMARK    2  A    between atoms: N_2  and  C_3
REMARK    3  A    between atoms: N_2  and  C_4
REMARK    4  A    between atoms: C_4  and  C_5
REMARK    5  A    between atoms: C_5  and  N_6
REMARK    6  A    between atoms: C_7  and  C_9
REMARK    7  A    between atoms: N_24  and  C_25
REMARK    8  A    between atoms: C_25  and  C_26
REMARK    9  A    between atoms: C_26  and  N_27
REMARK                            x       y       z     vdW  Elec       q    Type
REMARK                         _______ _______ _______ _____ _____    ______ ____
ROOT
ATOM      1  C   UNL     1       2.454   7.948  18.531  0.00  0.00    +0.000 A 
ATOM      2  C   UNL     1       3.349   8.521  17.593  0.00  0.00    +0.000 A 
ATOM      3  C   UNL     1       4.414   7.787  17.058  0.00  0.00    +0.000 A 
ATOM      4  C   UNL     1       4.550   6.489  17.519  0.00  0.00    +0.000 A 
ATOM      5  C   UNL     1       3.728   6.001  18.508  0.00  0.00    +0.000 A 
ATOM      6  C   UNL     1       4.149   4.742  18.898  0.00  0.00    +0.000 A 
ATOM      7  C   UNL     1       3.366   4.043  19.825  0.00  0.00    +0.000 A 
ATOM      8  C   UNL     1       3.635   2.747  20.261  0.00  0.00    +0.000 A 
ATOM      9  C   UNL     1       2.759   2.143  21.173  0.00  0.00    +0.000 A 
ATOM     10  C   UNL     1       1.639   2.829  21.649  0.00  0.00    +0.000 A 
ATOM     11  C   UNL     1       1.386   4.130  21.214  0.00  0.00    +0.000 A 
ATOM     12  C   UNL     1       2.220   4.758  20.309  0.00  0.00    +0.000 A 
ATOM     13  N   UNL     1       1.883   6.008  19.937  0.00  0.00    +0.000 NA
ATOM     14  C   UNL     1       2.647   6.655  19.025  0.00  0.00    +0.000 A 
ATOM     15  N   UNL     1       5.348   4.462  18.173  0.00  0.00    +0.000 N 
ATOM     16  N   UNL     1       5.491   5.494  17.176  0.00  0.00    +0.000 N 
ATOM     17  H   UNL     1       5.626   3.518  17.907  0.00  0.00    +0.000 HD
ENDROOT
BRANCH   1  19
ATOM     18  N   UNL     1       0.974   8.784  20.274  0.00  0.00    +0.000 N 
ATOM     19  C   UNL     1       1.287   8.772  18.936  0.00  0.00    +0.000 C 
ATOM     20  O   UNL     1       0.622   9.354  18.084  0.00  0.00    +0.000 OA
ATOM     21  H   UNL     1       1.692   8.499  20.942  0.00  0.00    +0.000 HD
BRANCH  18  22
ATOM     22  C   UNL     1      -0.146   9.545  20.776  0.00  0.00    +0.000 C 
BRANCH  22  23
ATOM     23  C   UNL     1       0.267  10.947  21.258  0.00  0.00    +0.000 C 
BRANCH  23  25
ATOM     24  C   UNL     1      -1.030  12.440  22.682  0.00  0.00    +0.000 C 
ATOM     25  N   UNL     1      -0.147  11.272  22.643  0.00  0.00    +0.000 NA
ATOM     26  C   UNL     1      -0.829  10.119  23.237  0.00  0.00    +0.000 C 
ENDBRANCH  23  25
ENDBRANCH  22  23
ENDBRANCH  18  22
ENDBRANCH   1  19
BRANCH  16  27
ATOM     27  C   UNL     1       6.766   5.947  16.582  0.00  0.00    +0.000 C 
BRANCH  27  28
ATOM     28  C   UNL     1       7.599   5.020  15.682  0.00  0.00    +0.000 C 
BRANCH  28  29
ATOM     29  N   UNL     1       6.984   4.900  14.314  0.00  0.00    +0.000 NA
ATOM     30  C   UNL     1       7.981   4.986  13.233  0.00  0.00    +0.000 C 
ATOM     31  C   UNL     1       7.360   4.898  11.832  0.00  0.00    +0.000 C 
ATOM     32  C   UNL     1       6.532   3.638  11.681  0.00  0.00    +0.000 C 
ATOM     33  C   UNL     1       5.511   3.556  12.805  0.00  0.00    +0.000 C 
ATOM     34  C   UNL     1       6.173   3.678  14.188  0.00  0.00    +0.000 C 
ENDBRANCH  28  29
ENDBRANCH  27  28
ENDBRANCH  16  27
TORSDOF 7
ENDMDL
MODEL 8
REMARK VINA RESULT:      -7.6      1.935      8.224
REMARK  Name = 
REMARK  9 active torsions:
REMARK  status: ('A' for Active; 'I' for Inactive)
REMARK    1  A    between atoms: C_1  and  N_2
REMARK    2  A    between atoms: N_2  and  C_3
REMARK    3  A    between atoms: N_2  and  C_4
REMARK    4  A    between atoms: C_4  and  C_5
REMARK    5  A    between atoms: C_5  and  N_6
REMARK    6  A    between atoms: C_7  and  C_9
REMARK    7  A    between atoms: N_24  and  C_25
REMARK    8  A    between atoms: C_25  and  C_26
REMARK    9  A    between atoms: C_26  and  N_27
REMARK                            x       y       z     vdW  Elec       q    Type
REMARK                         _______ _______ _______ _____ _____    ______ ____
ROOT
ATOM      1  C   UNL     1       4.261   6.536  17.256  0.00  0.00    +0.000 A 
ATOM      2  C   UNL     1       3.813   7.863  17.040  0.00  0.00    +0.000 A 
ATOM      3  C   UNL     1       2.934   8.491  17.930  0.00  0.00    +0.000 A 
ATOM      4  C   UNL     1       2.513   7.731  19.007  0.00  0.00    +0.000 A 
ATOM      5  C   UNL     1       2.883   6.412  19.127  0.00  0.00    +0.000 A 
ATOM      6  C   UNL     1       2.226   5.830  20.197  0.00  0.00    +0.000 A 
ATOM      7  C   UNL     1       2.560   4.512  20.538  0.00  0.00    +0.000 A 
ATOM      8  C   UNL     1       2.025   3.823  21.624  0.00  0.00    +0.000 A 
ATOM      9  C   UNL     1       2.461   2.515  21.878  0.00  0.00    +0.000 A 
ATOM     10  C   UNL     1       3.407   1.905  21.051  0.00  0.00    +0.000 A 
ATOM     11  C   UNL     1       3.928   2.601  19.961  0.00  0.00    +0.000 A 
ATOM     12  C   UNL     1       3.532   3.894  19.681  0.00  0.00    +0.000 A 
ATOM     13  N   UNL     1       4.102   4.488  18.616  0.00  0.00    +0.000 NA
ATOM     14  C   UNL     1       3.776   5.768  18.319  0.00  0.00    +0.000 A 
ATOM     15  N   UNL     1       1.335   6.813  20.723  0.00  0.00    +0.000 N 
ATOM     16  N   UNL     1       1.655   8.064  20.078  0.00  0.00    +0.000 N 
ATOM     17  H   UNL     1       1.073   6.854  21.707  0.00  0.00    +0.000 HD
ENDROOT
BRANCH   1  19
ATOM     18  N   UNL     1       5.111   4.732  15.860  0.00  0.00    +0.000 N 
ATOM     19  C   UNL     1       5.289   6.014  16.322  0.00  0.00    +0.000 C 
ATOM     20  O   UNL     1       6.269   6.699  16.043  0.00  0.00    +0.000 OA
ATOM     21  H   UNL     1       4.178   4.321  15.921  0.00  0.00    +0.000 HD
BRANCH  18  22
ATOM     22  C   UNL     1       6.056   4.122  14.954  0.00  0.00    +0.000 C 
BRANCH  22  23
ATOM     23  C   UNL     1       5.474   3.929  13.543  0.00  0.00    +0.000 C 
BRANCH  23  25
ATOM     24  C   UNL     1       5.616   2.440  11.618  0.00  0.00    +0.000 C 
ATOM     25  N   UNL     1       6.372   3.232  12.592  0.00  0.00    +0.000 NA
ATOM     26  C   UNL     1       7.203   4.214  11.889  0.00  0.00    +0.000 C 
ENDBRANCH  23  25
ENDBRANCH  22  23
ENDBRANCH  18  22
ENDBRANCH   1  19
BRANCH  16  27
ATOM     27  C   UNL     1       0.722   9.190  19.870  0.00  0.00    +0.000 C 
BRANCH  27  28
ATOM     28  C   UNL     1       0.585  10.312  20.911  0.00  0.00    +0.000 C 
BRANCH  28  29
ATOM     29  N   UNL     1       1.268  11.569  20.444  0.00  0.00    +0.000 NA
ATOM     30  C   UNL     1       1.344  11.662  18.976  0.00  0.00    +0.000 C 
ATOM     31  C   UNL     1       2.069  12.924  18.490  0.00  0.00    +0.000 C 
ATOM     32  C   UNL     1       1.430  14.174  19.061  0.00  0.00    +0.000 C 
ATOM     33  C   UNL     1       1.350  14.064  20.576  0.00  0.00    +0.000 C 
ATOM     34  C   UNL     1       0.644  12.772  21.018  0.00  0.00    +0.000 C 
ENDBRANCH  28  29
ENDBRANCH  27  28
ENDBRANCH  16  27
TORSDOF 7
ENDMDL
MODEL 9
REMARK VINA RESULT:      -7.6      1.799      8.242
REMARK  Name = 
REMARK  9 active torsions:
REMARK  status: ('A' for Active; 'I' for Inactive)
REMARK    1  A    between atoms: C_1  and  N_2
REMARK    2  A    between atoms: N_2  and  C_3
REMARK    3  A    between atoms: N_2  and  C_4
REMARK    4  A    between atoms: C_4  and  C_5
REMARK    5  A    between atoms: C_5  and  N_6
REMARK    6  A    between atoms: C_7  and  C_9
REMARK    7  A    between atoms: N_24  and  C_25
REMARK    8  A    between atoms: C_25  and  C_26
REMARK    9  A    between atoms: C_26  and  N_27
REMARK                            x       y       z     vdW  Elec       q    Type
REMARK                         _______ _______ _______ _____ _____    ______ ____
ROOT
ATOM      1  C   UNL     1       4.028   6.806  17.298  0.00  0.00    +0.000 A 
ATOM      2  C   UNL     1       3.535   8.130  17.187  0.00  0.00    +0.000 A 
ATOM      3  C   UNL     1       2.685   8.677  18.155  0.00  0.00    +0.000 A 
ATOM      4  C   UNL     1       2.339   7.840  19.202  0.00  0.00    +0.000 A 
ATOM      5  C   UNL     1       2.749   6.527  19.222  0.00  0.00    +0.000 A 
ATOM      6  C   UNL     1       2.162   5.862  20.283  0.00  0.00    +0.000 A 
ATOM      7  C   UNL     1       2.547   4.537  20.525  0.00  0.00    +0.000 A 
ATOM      8  C   UNL     1       2.086   3.767  21.591  0.00  0.00    +0.000 A 
ATOM      9  C   UNL     1       2.568   2.459  21.741  0.00  0.00    +0.000 A 
ATOM     10  C   UNL     1       3.488   1.929  20.834  0.00  0.00    +0.000 A 
ATOM     11  C   UNL     1       3.935   2.705  19.765  0.00  0.00    +0.000 A 
ATOM     12  C   UNL     1       3.491   4.001  19.586  0.00  0.00    +0.000 A 
ATOM     13  N   UNL     1       3.992   4.675  18.533  0.00  0.00    +0.000 NA
ATOM     14  C   UNL     1       3.617   5.961  18.333  0.00  0.00    +0.000 A 
ATOM     15  N   UNL     1       1.273   6.785  20.912  0.00  0.00    +0.000 N 
ATOM     16  N   UNL     1       1.527   8.081  20.332  0.00  0.00    +0.000 N 
ATOM     17  H   UNL     1       1.059   6.757  21.908  0.00  0.00    +0.000 HD
ENDROOT
BRANCH   1  19
ATOM     18  N   UNL     1       5.887   5.371  16.656  0.00  0.00    +0.000 N 
ATOM     19  C   UNL     1       5.022   6.373  16.284  0.00  0.00    +0.000 C 
ATOM     20  O   UNL     1       5.080   6.942  15.199  0.00  0.00    +0.000 OA
ATOM     21  H   UNL     1       5.631   4.781  17.450  0.00  0.00    +0.000 HD
BRANCH  18  22
ATOM     22  C   UNL     1       6.899   4.879  15.751  0.00  0.00    +0.000 C 
BRANCH  22  23
ATOM     23  C   UNL     1       6.332   3.887  14.721  0.00  0.00    +0.000 C 
BRANCH  23  25
ATOM     24  C   UNL     1       7.641   4.995  12.989  0.00  0.00    +0.000 C 
ATOM     25  N   UNL     1       6.360   4.366  13.318  0.00  0.00    +0.000 NA
ATOM     26  C   UNL     1       6.114   3.243  12.410  0.00  0.00    +0.000 C 
ENDBRANCH  23  25
ENDBRANCH  22  23
ENDBRANCH  18  22
ENDBRANCH   1  19
BRANCH  16  27
ATOM     27  C   UNL     1       0.555   9.190  20.240  0.00  0.00    +0.000 C 
BRANCH  27  28
ATOM     28  C   UNL     1       0.834  10.550  20.899  0.00  0.00    +0.000 C 
BRANCH  28  29
ATOM     29  N   UNL     1       0.042  11.645  20.237  0.00  0.00    +0.000 NA
ATOM     30  C   UNL     1      -0.332  12.720  21.173  0.00  0.00    +0.000 C 
ATOM     31  C   UNL     1      -1.169  13.826  20.515  0.00  0.00    +0.000 C 
ATOM     32  C   UNL     1      -0.457  14.404  19.309  0.00  0.00    +0.000 C 
ATOM     33  C   UNL     1      -0.070  13.285  18.355  0.00  0.00    +0.000 C 
ATOM     34  C   UNL     1       0.741  12.186  19.061  0.00  0.00    +0.000 C 
ENDBRANCH  28  29
ENDBRANCH  27  28
ENDBRANCH  16  27
TORSDOF 7
ENDMDL
