MODEL 1
REMARK VINA RESULT:      -7.9      0.000      0.000
REMARK  Name = 
REMARK  4 active torsions:
REMARK  status: ('A' for Active; 'I' for Inactive)
REMARK    1  A    between atoms: C_1  and  C_2
REMARK    2  A    between atoms: C_2  and  N_3
REMARK    3  A    between atoms: C_7  and  C_8
REMARK    4  A    between atoms: N_18  and  C_19
REMARK                            x       y       z     vdW  Elec       q    Type
REMARK                         _______ _______ _______ _____ _____    ______ ____
ROOT
ATOM      1  C   UNL     1      -1.393  13.594  20.391  0.00  0.00    +0.000 A 
ATOM      2  N   UNL     1      -1.235  14.781  19.888  0.00  0.00    +0.000 NA
ATOM      3  C   UNL     1       0.038  15.223  19.542  0.00  0.00    +0.000 A 
ATOM      4  C   UNL     1       0.161  16.384  18.775  0.00  0.00    +0.000 A 
ATOM      5  C   UNL     1       1.419  16.841  18.375  0.00  0.00    +0.000 A 
ATOM      6  C   UNL     1       2.564  16.143  18.755  0.00  0.00    +0.000 A 
ATOM      7  C   UNL     1       2.449  14.980  19.515  0.00  0.00    +0.000 A 
ATOM      8  C   UNL     1       1.181  14.520  19.892  0.00  0.00    +0.000 A 
ATOM      9  C   UNL     1       1.005  13.247  20.609  0.00  0.00    +0.000 A 
ATOM     10  O   UNL     1       2.010  12.665  21.009  0.00  0.00    +0.000 OA
ATOM     11  N   UNL     1      -0.318  12.787  20.740  0.00  0.00    +0.000 N 
ENDROOT
BRANCH   1  16
ATOM     12  N   UNL     1      -5.578  11.834  18.929  0.00  0.00    +0.000 N 
ATOM     13  C   UNL     1      -5.032  12.354  20.102  0.00  0.00    +0.000 C 
ATOM     14  O   UNL     1      -5.608  12.711  21.115  0.00  0.00    +0.000 OA
ATOM     15  C   UNL     1      -3.550  12.451  19.836  0.00  0.00    +0.000 C 
ATOM     16  C   UNL     1      -2.776  13.135  20.703  0.00  0.00    +0.000 C 
ATOM     17  C   UNL     1      -3.316  11.876  18.504  0.00  0.00    +0.000 A 
ATOM     18  C   UNL     1      -2.177  11.603  17.765  0.00  0.00    +0.000 A 
ATOM     19  C   UNL     1      -2.312  11.148  16.452  0.00  0.00    +0.000 A 
ATOM     20  C   UNL     1      -3.581  10.893  15.915  0.00  0.00    +0.000 A 
ATOM     21  C   UNL     1      -4.728  11.082  16.688  0.00  0.00    +0.000 A 
ATOM     22  C   UNL     1      -4.577  11.572  17.976  0.00  0.00    +0.000 A 
BRANCH  12  24
ATOM     23  C   UNL     1      -7.607  12.988  18.146  0.00  0.00    +0.000 C 
ATOM     24  C   UNL     1      -6.997  11.702  18.684  0.00  0.00    +0.000 C 
ENDBRANCH  12  24
ENDBRANCH   1  16
BRANCH  11  25
ATOM     25  C   UNL     1      -0.475  11.486  21.295  0.00  0.00    +0.000 A 
ATOM     26  C   UNL     1      -0.736  11.351  22.666  0.00  0.00    +0.000 A 
ATOM     27  C   UNL     1      -0.719  10.093  23.263  0.00  0.00    +0.000 A 
ATOM     28  C   UNL     1      -0.422   8.966  22.500  0.00  0.00    +0.000 A 
ATOM     29  C   UNL     1      -0.180   9.091  21.131  0.00  0.00    +0.000 A 
ATOM     30  C   UNL     1      -0.220  10.350  20.522  0.00  0.00    +0.000 A 
ENDBRANCH  11  25
TORSDOF 3
ENDMDL
MODEL 2
REMARK VINA RESULT:      -7.6      0.479      1.105
REMARK  Name = 
REMARK  4 active torsions:
REMARK  status: ('A' for Active; 'I' for Inactive)
REMARK    1  A    between atoms: C_1  and  C_2
REMARK    2  A    between atoms: C_2  and  N_3
REMARK    3  A    between atoms: C_7  and  C_8
REMARK    4  A    between atoms: N_18  and  C_19
REMARK                            x       y       z     vdW  Elec       q    Type
REMARK                         _______ _______ _______ _____ _____    ______ ____
ROOT
ATOM      1  C   UNL     1      -1.186  13.740  20.467  0.00  0.00    +0.000 A 
ATOM      2  N   UNL     1      -1.112  14.919  19.928  0.00  0.00    +0.000 NA
ATOM      3  C   UNL     1       0.114  15.400  19.480  0.00  0.00    +0.000 A 
ATOM      4  C   UNL     1       0.136  16.545  18.680  0.00  0.00    +0.000 A 
ATOM      5  C   UNL     1       1.342  17.039  18.180  0.00  0.00    +0.000 A 
ATOM      6  C   UNL     1       2.539  16.395  18.492  0.00  0.00    +0.000 A 
ATOM      7  C   UNL     1       2.525  15.249  19.284  0.00  0.00    +0.000 A 
ATOM      8  C   UNL     1       1.307  14.751  19.763  0.00  0.00    +0.000 A 
ATOM      9  C   UNL     1       1.233  13.491  20.519  0.00  0.00    +0.000 A 
ATOM     10  O   UNL     1       2.286  12.958  20.859  0.00  0.00    +0.000 OA
ATOM     11  N   UNL     1      -0.058  12.984  20.756  0.00  0.00    +0.000 N 
ENDROOT
BRANCH   1  16
ATOM     12  N   UNL     1      -5.404  11.816  19.348  0.00  0.00    +0.000 N 
ATOM     13  C   UNL     1      -4.790  12.370  20.470  0.00  0.00    +0.000 C 
ATOM     14  O   UNL     1      -5.299  12.719  21.520  0.00  0.00    +0.000 OA
ATOM     15  C   UNL     1      -3.337  12.515  20.090  0.00  0.00    +0.000 C 
ATOM     16  C   UNL     1      -2.525  13.237  20.889  0.00  0.00    +0.000 C 
ATOM     17  C   UNL     1      -3.184  11.931  18.750  0.00  0.00    +0.000 A 
ATOM     18  C   UNL     1      -2.096  11.689  17.929  0.00  0.00    +0.000 A 
ATOM     19  C   UNL     1      -2.314  11.213  16.636  0.00  0.00    +0.000 A 
ATOM     20  C   UNL     1      -3.611  10.907  16.200  0.00  0.00    +0.000 A 
ATOM     21  C   UNL     1      -4.701  11.065  17.056  0.00  0.00    +0.000 A 
ATOM     22  C   UNL     1      -4.471  11.576  18.324  0.00  0.00    +0.000 A 
BRANCH  12  24
ATOM     23  C   UNL     1      -7.294  10.302  19.796  0.00  0.00    +0.000 C 
ATOM     24  C   UNL     1      -6.833  11.630  19.214  0.00  0.00    +0.000 C 
ENDBRANCH  12  24
ENDBRANCH   1  16
BRANCH  11  25
ATOM     25  C   UNL     1      -0.123  11.693  21.351  0.00  0.00    +0.000 A 
ATOM     26  C   UNL     1       0.134  10.560  20.565  0.00  0.00    +0.000 A 
ATOM     27  C   UNL     1      -0.094   9.285  21.077  0.00  0.00    +0.000 A 
ATOM     28  C   UNL     1      -0.597   9.134  22.368  0.00  0.00    +0.000 A 
ATOM     29  C   UNL     1      -0.836  10.257  23.162  0.00  0.00    +0.000 A 
ATOM     30  C   UNL     1      -0.585  11.539  22.661  0.00  0.00    +0.000 A 
ENDBRANCH  11  25
TORSDOF 3
ENDMDL
MODEL 3
REMARK VINA RESULT:      -6.9      2.481      4.108
REMARK  Name = 
REMARK  4 active torsions:
REMARK  status: ('A' for Active; 'I' for Inactive)
REMARK    1  A    between atoms: C_1  and  C_2
REMARK    2  A    between atoms: C_2  and  N_3
REMARK    3  A    between atoms: C_7  and  C_8
REMARK    4  A    between atoms: N_18  and  C_19
REMARK                            x       y       z     vdW  Elec       q    Type
REMARK                         _______ _______ _______ _____ _____    ______ ____
ROOT
ATOM      1  C   UNL     1      -1.194  13.722  20.279  0.00  0.00    +0.000 A 
ATOM      2  N   UNL     1      -0.967  14.893  19.767  0.00  0.00    +0.000 NA
ATOM      3  C   UNL     1       0.328  15.255  19.410  0.00  0.00    +0.000 A 
ATOM      4  C   UNL     1       0.517  16.401  18.634  0.00  0.00    +0.000 A 
ATOM      5  C   UNL     1       1.797  16.778  18.223  0.00  0.00    +0.000 A 
ATOM      6  C   UNL     1       2.900  16.014  18.602  0.00  0.00    +0.000 A 
ATOM      7  C   UNL     1       2.720  14.866  19.371  0.00  0.00    +0.000 A 
ATOM      8  C   UNL     1       1.429  14.487  19.758  0.00  0.00    +0.000 A 
ATOM      9  C   UNL     1       1.180  13.232  20.485  0.00  0.00    +0.000 A 
ATOM     10  O   UNL     1       2.150  12.593  20.884  0.00  0.00    +0.000 OA
ATOM     11  N   UNL     1      -0.167  12.853  20.627  0.00  0.00    +0.000 N 
ENDROOT
BRANCH   1  16
ATOM     12  N   UNL     1      -4.667  13.138  23.495  0.00  0.00    +0.000 N 
ATOM     13  C   UNL     1      -4.461  12.876  22.141  0.00  0.00    +0.000 C 
ATOM     14  O   UNL     1      -5.121  12.174  21.395  0.00  0.00    +0.000 OA
ATOM     15  C   UNL     1      -3.186  13.602  21.790  0.00  0.00    +0.000 C 
ATOM     16  C   UNL     1      -2.600  13.349  20.602  0.00  0.00    +0.000 C 
ATOM     17  C   UNL     1      -2.768  14.337  22.991  0.00  0.00    +0.000 A 
ATOM     18  C   UNL     1      -1.751  15.239  23.256  0.00  0.00    +0.000 A 
ATOM     19  C   UNL     1      -1.557  15.676  24.567  0.00  0.00    +0.000 A 
ATOM     20  C   UNL     1      -2.428  15.273  25.588  0.00  0.00    +0.000 A 
ATOM     21  C   UNL     1      -3.509  14.435  25.307  0.00  0.00    +0.000 A 
ATOM     22  C   UNL     1      -3.663  13.978  24.007  0.00  0.00    +0.000 A 
BRANCH  12  24
ATOM     23  C   UNL     1      -7.044  13.232  24.130  0.00  0.00    +0.000 C 
ATOM     24  C   UNL     1      -5.707  12.524  24.291  0.00  0.00    +0.000 C 
ENDBRANCH  12  24
ENDBRANCH   1  16
BRANCH  11  25
ATOM     25  C   UNL     1      -0.399  11.569  21.193  0.00  0.00    +0.000 A 
ATOM     26  C   UNL     1      -0.613  11.455  22.574  0.00  0.00    +0.000 A 
ATOM     27  C   UNL     1      -0.667  10.199  23.175  0.00  0.00    +0.000 A 
ATOM     28  C   UNL     1      -0.488   9.052  22.404  0.00  0.00    +0.000 A 
ATOM     29  C   UNL     1      -0.294   9.158  21.026  0.00  0.00    +0.000 A 
ATOM     30  C   UNL     1      -0.263  10.416  20.414  0.00  0.00    +0.000 A 
ENDBRANCH  11  25
TORSDOF 3
ENDMDL
MODEL 4
REMARK VINA RESULT:      -6.8      3.114      6.633
REMARK  Name = 
REMARK  4 active torsions:
REMARK  status: ('A' for Active; 'I' for Inactive)
REMARK    1  A    between atoms: C_1  and  C_2
REMARK    2  A    between atoms: C_2  and  N_3
REMARK    3  A    between atoms: C_7  and  C_8
REMARK    4  A    between atoms: N_18  and  C_19
REMARK                            x       y       z     vdW  Elec       q    Type
REMARK                         _______ _______ _______ _____ _____    ______ ____
ROOT
ATOM      1  C   UNL     1      -3.598  12.843  22.848  0.00  0.00    +0.000 A 
ATOM      2  N   UNL     1      -4.583  12.283  22.213  0.00  0.00    +0.000 NA
ATOM      3  C   UNL     1      -5.665  13.052  21.796  0.00  0.00    +0.000 A 
ATOM      4  C   UNL     1      -6.582  12.493  20.902  0.00  0.00    +0.000 A 
ATOM      5  C   UNL     1      -7.661  13.243  20.431  0.00  0.00    +0.000 A 
ATOM      6  C   UNL     1      -7.836  14.556  20.865  0.00  0.00    +0.000 A 
ATOM      7  C   UNL     1      -6.922  15.123  21.752  0.00  0.00    +0.000 A 
ATOM      8  C   UNL     1      -5.832  14.367  22.201  0.00  0.00    +0.000 A 
ATOM      9  C   UNL     1      -4.790  14.953  23.059  0.00  0.00    +0.000 A 
ATOM     10  O   UNL     1      -4.974  16.083  23.503  0.00  0.00    +0.000 OA
ATOM     11  N   UNL     1      -3.641  14.167  23.264  0.00  0.00    +0.000 N 
ENDROOT
BRANCH   1  16
ATOM     12  N   UNL     1       0.366  10.486  21.631  0.00  0.00    +0.000 N 
ATOM     13  C   UNL     1      -0.442  10.630  22.758  0.00  0.00    +0.000 C 
ATOM     14  O   UNL     1      -0.449   9.964  23.777  0.00  0.00    +0.000 OA
ATOM     15  C   UNL     1      -1.376  11.769  22.428  0.00  0.00    +0.000 C 
ATOM     16  C   UNL     1      -2.432  11.998  23.234  0.00  0.00    +0.000 C 
ATOM     17  C   UNL     1      -0.973  12.285  21.113  0.00  0.00    +0.000 A 
ATOM     18  C   UNL     1      -1.380  13.360  20.340  0.00  0.00    +0.000 A 
ATOM     19  C   UNL     1      -0.858  13.507  19.054  0.00  0.00    +0.000 A 
ATOM     20  C   UNL     1       0.124  12.627  18.580  0.00  0.00    +0.000 A 
ATOM     21  C   UNL     1       0.602  11.596  19.390  0.00  0.00    +0.000 A 
ATOM     22  C   UNL     1       0.044  11.440  20.650  0.00  0.00    +0.000 A 
BRANCH  12  24
ATOM     23  C   UNL     1       0.641   8.087  21.149  0.00  0.00    +0.000 C 
ATOM     24  C   UNL     1       1.321   9.415  21.449  0.00  0.00    +0.000 C 
ENDBRANCH  12  24
ENDBRANCH   1  16
BRANCH  11  25
ATOM     25  C   UNL     1      -2.572  14.793  23.964  0.00  0.00    +0.000 A 
ATOM     26  C   UNL     1      -2.615  14.863  25.364  0.00  0.00    +0.000 A 
ATOM     27  C   UNL     1      -1.674  15.621  26.058  0.00  0.00    +0.000 A 
ATOM     28  C   UNL     1      -0.699  16.328  25.357  0.00  0.00    +0.000 A 
ATOM     29  C   UNL     1      -0.639  16.247  23.965  0.00  0.00    +0.000 A 
ATOM     30  C   UNL     1      -1.567  15.468  23.266  0.00  0.00    +0.000 A 
ENDBRANCH  11  25
TORSDOF 3
ENDMDL
MODEL 5
REMARK VINA RESULT:      -6.7      6.173      9.512
REMARK  Name = 
REMARK  4 active torsions:
REMARK  status: ('A' for Active; 'I' for Inactive)
REMARK    1  A    between atoms: C_1  and  C_2
REMARK    2  A    between atoms: C_2  and  N_3
REMARK    3  A    between atoms: C_7  and  C_8
REMARK    4  A    between atoms: N_18  and  C_19
REMARK                            x       y       z     vdW  Elec       q    Type
REMARK                         _______ _______ _______ _____ _____    ______ ____
ROOT
ATOM      1  C   UNL     1       3.093   6.185  18.075  0.00  0.00    +0.000 A 
ATOM      2  N   UNL     1       1.957   5.556  18.046  0.00  0.00    +0.000 NA
ATOM      3  C   UNL     1       1.918   4.186  18.290  0.00  0.00    +0.000 A 
ATOM      4  C   UNL     1       0.679   3.578  18.507  0.00  0.00    +0.000 A 
ATOM      5  C   UNL     1       0.599   2.213  18.792  0.00  0.00    +0.000 A 
ATOM      6  C   UNL     1       1.762   1.446  18.847  0.00  0.00    +0.000 A 
ATOM      7  C   UNL     1       3.002   2.047  18.638  0.00  0.00    +0.000 A 
ATOM      8  C   UNL     1       3.071   3.421  18.374  0.00  0.00    +0.000 A 
ATOM      9  C   UNL     1       4.361   4.116  18.244  0.00  0.00    +0.000 A 
ATOM     10  O   UNL     1       5.384   3.437  18.219  0.00  0.00    +0.000 OA
ATOM     11  N   UNL     1       4.307   5.521  18.198  0.00  0.00    +0.000 N 
ENDROOT
BRANCH   1  16
ATOM     12  N   UNL     1       1.197  10.474  18.945  0.00  0.00    +0.000 N 
ATOM     13  C   UNL     1       2.159   9.926  18.098  0.00  0.00    +0.000 C 
ATOM     14  O   UNL     1       2.683  10.426  17.119  0.00  0.00    +0.000 OA
ATOM     15  C   UNL     1       2.381   8.525  18.613  0.00  0.00    +0.000 C 
ATOM     16  C   UNL     1       3.091   7.660  17.860  0.00  0.00    +0.000 C 
ATOM     17  C   UNL     1       1.564   8.379  19.825  0.00  0.00    +0.000 A 
ATOM     18  C   UNL     1       1.423   7.378  20.771  0.00  0.00    +0.000 A 
ATOM     19  C   UNL     1       0.451   7.513  21.763  0.00  0.00    +0.000 A 
ATOM     20  C   UNL     1      -0.319   8.681  21.851  0.00  0.00    +0.000 A 
ATOM     21  C   UNL     1      -0.117   9.730  20.953  0.00  0.00    +0.000 A 
ATOM     22  C   UNL     1       0.825   9.563  19.949  0.00  0.00    +0.000 A 
BRANCH  12  24
ATOM     23  C   UNL     1       1.400  12.897  19.335  0.00  0.00    +0.000 C 
ATOM     24  C   UNL     1       0.576  11.765  18.739  0.00  0.00    +0.000 C 
ENDBRANCH  12  24
ENDBRANCH   1  16
BRANCH  11  25
ATOM     25  C   UNL     1       5.559   6.196  18.227  0.00  0.00    +0.000 A 
ATOM     26  C   UNL     1       5.859   7.131  17.227  0.00  0.00    +0.000 A 
ATOM     27  C   UNL     1       7.139   7.673  17.133  0.00  0.00    +0.000 A 
ATOM     28  C   UNL     1       8.130   7.269  18.025  0.00  0.00    +0.000 A 
ATOM     29  C   UNL     1       7.833   6.353  19.036  0.00  0.00    +0.000 A 
ATOM     30  C   UNL     1       6.542   5.825  19.148  0.00  0.00    +0.000 A 
ENDBRANCH  11  25
TORSDOF 3
ENDMDL
MODEL 6
REMARK VINA RESULT:      -6.7      3.385      6.233
REMARK  Name = 
REMARK  4 active torsions:
REMARK  status: ('A' for Active; 'I' for Inactive)
REMARK    1  A    between atoms: C_1  and  C_2
REMARK    2  A    between atoms: C_2  and  N_3
REMARK    3  A    between atoms: C_7  and  C_8
REMARK    4  A    between atoms: N_18  and  C_19
REMARK                            x       y       z     vdW  Elec       q    Type
REMARK                         _______ _______ _______ _____ _____    ______ ____
ROOT
ATOM      1  C   UNL     1      -0.091  12.182  19.983  0.00  0.00    +0.000 A 
ATOM      2  N   UNL     1       0.596  11.461  19.150  0.00  0.00    +0.000 NA
ATOM      3  C   UNL     1       1.023  10.190  19.523  0.00  0.00    +0.000 A 
ATOM      4  C   UNL     1       1.531   9.336  18.541  0.00  0.00    +0.000 A 
ATOM      5  C   UNL     1       1.936   8.041  18.867  0.00  0.00    +0.000 A 
ATOM      6  C   UNL     1       1.848   7.597  20.185  0.00  0.00    +0.000 A 
ATOM      7  C   UNL     1       1.337   8.440  21.170  0.00  0.00    +0.000 A 
ATOM      8  C   UNL     1       0.914   9.731  20.827  0.00  0.00    +0.000 A 
ATOM      9  C   UNL     1       0.277  10.620  21.811  0.00  0.00    +0.000 A 
ATOM     10  O   UNL     1       0.263  10.265  22.986  0.00  0.00    +0.000 OA
ATOM     11  N   UNL     1      -0.299  11.798  21.302  0.00  0.00    +0.000 N 
ENDROOT
BRANCH   1  16
ATOM     12  N   UNL     1       0.837  16.655  18.613  0.00  0.00    +0.000 N 
ATOM     13  C   UNL     1      -0.281  15.886  18.930  0.00  0.00    +0.000 C 
ATOM     14  O   UNL     1      -1.421  16.257  19.150  0.00  0.00    +0.000 OA
ATOM     15  C   UNL     1       0.228  14.468  19.013  0.00  0.00    +0.000 C 
ATOM     16  C   UNL     1      -0.576  13.518  19.531  0.00  0.00    +0.000 C 
ATOM     17  C   UNL     1       1.648  14.501  18.638  0.00  0.00    +0.000 A 
ATOM     18  C   UNL     1       2.610  13.525  18.440  0.00  0.00    +0.000 A 
ATOM     19  C   UNL     1       3.928  13.910  18.194  0.00  0.00    +0.000 A 
ATOM     20  C   UNL     1       4.261  15.266  18.068  0.00  0.00    +0.000 A 
ATOM     21  C   UNL     1       3.278  16.250  18.177  0.00  0.00    +0.000 A 
ATOM     22  C   UNL     1       1.981  15.851  18.462  0.00  0.00    +0.000 A 
BRANCH  12  24
ATOM     23  C   UNL     1       0.658  18.631  17.154  0.00  0.00    +0.000 C 
ATOM     24  C   UNL     1       0.841  18.101  18.569  0.00  0.00    +0.000 C 
ENDBRANCH  12  24
ENDBRANCH   1  16
BRANCH  11  25
ATOM     25  C   UNL     1      -1.045  12.580  22.227  0.00  0.00    +0.000 A 
ATOM     26  C   UNL     1      -2.380  12.245  22.490  0.00  0.00    +0.000 A 
ATOM     27  C   UNL     1      -3.180  13.093  23.253  0.00  0.00    +0.000 A 
ATOM     28  C   UNL     1      -2.656  14.289  23.741  0.00  0.00    +0.000 A 
ATOM     29  C   UNL     1      -1.321  14.618  23.499  0.00  0.00    +0.000 A 
ATOM     30  C   UNL     1      -0.508  13.758  22.754  0.00  0.00    +0.000 A 
ENDBRANCH  11  25
TORSDOF 3
ENDMDL
MODEL 7
REMARK VINA RESULT:      -6.5      1.974      6.865
REMARK  Name = 
REMARK  4 active torsions:
REMARK  status: ('A' for Active; 'I' for Inactive)
REMARK    1  A    between atoms: C_1  and  C_2
REMARK    2  A    between atoms: C_2  and  N_3
REMARK    3  A    between atoms: C_7  and  C_8
REMARK    4  A    between atoms: N_18  and  C_19
REMARK                            x       y       z     vdW  Elec       q    Type
REMARK                         _______ _______ _______ _____ _____    ______ ____
ROOT
ATOM      1  C   UNL     1      -1.007  12.738  19.913  0.00  0.00    +0.000 A 
ATOM      2  N   UNL     1      -1.042  12.014  18.835  0.00  0.00    +0.000 NA
ATOM      3  C   UNL     1      -2.263  11.716  18.239  0.00  0.00    +0.000 A 
ATOM      4  C   UNL     1      -2.269  11.162  16.956  0.00  0.00    +0.000 A 
ATOM      5  C   UNL     1      -3.473  10.884  16.308  0.00  0.00    +0.000 A 
ATOM      6  C   UNL     1      -4.683  11.146  16.949  0.00  0.00    +0.000 A 
ATOM      7  C   UNL     1      -4.687  11.704  18.226  0.00  0.00    +0.000 A 
ATOM      8  C   UNL     1      -3.472  11.999  18.858  0.00  0.00    +0.000 A 
ATOM      9  C   UNL     1      -3.426  12.678  20.162  0.00  0.00    +0.000 A 
ATOM     10  O   UNL     1      -4.483  12.846  20.764  0.00  0.00    +0.000 OA
ATOM     11  N   UNL     1      -2.159  13.114  20.591  0.00  0.00    +0.000 N 
ENDROOT
BRANCH   1  16
ATOM     12  N   UNL     1       2.954  15.394  19.862  0.00  0.00    +0.000 N 
ATOM     13  C   UNL     1       2.476  14.268  20.533  0.00  0.00    +0.000 C 
ATOM     14  O   UNL     1       3.095  13.472  21.216  0.00  0.00    +0.000 OA
ATOM     15  C   UNL     1       1.011  14.195  20.181  0.00  0.00    +0.000 C 
ATOM     16  C   UNL     1       0.322  13.079  20.495  0.00  0.00    +0.000 C 
ATOM     17  C   UNL     1       0.706  15.380  19.367  0.00  0.00    +0.000 A 
ATOM     18  C   UNL     1      -0.461  15.904  18.839  0.00  0.00    +0.000 A 
ATOM     19  C   UNL     1      -0.386  17.013  17.995  0.00  0.00    +0.000 A 
ATOM     20  C   UNL     1       0.844  17.638  17.749  0.00  0.00    +0.000 A 
ATOM     21  C   UNL     1       2.011  17.166  18.353  0.00  0.00    +0.000 A 
ATOM     22  C   UNL     1       1.924  16.040  19.156  0.00  0.00    +0.000 A 
BRANCH  12  24
ATOM     23  C   UNL     1       5.074  15.099  18.646  0.00  0.00    +0.000 C 
ATOM     24  C   UNL     1       4.349  15.771  19.803  0.00  0.00    +0.000 C 
ENDBRANCH  12  24
ENDBRANCH   1  16
BRANCH  11  25
ATOM     25  C   UNL     1      -2.137  13.903  21.775  0.00  0.00    +0.000 A 
ATOM     26  C   UNL     1      -2.320  15.290  21.680  0.00  0.00    +0.000 A 
ATOM     27  C   UNL     1      -2.129  16.101  22.797  0.00  0.00    +0.000 A 
ATOM     28  C   UNL     1      -1.736  15.534  24.007  0.00  0.00    +0.000 A 
ATOM     29  C   UNL     1      -1.571  14.152  24.113  0.00  0.00    +0.000 A 
ATOM     30  C   UNL     1      -1.785  13.331  23.001  0.00  0.00    +0.000 A 
ENDBRANCH  11  25
TORSDOF 3
ENDMDL
MODEL 8
REMARK VINA RESULT:      -6.5      7.327     11.554
REMARK  Name = 
REMARK  4 active torsions:
REMARK  status: ('A' for Active; 'I' for Inactive)
REMARK    1  A    between atoms: C_1  and  C_2
REMARK    2  A    between atoms: C_2  and  N_3
REMARK    3  A    between atoms: C_7  and  C_8
REMARK    4  A    between atoms: N_18  and  C_19
REMARK                            x       y       z     vdW  Elec       q    Type
REMARK                         _______ _______ _______ _____ _____    ______ ____
ROOT
ATOM      1  C   UNL     1       7.151  14.984  20.976  0.00  0.00    +0.000 A 
ATOM      2  N   UNL     1       8.004  14.483  21.817  0.00  0.00    +0.000 NA
ATOM      3  C   UNL     1       7.592  13.515  22.728  0.00  0.00    +0.000 A 
ATOM      4  C   UNL     1       8.563  12.809  23.443  0.00  0.00    +0.000 A 
ATOM      5  C   UNL     1       8.193  11.804  24.339  0.00  0.00    +0.000 A 
ATOM      6  C   UNL     1       6.844  11.510  24.535  0.00  0.00    +0.000 A 
ATOM      7  C   UNL     1       5.870  12.206  23.821  0.00  0.00    +0.000 A 
ATOM      8  C   UNL     1       6.255  13.197  22.909  0.00  0.00    +0.000 A 
ATOM      9  C   UNL     1       5.270  13.888  22.062  0.00  0.00    +0.000 A 
ATOM     10  O   UNL     1       4.078  13.688  22.280  0.00  0.00    +0.000 OA
ATOM     11  N   UNL     1       5.792  14.701  21.039  0.00  0.00    +0.000 N 
ENDROOT
BRANCH   1  16
ATOM     12  N   UNL     1      10.236  16.224  17.557  0.00  0.00    +0.000 N 
ATOM     13  C   UNL     1       9.220  16.828  18.297  0.00  0.00    +0.000 C 
ATOM     14  O   UNL     1       8.962  18.014  18.405  0.00  0.00    +0.000 OA
ATOM     15  C   UNL     1       8.524  15.693  19.007  0.00  0.00    +0.000 C 
ATOM     16  C   UNL     1       7.638  15.982  19.982  0.00  0.00    +0.000 C 
ATOM     17  C   UNL     1       9.154  14.449  18.545  0.00  0.00    +0.000 A 
ATOM     18  C   UNL     1       8.894  13.106  18.760  0.00  0.00    +0.000 A 
ATOM     19  C   UNL     1       9.777  12.153  18.251  0.00  0.00    +0.000 A 
ATOM     20  C   UNL     1      10.869  12.544  17.463  0.00  0.00    +0.000 A 
ATOM     21  C   UNL     1      11.083  13.891  17.169  0.00  0.00    +0.000 A 
ATOM     22  C   UNL     1      10.219  14.827  17.717  0.00  0.00    +0.000 A 
BRANCH  12  24
ATOM     23  C   UNL     1      12.333  17.501  17.742  0.00  0.00    +0.000 C 
ATOM     24  C   UNL     1      11.250  16.953  16.826  0.00  0.00    +0.000 C 
ENDBRANCH  12  24
ENDBRANCH   1  16
BRANCH  11  25
ATOM     25  C   UNL     1       4.845  15.245  20.128  0.00  0.00    +0.000 A 
ATOM     26  C   UNL     1       4.656  14.628  18.883  0.00  0.00    +0.000 A 
ATOM     27  C   UNL     1       3.868  15.239  17.910  0.00  0.00    +0.000 A 
ATOM     28  C   UNL     1       3.281  16.476  18.167  0.00  0.00    +0.000 A 
ATOM     29  C   UNL     1       3.450  17.086  19.411  0.00  0.00    +0.000 A 
ATOM     30  C   UNL     1       4.220  16.465  20.400  0.00  0.00    +0.000 A 
ENDBRANCH  11  25
TORSDOF 3
ENDMDL
MODEL 9
REMARK VINA RESULT:      -6.5      2.900      5.721
REMARK  Name = 
REMARK  4 active torsions:
REMARK  status: ('A' for Active; 'I' for Inactive)
REMARK    1  A    between atoms: C_1  and  C_2
REMARK    2  A    between atoms: C_2  and  N_3
REMARK    3  A    between atoms: C_7  and  C_8
REMARK    4  A    between atoms: N_18  and  C_19
REMARK                            x       y       z     vdW  Elec       q    Type
REMARK                         _______ _______ _______ _____ _____    ______ ____
ROOT
ATOM      1  C   UNL     1      -1.608  14.428  21.347  0.00  0.00    +0.000 A 
ATOM      2  N   UNL     1      -2.688  14.514  22.062  0.00  0.00    +0.000 NA
ATOM      3  C   UNL     1      -2.703  15.313  23.201  0.00  0.00    +0.000 A 
ATOM      4  C   UNL     1      -3.929  15.596  23.808  0.00  0.00    +0.000 A 
ATOM      5  C   UNL     1      -3.992  16.423  24.931  0.00  0.00    +0.000 A 
ATOM      6  C   UNL     1      -2.821  16.961  25.463  0.00  0.00    +0.000 A 
ATOM      7  C   UNL     1      -1.594  16.689  24.860  0.00  0.00    +0.000 A 
ATOM      8  C   UNL     1      -1.547  15.875  23.721  0.00  0.00    +0.000 A 
ATOM      9  C   UNL     1      -0.290  15.640  22.994  0.00  0.00    +0.000 A 
ATOM     10  O   UNL     1       0.754  16.049  23.495  0.00  0.00    +0.000 OA
ATOM     11  N   UNL     1      -0.403  14.990  21.751  0.00  0.00    +0.000 N 
ENDROOT
BRANCH   1  16
ATOM     12  N   UNL     1      -0.463  10.422  19.025  0.00  0.00    +0.000 N 
ATOM     13  C   UNL     1      -1.027  11.661  18.726  0.00  0.00    +0.000 C 
ATOM     14  O   UNL     1      -1.217  12.166  17.633  0.00  0.00    +0.000 OA
ATOM     15  C   UNL     1      -1.307  12.300  20.064  0.00  0.00    +0.000 C 
ATOM     16  C   UNL     1      -1.644  13.604  20.105  0.00  0.00    +0.000 C 
ATOM     17  C   UNL     1      -0.950  11.312  21.092  0.00  0.00    +0.000 A 
ATOM     18  C   UNL     1      -1.070  11.278  22.471  0.00  0.00    +0.000 A 
ATOM     19  C   UNL     1      -0.514  10.209  23.175  0.00  0.00    +0.000 A 
ATOM     20  C   UNL     1       0.086   9.143  22.491  0.00  0.00    +0.000 A 
ATOM     21  C   UNL     1       0.128   9.130  21.096  0.00  0.00    +0.000 A 
ATOM     22  C   UNL     1      -0.393  10.219  20.415  0.00  0.00    +0.000 A 
BRANCH  12  24
ATOM     23  C   UNL     1       1.599   9.674  17.908  0.00  0.00    +0.000 C 
ATOM     24  C   UNL     1       0.091   9.523  18.037  0.00  0.00    +0.000 C 
ENDBRANCH  12  24
ENDBRANCH   1  16
BRANCH  11  25
ATOM     25  C   UNL     1       0.790  14.900  20.981  0.00  0.00    +0.000 A 
ATOM     26  C   UNL     1       0.995  15.799  19.924  0.00  0.00    +0.000 A 
ATOM     27  C   UNL     1       2.065  15.621  19.050  0.00  0.00    +0.000 A 
ATOM     28  C   UNL     1       2.923  14.536  19.214  0.00  0.00    +0.000 A 
ATOM     29  C   UNL     1       2.736  13.649  20.276  0.00  0.00    +0.000 A 
ATOM     30  C   UNL     1       1.677  13.837  21.171  0.00  0.00    +0.000 A 
ENDBRANCH  11  25
TORSDOF 3
ENDMDL
