MODEL 1
REMARK VINA RESULT:      -8.1      0.000      0.000
REMARK  Name = 
REMARK  8 active torsions:
REMARK  status: ('A' for Active; 'I' for Inactive)
REMARK    1  A    between atoms: C_1  and  C_2
REMARK    2  A    between atoms: C_2  and  S_3
REMARK    3  A    between atoms: S_3  and  N_6
REMARK    4  A    between atoms: N_6  and  C_7
REMARK    5  A    between atoms: N_6  and  C_20
REMARK    6  A    between atoms: C_7  and  C_8
REMARK    7  A    between atoms: C_13  and  C_14
REMARK    8  A    between atoms: N_23  and  C_24
REMARK                            x       y       z     vdW  Elec       q    Type
REMARK                         _______ _______ _______ _____ _____    ______ ____
ROOT
ATOM      1  C   UNL     1       4.586   4.813  17.584  0.00  0.00    +0.000 C 
ENDROOT
BRANCH   1   2
ATOM      2  C   UNL     1       3.723   6.047  17.851  0.00  0.00    +0.000 A 
ATOM      3  C   UNL     1       3.976   7.233  17.123  0.00  0.00    +0.000 A 
ATOM      4  C   UNL     1       3.326   8.432  17.399  0.00  0.00    +0.000 A 
ATOM      5  C   UNL     1       2.335   8.461  18.360  0.00  0.00    +0.000 A 
ATOM      6  C   UNL     1       2.007   7.287  19.041  0.00  0.00    +0.000 A 
ATOM      7  C   UNL     1       2.671   6.051  18.814  0.00  0.00    +0.000 A 
BRANCH   7   8
ATOM      8  C   UNL     1       2.173   4.852  19.563  0.00  0.00    +0.000 A 
ATOM      9  C   UNL     1       2.537   4.655  20.914  0.00  0.00    +0.000 A 
ATOM     10  C   UNL     1       2.108   3.543  21.649  0.00  0.00    +0.000 A 
ATOM     11  C   UNL     1       1.256   2.613  21.068  0.00  0.00    +0.000 A 
ATOM     12  C   UNL     1       0.877   2.774  19.742  0.00  0.00    +0.000 A 
ATOM     13  C   UNL     1       1.365   3.854  18.995  0.00  0.00    +0.000 A 
ENDBRANCH   7   8
ENDBRANCH   1   2
BRANCH   1  14
ATOM     14  N   UNL     1       6.029   5.016  17.236  0.00  0.00    +0.000 NA
BRANCH  14  15
ATOM     15  C   UNL     1       6.574   4.187  16.084  0.00  0.00    +0.000 C 
ATOM     16  C   UNL     1       5.544   3.746  15.020  0.00  0.00    +0.000 C 
ATOM     17  C   UNL     1       6.198   3.998  13.669  0.00  0.00    +0.000 C 
ATOM     18  N   UNL     1       6.990   5.185  13.940  0.00  0.00    +0.000 NA
ATOM     19  C   UNL     1       7.954   5.492  12.899  0.00  0.00    +0.000 C 
ATOM     20  C   UNL     1       7.624   4.946  15.241  0.00  0.00    +0.000 C 
ENDBRANCH  14  15
BRANCH  14  21
ATOM     21  S   UNL     1       7.087   5.202  18.590  0.00  0.00    +0.000 S 
ATOM     22  O   UNL     1       8.208   4.289  18.471  0.00  0.00    +0.000 OA
ATOM     23  O   UNL     1       6.291   5.200  19.804  0.00  0.00    +0.000 OA
BRANCH  21  25
ATOM     24  C   UNL     1       7.132   7.548  17.240  0.00  0.00    +0.000 C 
ATOM     25  C   UNL     1       7.765   6.842  18.439  0.00  0.00    +0.000 C 
ENDBRANCH  21  25
ENDBRANCH  14  21
ENDBRANCH   1  14
TORSDOF 6
ENDMDL
MODEL 2
REMARK VINA RESULT:      -7.5      0.732      1.210
REMARK  Name = 
REMARK  8 active torsions:
REMARK  status: ('A' for Active; 'I' for Inactive)
REMARK    1  A    between atoms: C_1  and  C_2
REMARK    2  A    between atoms: C_2  and  S_3
REMARK    3  A    between atoms: S_3  and  N_6
REMARK    4  A    between atoms: N_6  and  C_7
REMARK    5  A    between atoms: N_6  and  C_20
REMARK    6  A    between atoms: C_7  and  C_8
REMARK    7  A    between atoms: C_13  and  C_14
REMARK    8  A    between atoms: N_23  and  C_24
REMARK                            x       y       z     vdW  Elec       q    Type
REMARK                         _______ _______ _______ _____ _____    ______ ____
ROOT
ATOM      1  C   UNL     1       4.911   5.218  18.677  0.00  0.00    +0.000 C 
ENDROOT
BRANCH   1   2
ATOM      2  C   UNL     1       3.814   6.226  18.331  0.00  0.00    +0.000 A 
ATOM      3  C   UNL     1       4.171   7.439  17.696  0.00  0.00    +0.000 A 
ATOM      4  C   UNL     1       3.254   8.461  17.469  0.00  0.00    +0.000 A 
ATOM      5  C   UNL     1       1.927   8.266  17.794  0.00  0.00    +0.000 A 
ATOM      6  C   UNL     1       1.529   7.049  18.350  0.00  0.00    +0.000 A 
ATOM      7  C   UNL     1       2.439   5.994  18.630  0.00  0.00    +0.000 A 
BRANCH   7   8
ATOM      8  C   UNL     1       1.870   4.713  19.162  0.00  0.00    +0.000 A 
ATOM      9  C   UNL     1       1.408   3.717  18.274  0.00  0.00    +0.000 A 
ATOM     10  C   UNL     1       0.856   2.511  18.725  0.00  0.00    +0.000 A 
ATOM     11  C   UNL     1       0.795   2.242  20.086  0.00  0.00    +0.000 A 
ATOM     12  C   UNL     1       1.240   3.198  20.989  0.00  0.00    +0.000 A 
ATOM     13  C   UNL     1       1.729   4.428  20.530  0.00  0.00    +0.000 A 
ENDBRANCH   7   8
ENDBRANCH   1   2
BRANCH   1  14
ATOM     14  N   UNL     1       6.181   5.247  17.882  0.00  0.00    +0.000 NA
BRANCH  14  15
ATOM     15  C   UNL     1       6.254   4.314  16.684  0.00  0.00    +0.000 C 
ATOM     16  C   UNL     1       5.004   4.277  15.776  0.00  0.00    +0.000 C 
ATOM     17  C   UNL     1       5.519   4.328  14.345  0.00  0.00    +0.000 C 
ATOM     18  N   UNL     1       6.695   5.170  14.484  0.00  0.00    +0.000 NA
ATOM     19  C   UNL     1       7.559   5.160  13.317  0.00  0.00    +0.000 C 
ATOM     20  C   UNL     1       7.378   4.695  15.692  0.00  0.00    +0.000 C 
ENDBRANCH  14  15
BRANCH  14  21
ATOM     21  S   UNL     1       7.626   5.375  18.820  0.00  0.00    +0.000 S 
ATOM     22  O   UNL     1       8.641   4.484  18.289  0.00  0.00    +0.000 OA
ATOM     23  O   UNL     1       7.274   5.300  20.226  0.00  0.00    +0.000 OA
BRANCH  21  25
ATOM     24  C   UNL     1       7.494   7.644  17.350  0.00  0.00    +0.000 C 
ATOM     25  C   UNL     1       8.225   7.030  18.543  0.00  0.00    +0.000 C 
ENDBRANCH  21  25
ENDBRANCH  14  21
ENDBRANCH   1  14
TORSDOF 6
ENDMDL
MODEL 3
REMARK VINA RESULT:      -7.5      1.960      4.500
REMARK  Name = 
REMARK  8 active torsions:
REMARK  status: ('A' for Active; 'I' for Inactive)
REMARK    1  A    between atoms: C_1  and  C_2
REMARK    2  A    between atoms: C_2  and  S_3
REMARK    3  A    between atoms: S_3  and  N_6
REMARK    4  A    between atoms: N_6  and  C_7
REMARK    5  A    between atoms: N_6  and  C_20
REMARK    6  A    between atoms: C_7  and  C_8
REMARK    7  A    between atoms: C_13  and  C_14
REMARK    8  A    between atoms: N_23  and  C_24
REMARK                            x       y       z     vdW  Elec       q    Type
REMARK                         _______ _______ _______ _____ _____    ______ ____
ROOT
ATOM      1  C   UNL     1       3.975   4.501  16.717  0.00  0.00    +0.000 C 
ENDROOT
BRANCH   1   2
ATOM      2  C   UNL     1       3.295   3.728  17.849  0.00  0.00    +0.000 A 
ATOM      3  C   UNL     1       3.486   2.329  17.937  0.00  0.00    +0.000 A 
ATOM      4  C   UNL     1       2.800   1.538  18.853  0.00  0.00    +0.000 A 
ATOM      5  C   UNL     1       1.960   2.137  19.771  0.00  0.00    +0.000 A 
ATOM      6  C   UNL     1       1.811   3.524  19.760  0.00  0.00    +0.000 A 
ATOM      7  C   UNL     1       2.466   4.364  18.820  0.00  0.00    +0.000 A 
BRANCH   7   8
ATOM      8  C   UNL     1       2.274   5.844  18.963  0.00  0.00    +0.000 A 
ATOM      9  C   UNL     1       2.355   6.685  17.830  0.00  0.00    +0.000 A 
ATOM     10  C   UNL     1       2.196   8.073  17.918  0.00  0.00    +0.000 A 
ATOM     11  C   UNL     1       1.902   8.663  19.140  0.00  0.00    +0.000 A 
ATOM     12  C   UNL     1       1.815   7.868  20.275  0.00  0.00    +0.000 A 
ATOM     13  C   UNL     1       2.041   6.488  20.189  0.00  0.00    +0.000 A 
ENDBRANCH   7   8
ENDBRANCH   1   2
BRANCH   1  14
ATOM     14  N   UNL     1       5.448   4.756  16.814  0.00  0.00    +0.000 NA
BRANCH  14  15
ATOM     15  C   UNL     1       5.914   5.609  17.982  0.00  0.00    +0.000 C 
ATOM     16  C   UNL     1       7.253   5.194  18.633  0.00  0.00    +0.000 C 
ATOM     17  C   UNL     1       8.041   6.479  18.838  0.00  0.00    +0.000 C 
ATOM     18  N   UNL     1       7.628   7.266  17.689  0.00  0.00    +0.000 NA
ATOM     19  C   UNL     1       8.007   8.665  17.774  0.00  0.00    +0.000 C 
ATOM     20  C   UNL     1       6.177   7.081  17.586  0.00  0.00    +0.000 C 
ENDBRANCH  14  15
BRANCH  14  21
ATOM     21  S   UNL     1       6.237   5.056  15.306  0.00  0.00    +0.000 S 
ATOM     22  O   UNL     1       7.666   4.842  15.445  0.00  0.00    +0.000 OA
ATOM     23  O   UNL     1       5.751   6.315  14.771  0.00  0.00    +0.000 OA
BRANCH  21  25
ATOM     24  C   UNL     1       6.434   3.844  12.894  0.00  0.00    +0.000 C 
ATOM     25  C   UNL     1       5.650   3.785  14.204  0.00  0.00    +0.000 C 
ENDBRANCH  21  25
ENDBRANCH  14  21
ENDBRANCH   1  14
TORSDOF 6
ENDMDL
MODEL 4
REMARK VINA RESULT:      -7.5      1.899      4.396
REMARK  Name = 
REMARK  8 active torsions:
REMARK  status: ('A' for Active; 'I' for Inactive)
REMARK    1  A    between atoms: C_1  and  C_2
REMARK    2  A    between atoms: C_2  and  S_3
REMARK    3  A    between atoms: S_3  and  N_6
REMARK    4  A    between atoms: N_6  and  C_7
REMARK    5  A    between atoms: N_6  and  C_20
REMARK    6  A    between atoms: C_7  and  C_8
REMARK    7  A    between atoms: C_13  and  C_14
REMARK    8  A    between atoms: N_23  and  C_24
REMARK                            x       y       z     vdW  Elec       q    Type
REMARK                         _______ _______ _______ _____ _____    ______ ____
ROOT
ATOM      1  C   UNL     1       4.114   4.619  16.798  0.00  0.00    +0.000 C 
ENDROOT
BRANCH   1   2
ATOM      2  C   UNL     1       3.311   3.815  17.821  0.00  0.00    +0.000 A 
ATOM      3  C   UNL     1       3.469   2.411  17.870  0.00  0.00    +0.000 A 
ATOM      4  C   UNL     1       2.680   1.596  18.677  0.00  0.00    +0.000 A 
ATOM      5  C   UNL     1       1.761   2.174  19.529  0.00  0.00    +0.000 A 
ATOM      6  C   UNL     1       1.635   3.564  19.561  0.00  0.00    +0.000 A 
ATOM      7  C   UNL     1       2.396   4.428  18.728  0.00  0.00    +0.000 A 
BRANCH   7   8
ATOM      8  C   UNL     1       2.213   5.905  18.913  0.00  0.00    +0.000 A 
ATOM      9  C   UNL     1       1.942   6.433  20.195  0.00  0.00    +0.000 A 
ATOM     10  C   UNL     1       1.751   7.802  20.414  0.00  0.00    +0.000 A 
ATOM     11  C   UNL     1       1.874   8.698  19.359  0.00  0.00    +0.000 A 
ATOM     12  C   UNL     1       2.139   8.215  18.085  0.00  0.00    +0.000 A 
ATOM     13  C   UNL     1       2.264   6.837  17.864  0.00  0.00    +0.000 A 
ENDBRANCH   7   8
ENDBRANCH   1   2
BRANCH   1  14
ATOM     14  N   UNL     1       5.587   4.784  17.021  0.00  0.00    +0.000 NA
BRANCH  14  15
ATOM     15  C   UNL     1       6.005   5.757  18.111  0.00  0.00    +0.000 C 
ATOM     16  C   UNL     1       7.337   5.441  18.828  0.00  0.00    +0.000 C 
ATOM     17  C   UNL     1       8.089   6.761  18.924  0.00  0.00    +0.000 C 
ATOM     18  N   UNL     1       7.686   7.421  17.695  0.00  0.00    +0.000 NA
ATOM     19  C   UNL     1       8.028   8.832  17.652  0.00  0.00    +0.000 C 
ATOM     20  C   UNL     1       6.241   7.190  17.580  0.00  0.00    +0.000 C 
ENDBRANCH  14  15
BRANCH  14  21
ATOM     21  S   UNL     1       6.543   4.816  15.581  0.00  0.00    +0.000 S 
ATOM     22  O   UNL     1       7.934   4.557  15.906  0.00  0.00    +0.000 OA
ATOM     23  O   UNL     1       6.196   6.002  14.821  0.00  0.00    +0.000 OA
BRANCH  21  25
ATOM     24  C   UNL     1       5.695   3.879  13.188  0.00  0.00    +0.000 C 
ATOM     25  C   UNL     1       5.992   3.424  14.616  0.00  0.00    +0.000 C 
ENDBRANCH  21  25
ENDBRANCH  14  21
ENDBRANCH   1  14
TORSDOF 6
ENDMDL
MODEL 5
REMARK VINA RESULT:      -7.3      1.413      3.282
REMARK  Name = 
REMARK  8 active torsions:
REMARK  status: ('A' for Active; 'I' for Inactive)
REMARK    1  A    between atoms: C_1  and  C_2
REMARK    2  A    between atoms: C_2  and  S_3
REMARK    3  A    between atoms: S_3  and  N_6
REMARK    4  A    between atoms: N_6  and  C_7
REMARK    5  A    between atoms: N_6  and  C_20
REMARK    6  A    between atoms: C_7  and  C_8
REMARK    7  A    between atoms: C_13  and  C_14
REMARK    8  A    between atoms: N_23  and  C_24
REMARK                            x       y       z     vdW  Elec       q    Type
REMARK                         _______ _______ _______ _____ _____    ______ ____
ROOT
ATOM      1  C   UNL     1       5.009   5.125  19.446  0.00  0.00    +0.000 C 
ENDROOT
BRANCH   1   2
ATOM      2  C   UNL     1       3.763   4.288  19.153  0.00  0.00    +0.000 A 
ATOM      3  C   UNL     1       3.863   2.877  19.167  0.00  0.00    +0.000 A 
ATOM      4  C   UNL     1       2.813   2.048  18.783  0.00  0.00    +0.000 A 
ATOM      5  C   UNL     1       1.595   2.607  18.452  0.00  0.00    +0.000 A 
ATOM      6  C   UNL     1       1.441   3.994  18.504  0.00  0.00    +0.000 A 
ATOM      7  C   UNL     1       2.497   4.876  18.857  0.00  0.00    +0.000 A 
BRANCH   7   8
ATOM      8  C   UNL     1       2.178   6.339  18.942  0.00  0.00    +0.000 A 
ATOM      9  C   UNL     1       1.808   6.915  20.177  0.00  0.00    +0.000 A 
ATOM     10  C   UNL     1       1.488   8.272  20.302  0.00  0.00    +0.000 A 
ATOM     11  C   UNL     1       1.575   9.111  19.198  0.00  0.00    +0.000 A 
ATOM     12  C   UNL     1       1.936   8.579  17.967  0.00  0.00    +0.000 A 
ATOM     13  C   UNL     1       2.190   7.207  17.839  0.00  0.00    +0.000 A 
ENDBRANCH   7   8
ENDBRANCH   1   2
BRANCH   1  14
ATOM     14  N   UNL     1       6.038   5.269  18.367  0.00  0.00    +0.000 NA
BRANCH  14  15
ATOM     15  C   UNL     1       5.822   4.448  17.107  0.00  0.00    +0.000 C 
ATOM     16  C   UNL     1       4.677   4.916  16.180  0.00  0.00    +0.000 C 
ATOM     17  C   UNL     1       5.233   4.868  14.764  0.00  0.00    +0.000 C 
ATOM     18  N   UNL     1       6.625   5.223  14.980  0.00  0.00    +0.000 NA
ATOM     19  C   UNL     1       7.474   4.978  13.828  0.00  0.00    +0.000 C 
ATOM     20  C   UNL     1       7.046   4.462  16.162  0.00  0.00    +0.000 C 
ENDBRANCH  14  15
BRANCH  14  21
ATOM     21  S   UNL     1       7.671   5.366  18.926  0.00  0.00    +0.000 S 
ATOM     22  O   UNL     1       8.510   4.459  18.164  0.00  0.00    +0.000 OA
ATOM     23  O   UNL     1       7.670   5.290  20.375  0.00  0.00    +0.000 OA
BRANCH  21  25
ATOM     24  C   UNL     1       7.233   7.641  17.526  0.00  0.00    +0.000 C 
ATOM     25  C   UNL     1       8.215   7.011  18.512  0.00  0.00    +0.000 C 
ENDBRANCH  21  25
ENDBRANCH  14  21
ENDBRANCH   1  14
TORSDOF 6
ENDMDL
MODEL 6
REMARK VINA RESULT:      -7.2      1.467      3.466
REMARK  Name = 
REMARK  8 active torsions:
REMARK  status: ('A' for Active; 'I' for Inactive)
REMARK    1  A    between atoms: C_1  and  C_2
REMARK    2  A    between atoms: C_2  and  S_3
REMARK    3  A    between atoms: S_3  and  N_6
REMARK    4  A    between atoms: N_6  and  C_7
REMARK    5  A    between atoms: N_6  and  C_20
REMARK    6  A    between atoms: C_7  and  C_8
REMARK    7  A    between atoms: C_13  and  C_14
REMARK    8  A    between atoms: N_23  and  C_24
REMARK                            x       y       z     vdW  Elec       q    Type
REMARK                         _______ _______ _______ _____ _____    ______ ____
ROOT
ATOM      1  C   UNL     1       5.017   4.771  19.412  0.00  0.00    +0.000 C 
ENDROOT
BRANCH   1   2
ATOM      2  C   UNL     1       3.742   3.958  19.184  0.00  0.00    +0.000 A 
ATOM      3  C   UNL     1       3.837   2.554  19.049  0.00  0.00    +0.000 A 
ATOM      4  C   UNL     1       2.746   1.760  18.709  0.00  0.00    +0.000 A 
ATOM      5  C   UNL     1       1.501   2.340  18.576  0.00  0.00    +0.000 A 
ATOM      6  C   UNL     1       1.360   3.714  18.781  0.00  0.00    +0.000 A 
ATOM      7  C   UNL     1       2.454   4.564  19.095  0.00  0.00    +0.000 A 
BRANCH   7   8
ATOM      8  C   UNL     1       2.153   6.010  19.358  0.00  0.00    +0.000 A 
ATOM      9  C   UNL     1       2.274   6.962  18.321  0.00  0.00    +0.000 A 
ATOM     10  C   UNL     1       2.017   8.323  18.524  0.00  0.00    +0.000 A 
ATOM     11  C   UNL     1       1.582   8.771  19.764  0.00  0.00    +0.000 A 
ATOM     12  C   UNL     1       1.452   7.863  20.807  0.00  0.00    +0.000 A 
ATOM     13  C   UNL     1       1.775   6.514  20.613  0.00  0.00    +0.000 A 
ENDBRANCH   7   8
ENDBRANCH   1   2
BRANCH   1  14
ATOM     14  N   UNL     1       5.590   5.534  18.257  0.00  0.00    +0.000 NA
BRANCH  14  15
ATOM     15  C   UNL     1       4.925   5.326  16.907  0.00  0.00    +0.000 C 
ATOM     16  C   UNL     1       5.037   6.499  15.907  0.00  0.00    +0.000 C 
ATOM     17  C   UNL     1       5.396   5.878  14.565  0.00  0.00    +0.000 C 
ATOM     18  N   UNL     1       6.225   4.756  14.970  0.00  0.00    +0.000 NA
ATOM     19  C   UNL     1       6.481   3.806  13.903  0.00  0.00    +0.000 C 
ATOM     20  C   UNL     1       5.534   4.148  16.112  0.00  0.00    +0.000 C 
ENDBRANCH  14  15
BRANCH  14  21
ATOM     21  S   UNL     1       7.316   5.636  18.235  0.00  0.00    +0.000 S 
ATOM     22  O   UNL     1       7.867   4.519  17.489  0.00  0.00    +0.000 OA
ATOM     23  O   UNL     1       7.783   5.893  19.584  0.00  0.00    +0.000 OA
BRANCH  21  25
ATOM     24  C   UNL     1       8.196   8.195  18.224  0.00  0.00    +0.000 C 
ATOM     25  C   UNL     1       7.692   7.097  17.289  0.00  0.00    +0.000 C 
ENDBRANCH  21  25
ENDBRANCH  14  21
ENDBRANCH   1  14
TORSDOF 6
ENDMDL
MODEL 7
REMARK VINA RESULT:      -7.2      1.101      3.014
REMARK  Name = 
REMARK  8 active torsions:
REMARK  status: ('A' for Active; 'I' for Inactive)
REMARK    1  A    between atoms: C_1  and  C_2
REMARK    2  A    between atoms: C_2  and  S_3
REMARK    3  A    between atoms: S_3  and  N_6
REMARK    4  A    between atoms: N_6  and  C_7
REMARK    5  A    between atoms: N_6  and  C_20
REMARK    6  A    between atoms: C_7  and  C_8
REMARK    7  A    between atoms: C_13  and  C_14
REMARK    8  A    between atoms: N_23  and  C_24
REMARK                            x       y       z     vdW  Elec       q    Type
REMARK                         _______ _______ _______ _____ _____    ______ ____
ROOT
ATOM      1  C   UNL     1       4.438   5.514  17.047  0.00  0.00    +0.000 C 
ENDROOT
BRANCH   1   2
ATOM      2  C   UNL     1       3.684   4.441  17.833  0.00  0.00    +0.000 A 
ATOM      3  C   UNL     1       4.035   3.083  17.653  0.00  0.00    +0.000 A 
ATOM      4  C   UNL     1       3.313   2.041  18.228  0.00  0.00    +0.000 A 
ATOM      5  C   UNL     1       2.262   2.332  19.075  0.00  0.00    +0.000 A 
ATOM      6  C   UNL     1       1.940   3.665  19.335  0.00  0.00    +0.000 A 
ATOM      7  C   UNL     1       2.630   4.756  18.741  0.00  0.00    +0.000 A 
BRANCH   7   8
ATOM      8  C   UNL     1       2.228   6.139  19.160  0.00  0.00    +0.000 A 
ATOM      9  C   UNL     1       1.815   6.387  20.488  0.00  0.00    +0.000 A 
ATOM     10  C   UNL     1       1.418   7.658  20.921  0.00  0.00    +0.000 A 
ATOM     11  C   UNL     1       1.470   8.737  20.048  0.00  0.00    +0.000 A 
ATOM     12  C   UNL     1       1.871   8.530  18.735  0.00  0.00    +0.000 A 
ATOM     13  C   UNL     1       2.203   7.243  18.293  0.00  0.00    +0.000 A 
ENDBRANCH   7   8
ENDBRANCH   1   2
BRANCH   1  14
ATOM     14  N   UNL     1       5.926   5.394  16.925  0.00  0.00    +0.000 NA
BRANCH  14  15
ATOM     15  C   UNL     1       6.447   4.438  15.864  0.00  0.00    +0.000 C 
ATOM     16  C   UNL     1       5.452   4.062  14.743  0.00  0.00    +0.000 C 
ATOM     17  C   UNL     1       6.230   4.151  13.439  0.00  0.00    +0.000 C 
ATOM     18  N   UNL     1       7.142   5.248  13.713  0.00  0.00    +0.000 NA
ATOM     19  C   UNL     1       8.212   5.374  12.739  0.00  0.00    +0.000 C 
ATOM     20  C   UNL     1       7.644   5.012  15.072  0.00  0.00    +0.000 C 
ENDBRANCH  14  15
BRANCH  14  21
ATOM     21  S   UNL     1       6.782   5.383  18.427  0.00  0.00    +0.000 S 
ATOM     22  O   UNL     1       7.671   4.237  18.481  0.00  0.00    +0.000 OA
ATOM     23  O   UNL     1       5.832   5.602  19.502  0.00  0.00    +0.000 OA
BRANCH  21  25
ATOM     24  C   UNL     1       7.252   7.846  17.409  0.00  0.00    +0.000 C 
ATOM     25  C   UNL     1       7.830   6.822  18.385  0.00  0.00    +0.000 C 
ENDBRANCH  21  25
ENDBRANCH  14  21
ENDBRANCH   1  14
TORSDOF 6
ENDMDL
MODEL 8
REMARK VINA RESULT:      -7.1      1.562      3.425
REMARK  Name = 
REMARK  8 active torsions:
REMARK  status: ('A' for Active; 'I' for Inactive)
REMARK    1  A    between atoms: C_1  and  C_2
REMARK    2  A    between atoms: C_2  and  S_3
REMARK    3  A    between atoms: S_3  and  N_6
REMARK    4  A    between atoms: N_6  and  C_7
REMARK    5  A    between atoms: N_6  and  C_20
REMARK    6  A    between atoms: C_7  and  C_8
REMARK    7  A    between atoms: C_13  and  C_14
REMARK    8  A    between atoms: N_23  and  C_24
REMARK                            x       y       z     vdW  Elec       q    Type
REMARK                         _______ _______ _______ _____ _____    ______ ____
ROOT
ATOM      1  C   UNL     1       5.189   4.911  19.090  0.00  0.00    +0.000 C 
ENDROOT
BRANCH   1   2
ATOM      2  C   UNL     1       3.922   4.062  18.983  0.00  0.00    +0.000 A 
ATOM      3  C   UNL     1       4.041   2.654  18.926  0.00  0.00    +0.000 A 
ATOM      4  C   UNL     1       2.950   1.820  18.696  0.00  0.00    +0.000 A 
ATOM      5  C   UNL     1       1.687   2.367  18.599  0.00  0.00    +0.000 A 
ATOM      6  C   UNL     1       1.527   3.748  18.729  0.00  0.00    +0.000 A 
ATOM      7  C   UNL     1       2.617   4.637  18.930  0.00  0.00    +0.000 A 
BRANCH   7   8
ATOM      8  C   UNL     1       2.299   6.089  19.123  0.00  0.00    +0.000 A 
ATOM      9  C   UNL     1       1.896   6.567  20.390  0.00  0.00    +0.000 A 
ATOM     10  C   UNL     1       1.576   7.911  20.615  0.00  0.00    +0.000 A 
ATOM     11  C   UNL     1       1.696   8.835  19.585  0.00  0.00    +0.000 A 
ATOM     12  C   UNL     1       2.090   8.402  18.326  0.00  0.00    +0.000 A 
ATOM     13  C   UNL     1       2.344   7.044  18.094  0.00  0.00    +0.000 A 
ENDBRANCH   7   8
ENDBRANCH   1   2
BRANCH   1  14
ATOM     14  N   UNL     1       5.705   5.578  17.852  0.00  0.00    +0.000 NA
BRANCH  14  15
ATOM     15  C   UNL     1       4.938   5.313  16.566  0.00  0.00    +0.000 C 
ATOM     16  C   UNL     1       5.008   6.423  15.494  0.00  0.00    +0.000 C 
ATOM     17  C   UNL     1       5.252   5.716  14.168  0.00  0.00    +0.000 C 
ATOM     18  N   UNL     1       6.079   4.594  14.579  0.00  0.00    +0.000 NA
ATOM     19  C   UNL     1       6.232   3.577  13.555  0.00  0.00    +0.000 C 
ATOM     20  C   UNL     1       5.457   4.073  15.801  0.00  0.00    +0.000 C 
ENDBRANCH  14  15
BRANCH  14  21
ATOM     21  S   UNL     1       7.427   5.609  17.704  0.00  0.00    +0.000 S 
ATOM     22  O   UNL     1       7.801   6.080  16.382  0.00  0.00    +0.000 OA
ATOM     23  O   UNL     1       7.956   4.349  18.189  0.00  0.00    +0.000 OA
BRANCH  21  25
ATOM     24  C   UNL     1       8.142   8.187  18.113  0.00  0.00    +0.000 C 
ATOM     25  C   UNL     1       7.978   6.857  18.848  0.00  0.00    +0.000 C 
ENDBRANCH  21  25
ENDBRANCH  14  21
ENDBRANCH   1  14
TORSDOF 6
ENDMDL
MODEL 9
REMARK VINA RESULT:      -7.1      1.840      3.244
REMARK  Name = 
REMARK  8 active torsions:
REMARK  status: ('A' for Active; 'I' for Inactive)
REMARK    1  A    between atoms: C_1  and  C_2
REMARK    2  A    between atoms: C_2  and  S_3
REMARK    3  A    between atoms: S_3  and  N_6
REMARK    4  A    between atoms: N_6  and  C_7
REMARK    5  A    between atoms: N_6  and  C_20
REMARK    6  A    between atoms: C_7  and  C_8
REMARK    7  A    between atoms: C_13  and  C_14
REMARK    8  A    between atoms: N_23  and  C_24
REMARK                            x       y       z     vdW  Elec       q    Type
REMARK                         _______ _______ _______ _____ _____    ______ ____
ROOT
ATOM      1  C   UNL     1       3.774   5.196  17.231  0.00  0.00    +0.000 C 
ENDROOT
BRANCH   1   2
ATOM      2  C   UNL     1       3.024   6.289  17.994  0.00  0.00    +0.000 A 
ATOM      3  C   UNL     1       2.885   7.567  17.404  0.00  0.00    +0.000 A 
ATOM      4  C   UNL     1       2.334   8.648  18.085  0.00  0.00    +0.000 A 
ATOM      5  C   UNL     1       1.827   8.462  19.355  0.00  0.00    +0.000 A 
ATOM      6  C   UNL     1       1.879   7.194  19.935  0.00  0.00    +0.000 A 
ATOM      7  C   UNL     1       2.463   6.072  19.287  0.00  0.00    +0.000 A 
BRANCH   7   8
ATOM      8  C   UNL     1       2.391   4.751  19.993  0.00  0.00    +0.000 A 
ATOM      9  C   UNL     1       3.543   3.941  20.107  0.00  0.00    +0.000 A 
ATOM     10  C   UNL     1       3.520   2.695  20.744  0.00  0.00    +0.000 A 
ATOM     11  C   UNL     1       2.348   2.238  21.334  0.00  0.00    +0.000 A 
ATOM     12  C   UNL     1       1.196   3.007  21.241  0.00  0.00    +0.000 A 
ATOM     13  C   UNL     1       1.213   4.222  20.544  0.00  0.00    +0.000 A 
ENDBRANCH   7   8
ENDBRANCH   1   2
BRANCH   1  14
ATOM     14  N   UNL     1       5.267   5.284  17.146  0.00  0.00    +0.000 NA
BRANCH  14  15
ATOM     15  C   UNL     1       5.968   6.047  18.258  0.00  0.00    +0.000 C 
ATOM     16  C   UNL     1       7.348   5.503  18.688  0.00  0.00    +0.000 C 
ATOM     17  C   UNL     1       8.260   6.715  18.815  0.00  0.00    +0.000 C 
ATOM     18  N   UNL     1       7.750   7.580  17.766  0.00  0.00    +0.000 NA
ATOM     19  C   UNL     1       8.250   8.941  17.839  0.00  0.00    +0.000 C 
ATOM     20  C   UNL     1       6.289   7.511  17.875  0.00  0.00    +0.000 C 
ENDBRANCH  14  15
BRANCH  14  21
ATOM     21  S   UNL     1       5.893   5.538  15.555  0.00  0.00    +0.000 S 
ATOM     22  O   UNL     1       7.340   5.418  15.567  0.00  0.00    +0.000 OA
ATOM     23  O   UNL     1       5.281   6.731  15.001  0.00  0.00    +0.000 OA
BRANCH  21  25
ATOM     24  C   UNL     1       6.267   3.885  13.444  0.00  0.00    +0.000 C 
ATOM     25  C   UNL     1       5.291   4.171  14.585  0.00  0.00    +0.000 C 
ENDBRANCH  21  25
ENDBRANCH  14  21
ENDBRANCH   1  14
TORSDOF 6
ENDMDL
