MODEL 1
REMARK VINA RESULT:      -8.2      0.000      0.000
REMARK  Name = 
REMARK  11 active torsions:
REMARK  status: ('A' for Active; 'I' for Inactive)
REMARK    1  A    between atoms: C_2  and  O_3
REMARK    2  A    between atoms: C_2  and  C_4
REMARK    3  A    between atoms: C_6  and  O_7
REMARK    4  A    between atoms: O_7  and  C_8
REMARK    5  A    between atoms: C_12  and  C_13
REMARK    6  A    between atoms: C_13  and  C_14
REMARK    7  A    between atoms: C_14  and  N_15
REMARK    8  A    between atoms: N_15  and  C_16
REMARK    9  A    between atoms: C_16  and  C_17
REMARK   10  A    between atoms: C_17  and  O_18
REMARK   11  A    between atoms: C_17  and  C_19
REMARK                            x       y       z     vdW  Elec       q    Type
REMARK                         _______ _______ _______ _____ _____    ______ ____
ROOT
ATOM      1  C   UNL     1       2.398   6.522  19.092  0.00  0.00    +0.000 A 
ATOM      2  C   UNL     1       2.394   7.343  17.966  0.00  0.00    +0.000 A 
ATOM      3  C   UNL     1       1.979   8.672  18.069  0.00  0.00    +0.000 A 
ATOM      4  C   UNL     1       1.556   9.182  19.297  0.00  0.00    +0.000 A 
ATOM      5  C   UNL     1       1.569   8.374  20.439  0.00  0.00    +0.000 A 
ATOM      6  C   UNL     1       2.031   7.053  20.331  0.00  0.00    +0.000 A 
ENDROOT
BRANCH   1   7
ATOM      7  O   UNL     1       2.830   5.226  18.910  0.00  0.00    +0.000 OA
BRANCH   7  10
ATOM      8  C   UNL     1       6.477   5.224  18.674  0.00  0.00    +0.000 A 
ATOM      9  C   UNL     1       5.169   5.425  19.138  0.00  0.00    +0.000 A 
ATOM     10  C   UNL     1       4.081   4.983  18.379  0.00  0.00    +0.000 A 
ATOM     11  C   UNL     1       4.300   4.398  17.126  0.00  0.00    +0.000 A 
ATOM     12  C   UNL     1       5.601   4.176  16.677  0.00  0.00    +0.000 A 
ATOM     13  C   UNL     1       6.677   4.585  17.454  0.00  0.00    +0.000 A 
ATOM     14  F   UNL     1       7.920   4.347  17.008  0.00  0.00    +0.000 F 
BRANCH   8  16
ATOM     15  O   UNL     1       7.948   5.215  20.524  0.00  0.00    +0.000 OA
ATOM     16  C   UNL     1       7.613   5.736  19.478  0.00  0.00    +0.000 C 
BRANCH  16  17
ATOM     17  O   UNL     1       8.270   6.779  18.928  0.00  0.00    +0.000 OA
ATOM     18  H   UNL     1       9.222   6.645  18.764  0.00  0.00    +0.000 HD
ENDBRANCH  16  17
ENDBRANCH   8  16
ENDBRANCH   7  10
ENDBRANCH   1   7
BRANCH   5  19
ATOM     19  C   UNL     1       1.090   8.907  21.773  0.00  0.00    +0.000 C 
BRANCH  19  20
ATOM     20  C   UNL     1      -0.181   9.736  21.601  0.00  0.00    +0.000 C 
BRANCH  20  21
ATOM     21  N   UNL     1       0.068  11.175  21.691  0.00  0.00    +0.000 NA
ATOM     22  H   UNL     1       0.840  11.434  21.075  0.00  0.00    +0.000 HD
BRANCH  21  23
ATOM     23  C   UNL     1      -1.135  11.939  21.319  0.00  0.00    +0.000 C 
BRANCH  23  24
ATOM     24  C   UNL     1      -1.138  12.522  19.875  0.00  0.00    +0.000 C 
BRANCH  24  25
ATOM     25  C   UNL     1      -1.896  11.657  18.891  0.00  0.00    +0.000 A 
ATOM     26  C   UNL     1      -1.223  10.704  18.111  0.00  0.00    +0.000 A 
ATOM     27  C   UNL     1      -1.921   9.902  17.205  0.00  0.00    +0.000 A 
ATOM     28  C   UNL     1      -3.302  10.042  17.073  0.00  0.00    +0.000 A 
ATOM     29  C   UNL     1      -3.980  10.972  17.857  0.00  0.00    +0.000 A 
ATOM     30 CL   UNL     1      -5.686  11.138  17.707  0.00  0.00    +0.000 Cl
ATOM     31  C   UNL     1      -3.288  11.774  18.762  0.00  0.00    +0.000 A 
ENDBRANCH  24  25
BRANCH  24  32
ATOM     32  O   UNL     1      -1.689  13.840  19.841  0.00  0.00    +0.000 OA
ATOM     33  H   UNL     1      -1.561  14.253  20.707  0.00  0.00    +0.000 HD
ENDBRANCH  24  32
ENDBRANCH  23  24
ENDBRANCH  21  23
ENDBRANCH  20  21
ENDBRANCH  19  20
ENDBRANCH   5  19
TORSDOF 11
ENDMDL
MODEL 2
REMARK VINA RESULT:      -7.9      1.941      3.186
REMARK  Name = 
REMARK  11 active torsions:
REMARK  status: ('A' for Active; 'I' for Inactive)
REMARK    1  A    between atoms: C_2  and  O_3
REMARK    2  A    between atoms: C_2  and  C_4
REMARK    3  A    between atoms: C_6  and  O_7
REMARK    4  A    between atoms: O_7  and  C_8
REMARK    5  A    between atoms: C_12  and  C_13
REMARK    6  A    between atoms: C_13  and  C_14
REMARK    7  A    between atoms: C_14  and  N_15
REMARK    8  A    between atoms: N_15  and  C_16
REMARK    9  A    between atoms: C_16  and  C_17
REMARK   10  A    between atoms: C_17  and  O_18
REMARK   11  A    between atoms: C_17  and  C_19
REMARK                            x       y       z     vdW  Elec       q    Type
REMARK                         _______ _______ _______ _____ _____    ______ ____
ROOT
ATOM      1  C   UNL     1       2.480   6.023  19.163  0.00  0.00    +0.000 A 
ATOM      2  C   UNL     1       2.008   6.129  20.470  0.00  0.00    +0.000 A 
ATOM      3  C   UNL     1       1.510   7.346  20.939  0.00  0.00    +0.000 A 
ATOM      4  C   UNL     1       1.490   8.464  20.105  0.00  0.00    +0.000 A 
ATOM      5  C   UNL     1       1.946   8.370  18.785  0.00  0.00    +0.000 A 
ATOM      6  C   UNL     1       2.403   7.130  18.313  0.00  0.00    +0.000 A 
ENDROOT
BRANCH   1   7
ATOM      7  O   UNL     1       2.948   4.787  18.773  0.00  0.00    +0.000 OA
BRANCH   7  10
ATOM      8  C   UNL     1       6.565   5.189  18.446  0.00  0.00    +0.000 A 
ATOM      9  C   UNL     1       5.253   5.257  18.936  0.00  0.00    +0.000 A 
ATOM     10  C   UNL     1       4.206   4.669  18.219  0.00  0.00    +0.000 A 
ATOM     11  C   UNL     1       4.464   4.070  16.980  0.00  0.00    +0.000 A 
ATOM     12  C   UNL     1       5.772   3.981  16.505  0.00  0.00    +0.000 A 
ATOM     13  C   UNL     1       6.811   4.535  17.242  0.00  0.00    +0.000 A 
ATOM     14  F   UNL     1       8.063   4.424  16.773  0.00  0.00    +0.000 F 
BRANCH   8  16
ATOM     15  O   UNL     1       8.217   6.844  18.785  0.00  0.00    +0.000 OA
ATOM     16  C   UNL     1       7.652   5.854  19.204  0.00  0.00    +0.000 C 
BRANCH  16  17
ATOM     17  O   UNL     1       7.918   5.307  20.410  0.00  0.00    +0.000 OA
ATOM     18  H   UNL     1       7.147   4.971  20.905  0.00  0.00    +0.000 HD
ENDBRANCH  16  17
ENDBRANCH   8  16
ENDBRANCH   7  10
ENDBRANCH   1   7
BRANCH   5  19
ATOM     19  C   UNL     1       1.953   9.581  17.877  0.00  0.00    +0.000 C 
BRANCH  19  20
ATOM     20  C   UNL     1       1.613  10.848  18.660  0.00  0.00    +0.000 C 
BRANCH  20  21
ATOM     21  N   UNL     1       0.475  11.572  18.093  0.00  0.00    +0.000 NA
ATOM     22  H   UNL     1       0.683  11.849  17.132  0.00  0.00    +0.000 HD
BRANCH  21  23
ATOM     23  C   UNL     1      -0.739  10.737  18.112  0.00  0.00    +0.000 C 
BRANCH  23  24
ATOM     24  C   UNL     1      -1.964  11.354  18.850  0.00  0.00    +0.000 C 
BRANCH  24  25
ATOM     25  C   UNL     1      -1.692  11.635  20.312  0.00  0.00    +0.000 A 
ATOM     26  C   UNL     1      -2.060  12.863  20.885  0.00  0.00    +0.000 A 
ATOM     27  C   UNL     1      -1.812  13.123  22.234  0.00  0.00    +0.000 A 
ATOM     28  C   UNL     1      -1.198  12.155  23.027  0.00  0.00    +0.000 A 
ATOM     29  C   UNL     1      -0.847  10.928  22.472  0.00  0.00    +0.000 A 
ATOM     30 CL   UNL     1      -0.100   9.725  23.450  0.00  0.00    +0.000 Cl
ATOM     31  C   UNL     1      -1.091  10.663  21.126  0.00  0.00    +0.000 A 
ENDBRANCH  24  25
BRANCH  24  32
ATOM     32  O   UNL     1      -2.401  12.562  18.225  0.00  0.00    +0.000 OA
ATOM     33  H   UNL     1      -1.919  12.674  17.394  0.00  0.00    +0.000 HD
ENDBRANCH  24  32
ENDBRANCH  23  24
ENDBRANCH  21  23
ENDBRANCH  20  21
ENDBRANCH  19  20
ENDBRANCH   5  19
TORSDOF 11
ENDMDL
MODEL 3
REMARK VINA RESULT:      -7.8      2.893      4.024
REMARK  Name = 
REMARK  11 active torsions:
REMARK  status: ('A' for Active; 'I' for Inactive)
REMARK    1  A    between atoms: C_2  and  O_3
REMARK    2  A    between atoms: C_2  and  C_4
REMARK    3  A    between atoms: C_6  and  O_7
REMARK    4  A    between atoms: O_7  and  C_8
REMARK    5  A    between atoms: C_12  and  C_13
REMARK    6  A    between atoms: C_13  and  C_14
REMARK    7  A    between atoms: C_14  and  N_15
REMARK    8  A    between atoms: N_15  and  C_16
REMARK    9  A    between atoms: C_16  and  C_17
REMARK   10  A    between atoms: C_17  and  O_18
REMARK   11  A    between atoms: C_17  and  C_19
REMARK                            x       y       z     vdW  Elec       q    Type
REMARK                         _______ _______ _______ _____ _____    ______ ____
ROOT
ATOM      1  C   UNL     1       2.369   7.800  18.447  0.00  0.00    +0.000 A 
ATOM      2  C   UNL     1       1.839   8.847  17.694  0.00  0.00    +0.000 A 
ATOM      3  C   UNL     1       1.044   9.817  18.307  0.00  0.00    +0.000 A 
ATOM      4  C   UNL     1       0.768   9.740  19.672  0.00  0.00    +0.000 A 
ATOM      5  C   UNL     1       1.305   8.703  20.444  0.00  0.00    +0.000 A 
ATOM      6  C   UNL     1       2.139   7.759  19.825  0.00  0.00    +0.000 A 
ENDROOT
BRANCH   1   7
ATOM      7  O   UNL     1       3.150   6.887  17.772  0.00  0.00    +0.000 OA
BRANCH   7  10
ATOM      8  C   UNL     1       2.201   3.593  19.038  0.00  0.00    +0.000 A 
ATOM      9  C   UNL     1       2.134   4.896  18.524  0.00  0.00    +0.000 A 
ATOM     10  C   UNL     1       3.310   5.611  18.273  0.00  0.00    +0.000 A 
ATOM     11  C   UNL     1       4.548   5.046  18.598  0.00  0.00    +0.000 A 
ATOM     12  C   UNL     1       4.616   3.741  19.085  0.00  0.00    +0.000 A 
ATOM     13  C   UNL     1       3.445   3.024  19.296  0.00  0.00    +0.000 A 
ATOM     14  F   UNL     1       3.535   1.765  19.751  0.00  0.00    +0.000 F 
BRANCH   8  16
ATOM     15  O   UNL     1       0.367   2.207  18.491  0.00  0.00    +0.000 OA
ATOM     16  C   UNL     1       0.941   2.869  19.332  0.00  0.00    +0.000 C 
BRANCH  16  17
ATOM     17  O   UNL     1       0.522   2.960  20.613  0.00  0.00    +0.000 OA
ATOM     18  H   UNL     1      -0.346   2.559  20.808  0.00  0.00    +0.000 HD
ENDBRANCH  16  17
ENDBRANCH   8  16
ENDBRANCH   7  10
ENDBRANCH   1   7
BRANCH   5  19
ATOM     19  C   UNL     1       0.994   8.592  21.922  0.00  0.00    +0.000 C 
BRANCH  19  20
ATOM     20  C   UNL     1      -0.360   9.225  22.239  0.00  0.00    +0.000 C 
BRANCH  20  21
ATOM     21  N   UNL     1      -0.273  10.253  23.277  0.00  0.00    +0.000 NA
ATOM     22  H   UNL     1       0.604  10.769  23.182  0.00  0.00    +0.000 HD
BRANCH  21  23
ATOM     23  C   UNL     1      -1.406  11.190  23.183  0.00  0.00    +0.000 C 
BRANCH  23  24
ATOM     24  C   UNL     1      -1.047  12.631  22.717  0.00  0.00    +0.000 C 
BRANCH  24  25
ATOM     25  C   UNL     1      -0.907  12.748  21.214  0.00  0.00    +0.000 A 
ATOM     26  C   UNL     1      -1.910  12.259  20.362  0.00  0.00    +0.000 A 
ATOM     27  C   UNL     1      -1.783  12.368  18.976  0.00  0.00    +0.000 A 
ATOM     28  C   UNL     1      -0.653  12.973  18.426  0.00  0.00    +0.000 A 
ATOM     29  C   UNL     1       0.337  13.477  19.265  0.00  0.00    +0.000 A 
ATOM     30 CL   UNL     1       1.727  14.236  18.591  0.00  0.00    +0.000 Cl
ATOM     31  C   UNL     1       0.216  13.370  20.648  0.00  0.00    +0.000 A 
ENDBRANCH  24  25
BRANCH  24  32
ATOM     32  O   UNL     1      -2.016  13.584  23.160  0.00  0.00    +0.000 OA
ATOM     33  H   UNL     1      -2.899  13.207  23.042  0.00  0.00    +0.000 HD
ENDBRANCH  24  32
ENDBRANCH  23  24
ENDBRANCH  21  23
ENDBRANCH  20  21
ENDBRANCH  19  20
ENDBRANCH   5  19
TORSDOF 11
ENDMDL
MODEL 4
REMARK VINA RESULT:      -7.8      4.442      9.498
REMARK  Name = 
REMARK  11 active torsions:
REMARK  status: ('A' for Active; 'I' for Inactive)
REMARK    1  A    between atoms: C_2  and  O_3
REMARK    2  A    between atoms: C_2  and  C_4
REMARK    3  A    between atoms: C_6  and  O_7
REMARK    4  A    between atoms: O_7  and  C_8
REMARK    5  A    between atoms: C_12  and  C_13
REMARK    6  A    between atoms: C_13  and  C_14
REMARK    7  A    between atoms: C_14  and  N_15
REMARK    8  A    between atoms: N_15  and  C_16
REMARK    9  A    between atoms: C_16  and  C_17
REMARK   10  A    between atoms: C_17  and  O_18
REMARK   11  A    between atoms: C_17  and  C_19
REMARK                            x       y       z     vdW  Elec       q    Type
REMARK                         _______ _______ _______ _____ _____    ______ ____
ROOT
ATOM      1  C   UNL     1       1.588   9.082  19.352  0.00  0.00    +0.000 A 
ATOM      2  C   UNL     1       2.160   9.035  18.083  0.00  0.00    +0.000 A 
ATOM      3  C   UNL     1       2.746   7.854  17.622  0.00  0.00    +0.000 A 
ATOM      4  C   UNL     1       2.769   6.719  18.432  0.00  0.00    +0.000 A 
ATOM      5  C   UNL     1       2.185   6.746  19.703  0.00  0.00    +0.000 A 
ATOM      6  C   UNL     1       1.560   7.926  20.138  0.00  0.00    +0.000 A 
ENDROOT
BRANCH   1   7
ATOM      7  O   UNL     1       1.023  10.281  19.731  0.00  0.00    +0.000 OA
BRANCH   7  10
ATOM      8  C   UNL     1      -2.206  11.988  19.620  0.00  0.00    +0.000 A 
ATOM      9  C   UNL     1      -0.929  11.571  20.024  0.00  0.00    +0.000 A 
ATOM     10  C   UNL     1      -0.223  10.637  19.258  0.00  0.00    +0.000 A 
ATOM     11  C   UNL     1      -0.822  10.074  18.125  0.00  0.00    +0.000 A 
ATOM     12  C   UNL     1      -2.081  10.508  17.710  0.00  0.00    +0.000 A 
ATOM     13  C   UNL     1      -2.760  11.462  18.456  0.00  0.00    +0.000 A 
ATOM     14  F   UNL     1      -3.963  11.876  18.030  0.00  0.00    +0.000 F 
BRANCH   8  16
ATOM     15  O   UNL     1      -3.547  12.597  21.468  0.00  0.00    +0.000 OA
ATOM     16  C   UNL     1      -2.951  12.949  20.469  0.00  0.00    +0.000 C 
BRANCH  16  17
ATOM     17  O   UNL     1      -2.863  14.238  20.076  0.00  0.00    +0.000 OA
ATOM     18  H   UNL     1      -2.898  14.904  20.788  0.00  0.00    +0.000 HD
ENDBRANCH  16  17
ENDBRANCH   8  16
ENDBRANCH   7  10
ENDBRANCH   1   7
BRANCH   5  19
ATOM     19  C   UNL     1       2.224   5.530  20.604  0.00  0.00    +0.000 C 
BRANCH  19  20
ATOM     20  C   UNL     1       1.317   4.426  20.062  0.00  0.00    +0.000 C 
BRANCH  20  21
ATOM     21  N   UNL     1       2.046   3.192  19.768  0.00  0.00    +0.000 NA
ATOM     22  H   UNL     1       1.521   2.387  20.113  0.00  0.00    +0.000 HD
BRANCH  21  23
ATOM     23  C   UNL     1       2.269   3.048  18.318  0.00  0.00    +0.000 C 
BRANCH  23  24
ATOM     24  C   UNL     1       3.696   2.584  17.903  0.00  0.00    +0.000 C 
BRANCH  24  25
ATOM     25  C   UNL     1       4.616   3.738  17.567  0.00  0.00    +0.000 A 
ATOM     26  C   UNL     1       4.541   4.374  16.318  0.00  0.00    +0.000 A 
ATOM     27  C   UNL     1       5.387   5.441  16.008  0.00  0.00    +0.000 A 
ATOM     28  C   UNL     1       6.316   5.887  16.948  0.00  0.00    +0.000 A 
ATOM     29  C   UNL     1       6.385   5.274  18.196  0.00  0.00    +0.000 A 
ATOM     30 CL   UNL     1       7.520   5.831  19.363  0.00  0.00    +0.000 Cl
ATOM     31  C   UNL     1       5.543   4.210  18.510  0.00  0.00    +0.000 A 
ENDBRANCH  24  25
BRANCH  24  32
ATOM     32  O   UNL     1       4.310   1.793  18.921  0.00  0.00    +0.000 OA
ATOM     33  H   UNL     1       4.595   0.953  18.533  0.00  0.00    +0.000 HD
ENDBRANCH  24  32
ENDBRANCH  23  24
ENDBRANCH  21  23
ENDBRANCH  20  21
ENDBRANCH  19  20
ENDBRANCH   5  19
TORSDOF 11
ENDMDL
MODEL 5
REMARK VINA RESULT:      -7.8      2.853      4.225
REMARK  Name = 
REMARK  11 active torsions:
REMARK  status: ('A' for Active; 'I' for Inactive)
REMARK    1  A    between atoms: C_2  and  O_3
REMARK    2  A    between atoms: C_2  and  C_4
REMARK    3  A    between atoms: C_6  and  O_7
REMARK    4  A    between atoms: O_7  and  C_8
REMARK    5  A    between atoms: C_12  and  C_13
REMARK    6  A    between atoms: C_13  and  C_14
REMARK    7  A    between atoms: C_14  and  N_15
REMARK    8  A    between atoms: N_15  and  C_16
REMARK    9  A    between atoms: C_16  and  C_17
REMARK   10  A    between atoms: C_17  and  O_18
REMARK   11  A    between atoms: C_17  and  C_19
REMARK                            x       y       z     vdW  Elec       q    Type
REMARK                         _______ _______ _______ _____ _____    ______ ____
ROOT
ATOM      1  C   UNL     1       3.866   3.430  19.567  0.00  0.00    +0.000 A 
ATOM      2  C   UNL     1       3.082   2.313  19.286  0.00  0.00    +0.000 A 
ATOM      3  C   UNL     1       1.702   2.355  19.494  0.00  0.00    +0.000 A 
ATOM      4  C   UNL     1       1.102   3.511  19.994  0.00  0.00    +0.000 A 
ATOM      5  C   UNL     1       1.875   4.646  20.268  0.00  0.00    +0.000 A 
ATOM      6  C   UNL     1       3.255   4.605  20.012  0.00  0.00    +0.000 A 
ENDROOT
BRANCH   1   7
ATOM      7  O   UNL     1       5.218   3.312  19.327  0.00  0.00    +0.000 OA
BRANCH   7  10
ATOM      8  C   UNL     1       6.349   5.696  16.799  0.00  0.00    +0.000 A 
ATOM      9  C   UNL     1       5.679   4.640  17.434  0.00  0.00    +0.000 A 
ATOM     10  C   UNL     1       5.918   4.371  18.785  0.00  0.00    +0.000 A 
ATOM     11  C   UNL     1       6.875   5.117  19.483  0.00  0.00    +0.000 A 
ATOM     12  C   UNL     1       7.522   6.183  18.859  0.00  0.00    +0.000 A 
ATOM     13  C   UNL     1       7.252   6.467  17.526  0.00  0.00    +0.000 A 
ATOM     14  F   UNL     1       7.875   7.506  16.950  0.00  0.00    +0.000 F 
BRANCH   8  16
ATOM     15  O   UNL     1       6.731   5.350  14.493  0.00  0.00    +0.000 OA
ATOM     16  C   UNL     1       6.109   5.937  15.356  0.00  0.00    +0.000 C 
BRANCH  16  17
ATOM     17  O   UNL     1       5.113   6.809  15.086  0.00  0.00    +0.000 OA
ATOM     18  H   UNL     1       4.759   6.784  14.177  0.00  0.00    +0.000 HD
ENDBRANCH  16  17
ENDBRANCH   8  16
ENDBRANCH   7  10
ENDBRANCH   1   7
BRANCH   5  19
ATOM     19  C   UNL     1       1.242   5.899  20.834  0.00  0.00    +0.000 C 
BRANCH  19  20
ATOM     20  C   UNL     1       1.908   7.149  20.259  0.00  0.00    +0.000 C 
BRANCH  20  21
ATOM     21  N   UNL     1       1.895   8.274  21.195  0.00  0.00    +0.000 NA
ATOM     22  H   UNL     1       2.314   9.096  20.756  0.00  0.00    +0.000 HD
BRANCH  21  23
ATOM     23  C   UNL     1       0.519   8.590  21.616  0.00  0.00    +0.000 C 
BRANCH  23  24
ATOM     24  C   UNL     1       0.376   9.801  22.584  0.00  0.00    +0.000 C 
BRANCH  24  25
ATOM     25  C   UNL     1      -0.662  10.802  22.126  0.00  0.00    +0.000 A 
ATOM     26  C   UNL     1      -0.767  11.157  20.772  0.00  0.00    +0.000 A 
ATOM     27  C   UNL     1      -1.726  12.078  20.348  0.00  0.00    +0.000 A 
ATOM     28  C   UNL     1      -2.596  12.652  21.274  0.00  0.00    +0.000 A 
ATOM     29  C   UNL     1      -2.512  12.292  22.616  0.00  0.00    +0.000 A 
ATOM     30 CL   UNL     1      -3.593  12.988  23.760  0.00  0.00    +0.000 Cl
ATOM     31  C   UNL     1      -1.557  11.374  23.045  0.00  0.00    +0.000 A 
ENDBRANCH  24  25
BRANCH  24  32
ATOM     32  O   UNL     1       0.050   9.379  23.910  0.00  0.00    +0.000 OA
ATOM     33  H   UNL     1      -0.115  10.162  24.453  0.00  0.00    +0.000 HD
ENDBRANCH  24  32
ENDBRANCH  23  24
ENDBRANCH  21  23
ENDBRANCH  20  21
ENDBRANCH  19  20
ENDBRANCH   5  19
TORSDOF 11
ENDMDL
MODEL 6
REMARK VINA RESULT:      -7.7      4.400      9.424
REMARK  Name = 
REMARK  11 active torsions:
REMARK  status: ('A' for Active; 'I' for Inactive)
REMARK    1  A    between atoms: C_2  and  O_3
REMARK    2  A    between atoms: C_2  and  C_4
REMARK    3  A    between atoms: C_6  and  O_7
REMARK    4  A    between atoms: O_7  and  C_8
REMARK    5  A    between atoms: C_12  and  C_13
REMARK    6  A    between atoms: C_13  and  C_14
REMARK    7  A    between atoms: C_14  and  N_15
REMARK    8  A    between atoms: N_15  and  C_16
REMARK    9  A    between atoms: C_16  and  C_17
REMARK   10  A    between atoms: C_17  and  O_18
REMARK   11  A    between atoms: C_17  and  C_19
REMARK                            x       y       z     vdW  Elec       q    Type
REMARK                         _______ _______ _______ _____ _____    ______ ____
ROOT
ATOM      1  C   UNL     1       1.465   8.679  19.860  0.00  0.00    +0.000 A 
ATOM      2  C   UNL     1       1.994   8.706  18.571  0.00  0.00    +0.000 A 
ATOM      3  C   UNL     1       2.537   7.546  18.013  0.00  0.00    +0.000 A 
ATOM      4  C   UNL     1       2.562   6.359  18.744  0.00  0.00    +0.000 A 
ATOM      5  C   UNL     1       2.020   6.313  20.034  0.00  0.00    +0.000 A 
ATOM      6  C   UNL     1       1.437   7.473  20.567  0.00  0.00    +0.000 A 
ENDROOT
BRANCH   1   7
ATOM      7  O   UNL     1       0.940   9.860  20.337  0.00  0.00    +0.000 OA
BRANCH   7  10
ATOM      8  C   UNL     1      -1.990  12.015  19.985  0.00  0.00    +0.000 A 
ATOM      9  C   UNL     1      -0.817  11.427  20.479  0.00  0.00    +0.000 A 
ATOM     10  C   UNL     1      -0.208  10.382  19.776  0.00  0.00    +0.000 A 
ATOM     11  C   UNL     1      -0.810   9.883  18.616  0.00  0.00    +0.000 A 
ATOM     12  C   UNL     1      -1.963  10.484  18.111  0.00  0.00    +0.000 A 
ATOM     13  C   UNL     1      -2.540  11.547  18.795  0.00  0.00    +0.000 A 
ATOM     14  F   UNL     1      -3.640  12.120  18.284  0.00  0.00    +0.000 F 
BRANCH   8  16
ATOM     15  O   UNL     1      -3.090  12.903  21.878  0.00  0.00    +0.000 OA
ATOM     16  C   UNL     1      -2.638  13.096  20.767  0.00  0.00    +0.000 C 
BRANCH  16  17
ATOM     17  O   UNL     1      -2.630  14.308  20.172  0.00  0.00    +0.000 OA
ATOM     18  H   UNL     1      -1.758  14.637  19.884  0.00  0.00    +0.000 HD
ENDBRANCH  16  17
ENDBRANCH   8  16
ENDBRANCH   7  10
ENDBRANCH   1   7
BRANCH   5  19
ATOM     19  C   UNL     1       2.061   5.037  20.849  0.00  0.00    +0.000 C 
BRANCH  19  20
ATOM     20  C   UNL     1       1.050   4.023  20.317  0.00  0.00    +0.000 C 
BRANCH  20  21
ATOM     21  N   UNL     1       1.676   2.763  19.913  0.00  0.00    +0.000 NA
ATOM     22  H   UNL     1       1.173   1.976  20.329  0.00  0.00    +0.000 HD
BRANCH  21  23
ATOM     23  C   UNL     1       1.677   2.625  18.447  0.00  0.00    +0.000 C 
BRANCH  23  24
ATOM     24  C   UNL     1       3.020   2.148  17.819  0.00  0.00    +0.000 C 
BRANCH  24  25
ATOM     25  C   UNL     1       4.076   3.232  17.791  0.00  0.00    +0.000 A 
ATOM     26  C   UNL     1       4.880   3.477  18.916  0.00  0.00    +0.000 A 
ATOM     27  C   UNL     1       5.856   4.475  18.890  0.00  0.00    +0.000 A 
ATOM     28  C   UNL     1       6.044   5.235  17.736  0.00  0.00    +0.000 A 
ATOM     29  C   UNL     1       5.264   4.986  16.610  0.00  0.00    +0.000 A 
ATOM     30 CL   UNL     1       5.500   5.913  15.180  0.00  0.00    +0.000 Cl
ATOM     31  C   UNL     1       4.288   3.992  16.631  0.00  0.00    +0.000 A 
ENDBRANCH  24  25
BRANCH  24  32
ATOM     32  O   UNL     1       3.548   1.013  18.508  0.00  0.00    +0.000 OA
ATOM     33  H   UNL     1       2.832   0.381  18.661  0.00  0.00    +0.000 HD
ENDBRANCH  24  32
ENDBRANCH  23  24
ENDBRANCH  21  23
ENDBRANCH  20  21
ENDBRANCH  19  20
ENDBRANCH   5  19
TORSDOF 11
ENDMDL
MODEL 7
REMARK VINA RESULT:      -7.7      4.471      9.623
REMARK  Name = 
REMARK  11 active torsions:
REMARK  status: ('A' for Active; 'I' for Inactive)
REMARK    1  A    between atoms: C_2  and  O_3
REMARK    2  A    between atoms: C_2  and  C_4
REMARK    3  A    between atoms: C_6  and  O_7
REMARK    4  A    between atoms: O_7  and  C_8
REMARK    5  A    between atoms: C_12  and  C_13
REMARK    6  A    between atoms: C_13  and  C_14
REMARK    7  A    between atoms: C_14  and  N_15
REMARK    8  A    between atoms: N_15  and  C_16
REMARK    9  A    between atoms: C_16  and  C_17
REMARK   10  A    between atoms: C_17  and  O_18
REMARK   11  A    between atoms: C_17  and  C_19
REMARK                            x       y       z     vdW  Elec       q    Type
REMARK                         _______ _______ _______ _____ _____    ______ ____
ROOT
ATOM      1  C   UNL     1       1.563   9.126  19.290  0.00  0.00    +0.000 A 
ATOM      2  C   UNL     1       2.225   8.995  18.071  0.00  0.00    +0.000 A 
ATOM      3  C   UNL     1       2.774   7.765  17.700  0.00  0.00    +0.000 A 
ATOM      4  C   UNL     1       2.670   6.665  18.552  0.00  0.00    +0.000 A 
ATOM      5  C   UNL     1       1.995   6.778  19.772  0.00  0.00    +0.000 A 
ATOM      6  C   UNL     1       1.410   8.007  20.113  0.00  0.00    +0.000 A 
ENDROOT
BRANCH   1   7
ATOM      7  O   UNL     1       1.043  10.369  19.580  0.00  0.00    +0.000 OA
BRANCH   7  10
ATOM      8  C   UNL     1      -2.216  12.023  19.589  0.00  0.00    +0.000 A 
ATOM      9  C   UNL     1      -0.917  11.629  19.943  0.00  0.00    +0.000 A 
ATOM     10  C   UNL     1      -0.229  10.701  19.156  0.00  0.00    +0.000 A 
ATOM     11  C   UNL     1      -0.864  10.118  18.054  0.00  0.00    +0.000 A 
ATOM     12  C   UNL     1      -2.146  10.528  17.688  0.00  0.00    +0.000 A 
ATOM     13  C   UNL     1      -2.809  11.478  18.454  0.00  0.00    +0.000 A 
ATOM     14  F   UNL     1      -4.036  11.868  18.075  0.00  0.00    +0.000 F 
BRANCH   8  16
ATOM     15  O   UNL     1      -3.679  12.606  21.351  0.00  0.00    +0.000 OA
ATOM     16  C   UNL     1      -2.941  12.979  20.461  0.00  0.00    +0.000 C 
BRANCH  16  17
ATOM     17  O   UNL     1      -2.668  14.280  20.223  0.00  0.00    +0.000 OA
ATOM     18  H   UNL     1      -3.153  14.689  19.482  0.00  0.00    +0.000 HD
ENDBRANCH  16  17
ENDBRANCH   8  16
ENDBRANCH   7  10
ENDBRANCH   1   7
BRANCH   5  19
ATOM     19  C   UNL     1       1.896   5.599  20.718  0.00  0.00    +0.000 C 
BRANCH  19  20
ATOM     20  C   UNL     1       1.988   4.281  19.951  0.00  0.00    +0.000 C 
BRANCH  20  21
ATOM     21  N   UNL     1       2.721   3.251  20.687  0.00  0.00    +0.000 NA
ATOM     22  H   UNL     1       2.152   2.406  20.764  0.00  0.00    +0.000 HD
BRANCH  21  23
ATOM     23  C   UNL     1       3.990   2.927  20.011  0.00  0.00    +0.000 C 
BRANCH  23  24
ATOM     24  C   UNL     1       3.996   3.123  18.466  0.00  0.00    +0.000 C 
BRANCH  24  25
ATOM     25  C   UNL     1       5.098   4.046  17.993  0.00  0.00    +0.000 A 
ATOM     26  C   UNL     1       5.780   4.870  18.901  0.00  0.00    +0.000 A 
ATOM     27  C   UNL     1       6.799   5.720  18.466  0.00  0.00    +0.000 A 
ATOM     28  C   UNL     1       7.151   5.751  17.117  0.00  0.00    +0.000 A 
ATOM     29  C   UNL     1       6.491   4.923  16.212  0.00  0.00    +0.000 A 
ATOM     30 CL   UNL     1       6.930   4.949  14.549  0.00  0.00    +0.000 Cl
ATOM     31  C   UNL     1       5.474   4.074  16.641  0.00  0.00    +0.000 A 
ENDBRANCH  24  25
BRANCH  24  32
ATOM     32  O   UNL     1       4.117   1.876  17.779  0.00  0.00    +0.000 OA
ATOM     33  H   UNL     1       4.330   2.053  16.852  0.00  0.00    +0.000 HD
ENDBRANCH  24  32
ENDBRANCH  23  24
ENDBRANCH  21  23
ENDBRANCH  20  21
ENDBRANCH  19  20
ENDBRANCH   5  19
TORSDOF 11
ENDMDL
MODEL 8
REMARK VINA RESULT:      -7.7      1.208      1.658
REMARK  Name = 
REMARK  11 active torsions:
REMARK  status: ('A' for Active; 'I' for Inactive)
REMARK    1  A    between atoms: C_2  and  O_3
REMARK    2  A    between atoms: C_2  and  C_4
REMARK    3  A    between atoms: C_6  and  O_7
REMARK    4  A    between atoms: O_7  and  C_8
REMARK    5  A    between atoms: C_12  and  C_13
REMARK    6  A    between atoms: C_13  and  C_14
REMARK    7  A    between atoms: C_14  and  N_15
REMARK    8  A    between atoms: N_15  and  C_16
REMARK    9  A    between atoms: C_16  and  C_17
REMARK   10  A    between atoms: C_17  and  O_18
REMARK   11  A    between atoms: C_17  and  C_19
REMARK                            x       y       z     vdW  Elec       q    Type
REMARK                         _______ _______ _______ _____ _____    ______ ____
ROOT
ATOM      1  C   UNL     1       2.308   6.868  19.284  0.00  0.00    +0.000 A 
ATOM      2  C   UNL     1       2.494   7.444  18.029  0.00  0.00    +0.000 A 
ATOM      3  C   UNL     1       2.007   8.727  17.767  0.00  0.00    +0.000 A 
ATOM      4  C   UNL     1       1.325   9.434  18.757  0.00  0.00    +0.000 A 
ATOM      5  C   UNL     1       1.144   8.875  20.027  0.00  0.00    +0.000 A 
ATOM      6  C   UNL     1       1.676   7.603  20.291  0.00  0.00    +0.000 A 
ENDROOT
BRANCH   1   7
ATOM      7  O   UNL     1       2.824   5.603  19.466  0.00  0.00    +0.000 OA
BRANCH   7  10
ATOM      8  C   UNL     1       6.393   5.346  18.723  0.00  0.00    +0.000 A 
ATOM      9  C   UNL     1       5.178   5.681  19.338  0.00  0.00    +0.000 A 
ATOM     10  C   UNL     1       3.971   5.223  18.799  0.00  0.00    +0.000 A 
ATOM     11  C   UNL     1       3.978   4.486  17.609  0.00  0.00    +0.000 A 
ATOM     12  C   UNL     1       5.187   4.132  17.012  0.00  0.00    +0.000 A 
ATOM     13  C   UNL     1       6.383   4.560  17.574  0.00  0.00    +0.000 A 
ATOM     14  F   UNL     1       7.535   4.195  16.991  0.00  0.00    +0.000 F 
BRANCH   8  16
ATOM     15  O   UNL     1       8.275   6.775  18.756  0.00  0.00    +0.000 OA
ATOM     16  C   UNL     1       7.657   5.876  19.290  0.00  0.00    +0.000 C 
BRANCH  16  17
ATOM     17  O   UNL     1       8.025   5.322  20.465  0.00  0.00    +0.000 OA
ATOM     18  H   UNL     1       8.976   5.365  20.678  0.00  0.00    +0.000 HD
ENDBRANCH  16  17
ENDBRANCH   8  16
ENDBRANCH   7  10
ENDBRANCH   1   7
BRANCH   5  19
ATOM     19  C   UNL     1       0.384   9.621  21.104  0.00  0.00    +0.000 C 
BRANCH  19  20
ATOM     20  C   UNL     1       0.965  11.020  21.306  0.00  0.00    +0.000 C 
BRANCH  20  21
ATOM     21  N   UNL     1       0.001  11.950  21.894  0.00  0.00    +0.000 NA
ATOM     22  H   UNL     1       0.431  12.448  22.676  0.00  0.00    +0.000 HD
BRANCH  21  23
ATOM     23  C   UNL     1      -0.469  12.922  20.891  0.00  0.00    +0.000 C 
BRANCH  23  24
ATOM     24  C   UNL     1      -2.004  13.180  20.876  0.00  0.00    +0.000 C 
BRANCH  24  25
ATOM     25  C   UNL     1      -2.728  12.368  19.823  0.00  0.00    +0.000 A 
ATOM     26  C   UNL     1      -4.123  12.447  19.693  0.00  0.00    +0.000 A 
ATOM     27  C   UNL     1      -4.792  11.700  18.720  0.00  0.00    +0.000 A 
ATOM     28  C   UNL     1      -4.071  10.870  17.863  0.00  0.00    +0.000 A 
ATOM     29  C   UNL     1      -2.685  10.800  17.974  0.00  0.00    +0.000 A 
ATOM     30 CL   UNL     1      -1.789   9.786  16.909  0.00  0.00    +0.000 Cl
ATOM     31  C   UNL     1      -2.013  11.542  18.942  0.00  0.00    +0.000 A 
ENDBRANCH  24  25
BRANCH  24  32
ATOM     32  O   UNL     1      -2.596  12.909  22.148  0.00  0.00    +0.000 OA
ATOM     33  H   UNL     1      -2.751  11.958  22.222  0.00  0.00    +0.000 HD
ENDBRANCH  24  32
ENDBRANCH  23  24
ENDBRANCH  21  23
ENDBRANCH  20  21
ENDBRANCH  19  20
ENDBRANCH   5  19
TORSDOF 11
ENDMDL
MODEL 9
REMARK VINA RESULT:      -7.7      4.545      8.790
REMARK  Name = 
REMARK  11 active torsions:
REMARK  status: ('A' for Active; 'I' for Inactive)
REMARK    1  A    between atoms: C_2  and  O_3
REMARK    2  A    between atoms: C_2  and  C_4
REMARK    3  A    between atoms: C_6  and  O_7
REMARK    4  A    between atoms: O_7  and  C_8
REMARK    5  A    between atoms: C_12  and  C_13
REMARK    6  A    between atoms: C_13  and  C_14
REMARK    7  A    between atoms: C_14  and  N_15
REMARK    8  A    between atoms: N_15  and  C_16
REMARK    9  A    between atoms: C_16  and  C_17
REMARK   10  A    between atoms: C_17  and  O_18
REMARK   11  A    between atoms: C_17  and  C_19
REMARK                            x       y       z     vdW  Elec       q    Type
REMARK                         _______ _______ _______ _____ _____    ______ ____
ROOT
ATOM      1  C   UNL     1       2.133   6.053  19.319  0.00  0.00    +0.000 A 
ATOM      2  C   UNL     1       1.893   5.662  18.003  0.00  0.00    +0.000 A 
ATOM      3  C   UNL     1       1.377   4.393  17.733  0.00  0.00    +0.000 A 
ATOM      4  C   UNL     1       1.108   3.507  18.776  0.00  0.00    +0.000 A 
ATOM      5  C   UNL     1       1.330   3.891  20.103  0.00  0.00    +0.000 A 
ATOM      6  C   UNL     1       1.807   5.185  20.365  0.00  0.00    +0.000 A 
ENDROOT
BRANCH   1   7
ATOM      7  O   UNL     1       2.635   7.323  19.504  0.00  0.00    +0.000 OA
BRANCH   7  10
ATOM      8  C   UNL     1       0.501   9.611  21.393  0.00  0.00    +0.000 A 
ATOM      9  C   UNL     1       1.376   8.566  21.064  0.00  0.00    +0.000 A 
ATOM     10  C   UNL     1       1.775   8.378  19.737  0.00  0.00    +0.000 A 
ATOM     11  C   UNL     1       1.247   9.195  18.731  0.00  0.00    +0.000 A 
ATOM     12  C   UNL     1       0.396  10.250  19.061  0.00  0.00    +0.000 A 
ATOM     13  C   UNL     1       0.034  10.452  20.387  0.00  0.00    +0.000 A 
ATOM     14  F   UNL     1      -0.773  11.483  20.684  0.00  0.00    +0.000 F 
BRANCH   8  16
ATOM     15  O   UNL     1      -1.096   9.991  23.093  0.00  0.00    +0.000 OA
ATOM     16  C   UNL     1       0.062   9.766  22.801  0.00  0.00    +0.000 C 
BRANCH  16  17
ATOM     17  O   UNL     1       1.033   9.580  23.721  0.00  0.00    +0.000 OA
ATOM     18  H   UNL     1       1.721   8.929  23.489  0.00  0.00    +0.000 HD
ENDBRANCH  16  17
ENDBRANCH   8  16
ENDBRANCH   7  10
ENDBRANCH   1   7
BRANCH   5  19
ATOM     19  C   UNL     1       1.067   2.931  21.244  0.00  0.00    +0.000 C 
BRANCH  19  20
ATOM     20  C   UNL     1       2.346   2.194  21.638  0.00  0.00    +0.000 C 
BRANCH  20  21
ATOM     21  N   UNL     1       3.556   2.926  21.263  0.00  0.00    +0.000 NA
ATOM     22  H   UNL     1       4.086   3.174  22.100  0.00  0.00    +0.000 HD
BRANCH  21  23
ATOM     23  C   UNL     1       4.401   2.117  20.368  0.00  0.00    +0.000 C 
BRANCH  23  24
ATOM     24  C   UNL     1       4.017   2.164  18.859  0.00  0.00    +0.000 C 
BRANCH  24  25
ATOM     25  C   UNL     1       4.732   3.262  18.102  0.00  0.00    +0.000 A 
ATOM     26  C   UNL     1       4.493   3.461  16.734  0.00  0.00    +0.000 A 
ATOM     27  C   UNL     1       5.150   4.475  16.035  0.00  0.00    +0.000 A 
ATOM     28  C   UNL     1       6.050   5.307  16.699  0.00  0.00    +0.000 A 
ATOM     29  C   UNL     1       6.280   5.129  18.061  0.00  0.00    +0.000 A 
ATOM     30 CL   UNL     1       7.380   6.161  18.888  0.00  0.00    +0.000 Cl
ATOM     31  C   UNL     1       5.627   4.118  18.763  0.00  0.00    +0.000 A 
ENDBRANCH  24  25
BRANCH  24  32
ATOM     32  O   UNL     1       4.278   0.918  18.211  0.00  0.00    +0.000 OA
ATOM     33  H   UNL     1       5.163   0.950  17.821  0.00  0.00    +0.000 HD
ENDBRANCH  24  32
ENDBRANCH  23  24
ENDBRANCH  21  23
ENDBRANCH  20  21
ENDBRANCH  19  20
ENDBRANCH   5  19
TORSDOF 11
ENDMDL
