MODEL 1
REMARK VINA RESULT:      -7.4      0.000      0.000
REMARK  Name = 
REMARK  7 active torsions:
REMARK  status: ('A' for Active; 'I' for Inactive)
REMARK    1  A    between atoms: C_1  and  O_2
REMARK    2  A    between atoms: O_2  and  C_3
REMARK    3  A    between atoms: C_6  and  C_7
REMARK    4  A    between atoms: N_12  and  C_13
REMARK    5  A    between atoms: C_13  and  C_14
REMARK    6  A    between atoms: C_14  and  C_15
REMARK    7  A    between atoms: C_24  and  N_25
REMARK                            x       y       z     vdW  Elec       q    Type
REMARK                         _______ _______ _______ _____ _____    ______ ____
ROOT
ATOM      1  C   UNL     1       2.801   5.492  19.880  0.00  0.00    +0.000 C 
ATOM      2  O   UNL     1       2.609   4.697  20.800  0.00  0.00    +0.000 OA
ATOM      3  N   UNL     1       2.041   6.641  19.715  0.00  0.00    +0.000 N 
ATOM      4  C   UNL     1       1.159   7.053  20.810  0.00  0.00    +0.000 C 
ATOM      5  C   UNL     1       1.385   8.542  21.143  0.00  0.00    +0.000 C 
ATOM      6  N   UNL     1       1.282   9.463  19.982  0.00  0.00    +0.000 NA
ATOM      7  C   UNL     1       2.179   8.970  18.904  0.00  0.00    +0.000 C 
ATOM      8  C   UNL     1       1.932   7.493  18.522  0.00  0.00    +0.000 C 
ENDROOT
BRANCH   1  12
ATOM      9  C   UNL     1       5.982   4.575  17.113  0.00  0.00    +0.000 A 
ATOM     10  C   UNL     1       4.657   4.215  16.848  0.00  0.00    +0.000 A 
ATOM     11  C   UNL     1       3.635   4.538  17.750  0.00  0.00    +0.000 A 
ATOM     12  C   UNL     1       3.922   5.187  18.955  0.00  0.00    +0.000 A 
ATOM     13  C   UNL     1       5.250   5.451  19.281  0.00  0.00    +0.000 A 
ATOM     14  C   UNL     1       6.250   5.197  18.339  0.00  0.00    +0.000 A 
BRANCH  14  15
ATOM     15  N   UNL     1       7.569   5.715  18.633  0.00  0.00    +0.000 N 
ATOM     16  O   UNL     1       8.313   5.036  19.349  0.00  0.00    +0.000 OA
ATOM     17  O   UNL     1       7.825   6.849  18.201  0.00  0.00    +0.000 OA
ENDBRANCH  14  15
BRANCH   9  19
ATOM     18  C   UNL     1       6.936   4.871  14.962  0.00  0.00    +0.000 C 
ATOM     19  O   UNL     1       7.026   4.321  16.273  0.00  0.00    +0.000 OA
ENDBRANCH   9  19
ENDBRANCH   1  12
BRANCH   6  20
ATOM     20  C   UNL     1      -0.095   9.603  19.472  0.00  0.00    +0.000 C 
BRANCH  20  21
ATOM     21  C   UNL     1      -0.326  10.870  18.637  0.00  0.00    +0.000 C 
BRANCH  21  22
ATOM     22  C   UNL     1      -1.673  10.832  17.962  0.00  0.00    +0.000 A 
ATOM     23  C   UNL     1      -2.729  11.625  18.440  0.00  0.00    +0.000 A 
ATOM     24  C   UNL     1      -3.979  11.576  17.829  0.00  0.00    +0.000 A 
ATOM     25  C   UNL     1      -4.188  10.735  16.740  0.00  0.00    +0.000 A 
ATOM     26  C   UNL     1      -3.148   9.935  16.263  0.00  0.00    +0.000 A 
ATOM     27  C   UNL     1      -1.897   9.981  16.873  0.00  0.00    +0.000 A 
ENDBRANCH  21  22
ENDBRANCH  20  21
ENDBRANCH   6  20
TORSDOF 6
ENDMDL
MODEL 2
REMARK VINA RESULT:      -7.4      2.957      4.048
REMARK  Name = 
REMARK  7 active torsions:
REMARK  status: ('A' for Active; 'I' for Inactive)
REMARK    1  A    between atoms: C_1  and  O_2
REMARK    2  A    between atoms: O_2  and  C_3
REMARK    3  A    between atoms: C_6  and  C_7
REMARK    4  A    between atoms: N_12  and  C_13
REMARK    5  A    between atoms: C_13  and  C_14
REMARK    6  A    between atoms: C_14  and  C_15
REMARK    7  A    between atoms: C_24  and  N_25
REMARK                            x       y       z     vdW  Elec       q    Type
REMARK                         _______ _______ _______ _____ _____    ______ ____
ROOT
ATOM      1  C   UNL     1       2.367   8.077  18.137  0.00  0.00    +0.000 C 
ATOM      2  O   UNL     1       2.579   8.777  17.147  0.00  0.00    +0.000 OA
ATOM      3  N   UNL     1       1.746   8.565  19.278  0.00  0.00    +0.000 N 
ATOM      4  C   UNL     1       1.094   9.875  19.207  0.00  0.00    +0.000 C 
ATOM      5  C   UNL     1      -0.341   9.786  19.766  0.00  0.00    +0.000 C 
ATOM      6  N   UNL     1      -0.444   9.197  21.126  0.00  0.00    +0.000 NA
ATOM      7  C   UNL     1       0.260   7.888  21.131  0.00  0.00    +0.000 C 
ATOM      8  C   UNL     1       1.717   7.967  20.620  0.00  0.00    +0.000 C 
ENDROOT
BRANCH   1  12
ATOM      9  C   UNL     1       3.448   3.910  17.854  0.00  0.00    +0.000 A 
ATOM     10  C   UNL     1       2.112   4.320  17.831  0.00  0.00    +0.000 A 
ATOM     11  C   UNL     1       1.781   5.679  17.905  0.00  0.00    +0.000 A 
ATOM     12  C   UNL     1       2.776   6.652  18.049  0.00  0.00    +0.000 A 
ATOM     13  C   UNL     1       4.102   6.248  18.185  0.00  0.00    +0.000 A 
ATOM     14  C   UNL     1       4.425   4.897  18.029  0.00  0.00    +0.000 A 
BRANCH  14  15
ATOM     15  N   UNL     1       5.833   4.571  17.935  0.00  0.00    +0.000 N 
ATOM     16  O   UNL     1       6.340   4.510  16.810  0.00  0.00    +0.000 OA
ATOM     17  O   UNL     1       6.409   4.301  18.999  0.00  0.00    +0.000 OA
ENDBRANCH  14  15
BRANCH   9  19
ATOM     18  C   UNL     1       3.293   1.701  18.703  0.00  0.00    +0.000 C 
ATOM     19  O   UNL     1       3.850   2.609  17.759  0.00  0.00    +0.000 OA
ENDBRANCH   9  19
ENDBRANCH   1  12
BRANCH   6  20
ATOM     20  C   UNL     1       0.103  10.071  22.180  0.00  0.00    +0.000 C 
BRANCH  20  21
ATOM     21  C   UNL     1      -0.912  10.443  23.270  0.00  0.00    +0.000 C 
BRANCH  21  22
ATOM     22  C   UNL     1      -1.505  11.805  23.013  0.00  0.00    +0.000 A 
ATOM     23  C   UNL     1      -2.846  12.068  23.335  0.00  0.00    +0.000 A 
ATOM     24  C   UNL     1      -3.399  13.319  23.079  0.00  0.00    +0.000 A 
ATOM     25  C   UNL     1      -2.622  14.317  22.497  0.00  0.00    +0.000 A 
ATOM     26  C   UNL     1      -1.291  14.064  22.164  0.00  0.00    +0.000 A 
ATOM     27  C   UNL     1      -0.735  12.812  22.418  0.00  0.00    +0.000 A 
ENDBRANCH  21  22
ENDBRANCH  20  21
ENDBRANCH   6  20
TORSDOF 6
ENDMDL
MODEL 3
REMARK VINA RESULT:      -7.3      3.231      4.919
REMARK  Name = 
REMARK  7 active torsions:
REMARK  status: ('A' for Active; 'I' for Inactive)
REMARK    1  A    between atoms: C_1  and  O_2
REMARK    2  A    between atoms: O_2  and  C_3
REMARK    3  A    between atoms: C_6  and  C_7
REMARK    4  A    between atoms: N_12  and  C_13
REMARK    5  A    between atoms: C_13  and  C_14
REMARK    6  A    between atoms: C_14  and  C_15
REMARK    7  A    between atoms: C_24  and  N_25
REMARK                            x       y       z     vdW  Elec       q    Type
REMARK                         _______ _______ _______ _____ _____    ______ ____
ROOT
ATOM      1  C   UNL     1       2.352   8.002  18.241  0.00  0.00    +0.000 C 
ATOM      2  O   UNL     1       2.635   8.535  17.168  0.00  0.00    +0.000 OA
ATOM      3  N   UNL     1       1.686   8.674  19.256  0.00  0.00    +0.000 N 
ATOM      4  C   UNL     1       1.076   9.969  18.948  0.00  0.00    +0.000 C 
ATOM      5  C   UNL     1      -0.388   9.997  19.433  0.00  0.00    +0.000 C 
ATOM      6  N   UNL     1      -0.578   9.629  20.859  0.00  0.00    +0.000 NA
ATOM      7  C   UNL     1       0.087   8.323  21.105  0.00  0.00    +0.000 C 
ATOM      8  C   UNL     1       1.570   8.293  20.671  0.00  0.00    +0.000 C 
ENDROOT
BRANCH   1  12
ATOM      9  C   UNL     1       3.545   3.881  18.696  0.00  0.00    +0.000 A 
ATOM     10  C   UNL     1       4.478   4.885  18.421  0.00  0.00    +0.000 A 
ATOM     11  C   UNL     1       4.074   6.220  18.296  0.00  0.00    +0.000 A 
ATOM     12  C   UNL     1       2.724   6.574  18.397  0.00  0.00    +0.000 A 
ATOM     13  C   UNL     1       1.774   5.569  18.560  0.00  0.00    +0.000 A 
ATOM     14  C   UNL     1       2.197   4.253  18.763  0.00  0.00    +0.000 A 
BRANCH  14  15
ATOM     15  N   UNL     1       1.185   3.299  19.170  0.00  0.00    +0.000 N 
ATOM     16  O   UNL     1       0.921   3.212  20.373  0.00  0.00    +0.000 OA
ATOM     17  O   UNL     1       0.711   2.583  18.275  0.00  0.00    +0.000 OA
ENDBRANCH  14  15
BRANCH   9  19
ATOM     18  C   UNL     1       4.449   2.204  20.107  0.00  0.00    +0.000 C 
ATOM     19  O   UNL     1       3.864   2.565  18.860  0.00  0.00    +0.000 OA
ENDBRANCH   9  19
ENDBRANCH   1  12
BRANCH   6  20
ATOM     20  C   UNL     1      -0.064  10.646  21.795  0.00  0.00    +0.000 C 
BRANCH  20  21
ATOM     21  C   UNL     1      -0.891  10.787  23.080  0.00  0.00    +0.000 C 
BRANCH  21  22
ATOM     22  C   UNL     1      -1.634  12.099  23.101  0.00  0.00    +0.000 A 
ATOM     23  C   UNL     1      -0.956  13.303  22.849  0.00  0.00    +0.000 A 
ATOM     24  C   UNL     1      -1.637  14.515  22.887  0.00  0.00    +0.000 A 
ATOM     25  C   UNL     1      -2.998  14.539  23.181  0.00  0.00    +0.000 A 
ATOM     26  C   UNL     1      -3.679  13.350  23.442  0.00  0.00    +0.000 A 
ATOM     27  C   UNL     1      -3.000  12.134  23.406  0.00  0.00    +0.000 A 
ENDBRANCH  21  22
ENDBRANCH  20  21
ENDBRANCH   6  20
TORSDOF 6
ENDMDL
MODEL 4
REMARK VINA RESULT:      -7.3      3.208      4.904
REMARK  Name = 
REMARK  7 active torsions:
REMARK  status: ('A' for Active; 'I' for Inactive)
REMARK    1  A    between atoms: C_1  and  O_2
REMARK    2  A    between atoms: O_2  and  C_3
REMARK    3  A    between atoms: C_6  and  C_7
REMARK    4  A    between atoms: N_12  and  C_13
REMARK    5  A    between atoms: C_13  and  C_14
REMARK    6  A    between atoms: C_14  and  C_15
REMARK    7  A    between atoms: C_24  and  N_25
REMARK                            x       y       z     vdW  Elec       q    Type
REMARK                         _______ _______ _______ _____ _____    ______ ____
ROOT
ATOM      1  C   UNL     1       2.374   7.939  18.270  0.00  0.00    +0.000 C 
ATOM      2  O   UNL     1       2.659   8.465  17.194  0.00  0.00    +0.000 OA
ATOM      3  N   UNL     1       1.713   8.619  19.283  0.00  0.00    +0.000 N 
ATOM      4  C   UNL     1       1.108   9.915  18.969  0.00  0.00    +0.000 C 
ATOM      5  C   UNL     1      -0.356   9.951  19.455  0.00  0.00    +0.000 C 
ATOM      6  N   UNL     1      -0.546   9.591  20.883  0.00  0.00    +0.000 NA
ATOM      7  C   UNL     1       0.114   8.283  21.136  0.00  0.00    +0.000 C 
ATOM      8  C   UNL     1       1.597   8.245  20.700  0.00  0.00    +0.000 C 
ENDROOT
BRANCH   1  12
ATOM      9  C   UNL     1       3.550   3.815  18.746  0.00  0.00    +0.000 A 
ATOM     10  C   UNL     1       4.489   4.815  18.475  0.00  0.00    +0.000 A 
ATOM     11  C   UNL     1       4.090   6.151  18.343  0.00  0.00    +0.000 A 
ATOM     12  C   UNL     1       2.741   6.509  18.433  0.00  0.00    +0.000 A 
ATOM     13  C   UNL     1       1.786   5.508  18.592  0.00  0.00    +0.000 A 
ATOM     14  C   UNL     1       2.203   4.191  18.802  0.00  0.00    +0.000 A 
BRANCH  14  15
ATOM     15  N   UNL     1       1.186   3.243  19.204  0.00  0.00    +0.000 N 
ATOM     16  O   UNL     1       0.649   2.561  18.325  0.00  0.00    +0.000 OA
ATOM     17  O   UNL     1       0.875   3.243  20.405  0.00  0.00    +0.000 OA
ENDBRANCH  14  15
BRANCH   9  19
ATOM     18  C   UNL     1       4.490   2.148  20.146  0.00  0.00    +0.000 C 
ATOM     19  O   UNL     1       3.864   2.498  18.916  0.00  0.00    +0.000 OA
ENDBRANCH   9  19
ENDBRANCH   1  12
BRANCH   6  20
ATOM     20  C   UNL     1      -0.025  10.610  21.814  0.00  0.00    +0.000 C 
BRANCH  20  21
ATOM     21  C   UNL     1      -0.852  10.764  23.098  0.00  0.00    +0.000 C 
BRANCH  21  22
ATOM     22  C   UNL     1      -1.596  12.076  23.106  0.00  0.00    +0.000 A 
ATOM     23  C   UNL     1      -2.972  12.110  23.384  0.00  0.00    +0.000 A 
ATOM     24  C   UNL     1      -3.662  13.319  23.372  0.00  0.00    +0.000 A 
ATOM     25  C   UNL     1      -2.988  14.502  23.081  0.00  0.00    +0.000 A 
ATOM     26  C   UNL     1      -1.623  14.478  22.794  0.00  0.00    +0.000 A 
ATOM     27  C   UNL     1      -0.929  13.269  22.804  0.00  0.00    +0.000 A 
ENDBRANCH  21  22
ENDBRANCH  20  21
ENDBRANCH   6  20
TORSDOF 6
ENDMDL
MODEL 5
REMARK VINA RESULT:      -7.3      0.469      1.061
REMARK  Name = 
REMARK  7 active torsions:
REMARK  status: ('A' for Active; 'I' for Inactive)
REMARK    1  A    between atoms: C_1  and  O_2
REMARK    2  A    between atoms: O_2  and  C_3
REMARK    3  A    between atoms: C_6  and  C_7
REMARK    4  A    between atoms: N_12  and  C_13
REMARK    5  A    between atoms: C_13  and  C_14
REMARK    6  A    between atoms: C_14  and  C_15
REMARK    7  A    between atoms: C_24  and  N_25
REMARK                            x       y       z     vdW  Elec       q    Type
REMARK                         _______ _______ _______ _____ _____    ______ ____
ROOT
ATOM      1  C   UNL     1       2.882   5.510  19.684  0.00  0.00    +0.000 C 
ATOM      2  O   UNL     1       2.726   4.682  20.581  0.00  0.00    +0.000 OA
ATOM      3  N   UNL     1       2.107   6.656  19.581  0.00  0.00    +0.000 N 
ATOM      4  C   UNL     1       1.254   7.022  20.714  0.00  0.00    +0.000 C 
ATOM      5  C   UNL     1       1.475   8.501  21.092  0.00  0.00    +0.000 C 
ATOM      6  N   UNL     1       1.328   9.459  19.966  0.00  0.00    +0.000 NA
ATOM      7  C   UNL     1       2.198   9.013  18.846  0.00  0.00    +0.000 C 
ATOM      8  C   UNL     1       1.955   7.547  18.421  0.00  0.00    +0.000 C 
ENDROOT
BRANCH   1  12
ATOM      9  C   UNL     1       5.995   4.686  16.812  0.00  0.00    +0.000 A 
ATOM     10  C   UNL     1       4.780   3.994  16.791  0.00  0.00    +0.000 A 
ATOM     11  C   UNL     1       3.774   4.289  17.720  0.00  0.00    +0.000 A 
ATOM     12  C   UNL     1       3.978   5.249  18.717  0.00  0.00    +0.000 A 
ATOM     13  C   UNL     1       5.223   5.865  18.817  0.00  0.00    +0.000 A 
ATOM     14  C   UNL     1       6.188   5.621  17.836  0.00  0.00    +0.000 A 
BRANCH  14  15
ATOM     15  N   UNL     1       7.362   6.469  17.853  0.00  0.00    +0.000 N 
ATOM     16  O   UNL     1       8.183   6.306  18.761  0.00  0.00    +0.000 OA
ATOM     17  O   UNL     1       7.415   7.355  16.986  0.00  0.00    +0.000 OA
ENDBRANCH  14  15
BRANCH   9  19
ATOM     18  C   UNL     1       6.657   4.467  14.546  0.00  0.00    +0.000 C 
ATOM     19  O   UNL     1       7.010   4.476  15.925  0.00  0.00    +0.000 OA
ENDBRANCH   9  19
ENDBRANCH   1  12
BRANCH   6  20
ATOM     20  C   UNL     1      -0.064   9.602  19.502  0.00  0.00    +0.000 C 
BRANCH  20  21
ATOM     21  C   UNL     1      -0.296  10.812  18.587  0.00  0.00    +0.000 C 
BRANCH  21  22
ATOM     22  C   UNL     1      -1.688  10.790  18.008  0.00  0.00    +0.000 A 
ATOM     23  C   UNL     1      -1.975  10.005  16.879  0.00  0.00    +0.000 A 
ATOM     24  C   UNL     1      -3.255  10.000  16.333  0.00  0.00    +0.000 A 
ATOM     25  C   UNL     1      -4.258  10.779  16.904  0.00  0.00    +0.000 A 
ATOM     26  C   UNL     1      -3.981  11.570  18.019  0.00  0.00    +0.000 A 
ATOM     27  C   UNL     1      -2.700  11.579  18.568  0.00  0.00    +0.000 A 
ENDBRANCH  21  22
ENDBRANCH  20  21
ENDBRANCH   6  20
TORSDOF 6
ENDMDL
MODEL 6
REMARK VINA RESULT:      -7.3      3.032      4.559
REMARK  Name = 
REMARK  7 active torsions:
REMARK  status: ('A' for Active; 'I' for Inactive)
REMARK    1  A    between atoms: C_1  and  O_2
REMARK    2  A    between atoms: O_2  and  C_3
REMARK    3  A    between atoms: C_6  and  C_7
REMARK    4  A    between atoms: N_12  and  C_13
REMARK    5  A    between atoms: C_13  and  C_14
REMARK    6  A    between atoms: C_14  and  C_15
REMARK    7  A    between atoms: C_24  and  N_25
REMARK                            x       y       z     vdW  Elec       q    Type
REMARK                         _______ _______ _______ _____ _____    ______ ____
ROOT
ATOM      1  C   UNL     1       2.374   7.941  18.195  0.00  0.00    +0.000 C 
ATOM      2  O   UNL     1       2.618   8.441  17.098  0.00  0.00    +0.000 OA
ATOM      3  N   UNL     1       1.758   8.648  19.218  0.00  0.00    +0.000 N 
ATOM      4  C   UNL     1       1.148   9.941  18.899  0.00  0.00    +0.000 C 
ATOM      5  C   UNL     1      -0.294   9.999  19.442  0.00  0.00    +0.000 C 
ATOM      6  N   UNL     1      -0.430   9.672  20.884  0.00  0.00    +0.000 NA
ATOM      7  C   UNL     1       0.232   8.366  21.140  0.00  0.00    +0.000 C 
ATOM      8  C   UNL     1       1.695   8.308  20.647  0.00  0.00    +0.000 C 
ENDROOT
BRANCH   1  12
ATOM      9  C   UNL     1       3.543   3.822  18.722  0.00  0.00    +0.000 A 
ATOM     10  C   UNL     1       4.483   4.816  18.438  0.00  0.00    +0.000 A 
ATOM     11  C   UNL     1       4.087   6.152  18.289  0.00  0.00    +0.000 A 
ATOM     12  C   UNL     1       2.738   6.513  18.376  0.00  0.00    +0.000 A 
ATOM     13  C   UNL     1       1.781   5.516  18.548  0.00  0.00    +0.000 A 
ATOM     14  C   UNL     1       2.196   4.201  18.775  0.00  0.00    +0.000 A 
BRANCH  14  15
ATOM     15  N   UNL     1       1.177   3.259  19.190  0.00  0.00    +0.000 N 
ATOM     16  O   UNL     1       0.621   2.585  18.317  0.00  0.00    +0.000 OA
ATOM     17  O   UNL     1       0.886   3.257  20.395  0.00  0.00    +0.000 OA
ENDBRANCH  14  15
BRANCH   9  19
ATOM     18  C   UNL     1       4.475   2.169  20.145  0.00  0.00    +0.000 C 
ATOM     19  O   UNL     1       3.854   2.507  18.908  0.00  0.00    +0.000 OA
ENDBRANCH   9  19
ENDBRANCH   1  12
BRANCH   6  20
ATOM     20  C   UNL     1       0.133  10.708  21.770  0.00  0.00    +0.000 C 
BRANCH  20  21
ATOM     21  C   UNL     1      -0.314  12.135  21.425  0.00  0.00    +0.000 C 
BRANCH  21  22
ATOM     22  C   UNL     1      -1.731  12.380  21.878  0.00  0.00    +0.000 A 
ATOM     23  C   UNL     1      -2.096  12.158  23.216  0.00  0.00    +0.000 A 
ATOM     24  C   UNL     1      -3.408  12.366  23.631  0.00  0.00    +0.000 A 
ATOM     25  C   UNL     1      -4.367  12.794  22.717  0.00  0.00    +0.000 A 
ATOM     26  C   UNL     1      -4.017  13.008  21.384  0.00  0.00    +0.000 A 
ATOM     27  C   UNL     1      -2.705  12.800  20.965  0.00  0.00    +0.000 A 
ENDBRANCH  21  22
ENDBRANCH  20  21
ENDBRANCH   6  20
TORSDOF 6
ENDMDL
MODEL 7
REMARK VINA RESULT:      -7.2      0.912      1.362
REMARK  Name = 
REMARK  7 active torsions:
REMARK  status: ('A' for Active; 'I' for Inactive)
REMARK    1  A    between atoms: C_1  and  O_2
REMARK    2  A    between atoms: O_2  and  C_3
REMARK    3  A    between atoms: C_6  and  C_7
REMARK    4  A    between atoms: N_12  and  C_13
REMARK    5  A    between atoms: C_13  and  C_14
REMARK    6  A    between atoms: C_14  and  C_15
REMARK    7  A    between atoms: C_24  and  N_25
REMARK                            x       y       z     vdW  Elec       q    Type
REMARK                         _______ _______ _______ _____ _____    ______ ____
ROOT
ATOM      1  C   UNL     1       3.080   6.032  19.513  0.00  0.00    +0.000 C 
ATOM      2  O   UNL     1       3.012   5.140  20.359  0.00  0.00    +0.000 OA
ATOM      3  N   UNL     1       2.188   7.094  19.475  0.00  0.00    +0.000 N 
ATOM      4  C   UNL     1       1.302   7.300  20.623  0.00  0.00    +0.000 C 
ATOM      5  C   UNL     1       1.367   8.769  21.090  0.00  0.00    +0.000 C 
ATOM      6  N   UNL     1       1.119   9.772  20.023  0.00  0.00    +0.000 NA
ATOM      7  C   UNL     1       2.030   9.487  18.883  0.00  0.00    +0.000 C 
ATOM      8  C   UNL     1       1.941   8.032  18.370  0.00  0.00    +0.000 C 
ENDROOT
BRANCH   1  12
ATOM      9  C   UNL     1       6.262   5.845  16.607  0.00  0.00    +0.000 A 
ATOM     10  C   UNL     1       5.003   6.354  16.277  0.00  0.00    +0.000 A 
ATOM     11  C   UNL     1       3.988   6.425  17.240  0.00  0.00    +0.000 A 
ATOM     12  C   UNL     1       4.196   5.946  18.538  0.00  0.00    +0.000 A 
ATOM     13  C   UNL     1       5.409   5.336  18.847  0.00  0.00    +0.000 A 
ATOM     14  C   UNL     1       6.439   5.345  17.902  0.00  0.00    +0.000 A 
BRANCH  14  15
ATOM     15  N   UNL     1       7.746   4.920  18.360  0.00  0.00    +0.000 N 
ATOM     16  O   UNL     1       8.205   5.451  19.377  0.00  0.00    +0.000 OA
ATOM     17  O   UNL     1       8.342   4.101  17.644  0.00  0.00    +0.000 OA
ENDBRANCH  14  15
BRANCH   9  19
ATOM     18  C   UNL     1       7.135   4.919  14.606  0.00  0.00    +0.000 C 
ATOM     19  O   UNL     1       7.308   5.770  15.734  0.00  0.00    +0.000 OA
ENDBRANCH   9  19
ENDBRANCH   1  12
BRANCH   6  20
ATOM     20  C   UNL     1      -0.281   9.795  19.561  0.00  0.00    +0.000 C 
BRANCH  20  21
ATOM     21  C   UNL     1      -0.710  11.129  18.936  0.00  0.00    +0.000 C 
BRANCH  21  22
ATOM     22  C   UNL     1      -1.919  10.947  18.054  0.00  0.00    +0.000 A 
ATOM     23  C   UNL     1      -1.878  10.055  16.969  0.00  0.00    +0.000 A 
ATOM     24  C   UNL     1      -2.987   9.901  16.143  0.00  0.00    +0.000 A 
ATOM     25  C   UNL     1      -4.145  10.635  16.388  0.00  0.00    +0.000 A 
ATOM     26  C   UNL     1      -4.193  11.530  17.457  0.00  0.00    +0.000 A 
ATOM     27  C   UNL     1      -3.084  11.688  18.285  0.00  0.00    +0.000 A 
ENDBRANCH  21  22
ENDBRANCH  20  21
ENDBRANCH   6  20
TORSDOF 6
ENDMDL
MODEL 8
REMARK VINA RESULT:      -7.1      3.287      4.954
REMARK  Name = 
REMARK  7 active torsions:
REMARK  status: ('A' for Active; 'I' for Inactive)
REMARK    1  A    between atoms: C_1  and  O_2
REMARK    2  A    between atoms: O_2  and  C_3
REMARK    3  A    between atoms: C_6  and  C_7
REMARK    4  A    between atoms: N_12  and  C_13
REMARK    5  A    between atoms: C_13  and  C_14
REMARK    6  A    between atoms: C_14  and  C_15
REMARK    7  A    between atoms: C_24  and  N_25
REMARK                            x       y       z     vdW  Elec       q    Type
REMARK                         _______ _______ _______ _____ _____    ______ ____
ROOT
ATOM      1  C   UNL     1       2.164   8.204  18.450  0.00  0.00    +0.000 C 
ATOM      2  O   UNL     1       2.355   8.729  17.353  0.00  0.00    +0.000 OA
ATOM      3  N   UNL     1       1.547   8.870  19.499  0.00  0.00    +0.000 N 
ATOM      4  C   UNL     1       0.873  10.139  19.216  0.00  0.00    +0.000 C 
ATOM      5  C   UNL     1      -0.554  10.125  19.801  0.00  0.00    +0.000 C 
ATOM      6  N   UNL     1      -0.634   9.774  21.242  0.00  0.00    +0.000 NA
ATOM      7  C   UNL     1       0.091   8.494  21.459  0.00  0.00    +0.000 C 
ATOM      8  C   UNL     1       1.541   8.507  20.924  0.00  0.00    +0.000 C 
ENDROOT
BRANCH   1  12
ATOM      9  C   UNL     1       3.511   4.122  18.822  0.00  0.00    +0.000 A 
ATOM     10  C   UNL     1       4.130   5.017  17.945  0.00  0.00    +0.000 A 
ATOM     11  C   UNL     1       3.690   6.344  17.852  0.00  0.00    +0.000 A 
ATOM     12  C   UNL     1       2.595   6.791  18.599  0.00  0.00    +0.000 A 
ATOM     13  C   UNL     1       1.902   5.880  19.392  0.00  0.00    +0.000 A 
ATOM     14  C   UNL     1       2.399   4.582  19.538  0.00  0.00    +0.000 A 
BRANCH  14  15
ATOM     15  N   UNL     1       1.783   3.760  20.558  0.00  0.00    +0.000 N 
ATOM     16  O   UNL     1       0.809   3.072  20.239  0.00  0.00    +0.000 OA
ATOM     17  O   UNL     1       2.241   3.870  21.706  0.00  0.00    +0.000 OA
ENDBRANCH  14  15
BRANCH   9  19
ATOM     18  C   UNL     1       3.423   1.890  18.025  0.00  0.00    +0.000 C 
ATOM     19  O   UNL     1       3.898   2.825  18.989  0.00  0.00    +0.000 OA
ENDBRANCH   9  19
ENDBRANCH   1  12
BRANCH   6  20
ATOM     20  C   UNL     1      -0.091  10.822  22.126  0.00  0.00    +0.000 C 
BRANCH  20  21
ATOM     21  C   UNL     1      -0.523  12.245  21.746  0.00  0.00    +0.000 C 
BRANCH  21  22
ATOM     22  C   UNL     1      -1.506  12.795  22.749  0.00  0.00    +0.000 A 
ATOM     23  C   UNL     1      -2.697  12.106  23.027  0.00  0.00    +0.000 A 
ATOM     24  C   UNL     1      -3.613  12.624  23.938  0.00  0.00    +0.000 A 
ATOM     25  C   UNL     1      -3.351  13.833  24.577  0.00  0.00    +0.000 A 
ATOM     26  C   UNL     1      -2.175  14.530  24.300  0.00  0.00    +0.000 A 
ATOM     27  C   UNL     1      -1.257  14.016  23.388  0.00  0.00    +0.000 A 
ENDBRANCH  21  22
ENDBRANCH  20  21
ENDBRANCH   6  20
TORSDOF 6
ENDMDL
MODEL 9
REMARK VINA RESULT:      -7.1      3.194      4.224
REMARK  Name = 
REMARK  7 active torsions:
REMARK  status: ('A' for Active; 'I' for Inactive)
REMARK    1  A    between atoms: C_1  and  O_2
REMARK    2  A    between atoms: O_2  and  C_3
REMARK    3  A    between atoms: C_6  and  C_7
REMARK    4  A    between atoms: N_12  and  C_13
REMARK    5  A    between atoms: C_13  and  C_14
REMARK    6  A    between atoms: C_14  and  C_15
REMARK    7  A    between atoms: C_24  and  N_25
REMARK                            x       y       z     vdW  Elec       q    Type
REMARK                         _______ _______ _______ _____ _____    ______ ____
ROOT
ATOM      1  C   UNL     1       2.298   8.228  18.245  0.00  0.00    +0.000 C 
ATOM      2  O   UNL     1       2.424   8.795  17.160  0.00  0.00    +0.000 OA
ATOM      3  N   UNL     1       1.673   8.825  19.331  0.00  0.00    +0.000 N 
ATOM      4  C   UNL     1       0.914  10.057  19.105  0.00  0.00    +0.000 C 
ATOM      5  C   UNL     1      -0.492   9.939  19.727  0.00  0.00    +0.000 C 
ATOM      6  N   UNL     1      -0.507   9.543  21.158  0.00  0.00    +0.000 NA
ATOM      7  C   UNL     1       0.300   8.305  21.318  0.00  0.00    +0.000 C 
ATOM      8  C   UNL     1       1.730   8.423  20.743  0.00  0.00    +0.000 C 
ENDROOT
BRANCH   1  12
ATOM      9  C   UNL     1       3.709   4.159  18.489  0.00  0.00    +0.000 A 
ATOM     10  C   UNL     1       2.352   4.452  18.328  0.00  0.00    +0.000 A 
ATOM     11  C   UNL     1       1.915   5.779  18.232  0.00  0.00    +0.000 A 
ATOM     12  C   UNL     1       2.819   6.841  18.340  0.00  0.00    +0.000 A 
ATOM     13  C   UNL     1       4.157   6.565  18.611  0.00  0.00    +0.000 A 
ATOM     14  C   UNL     1       4.592   5.237  18.625  0.00  0.00    +0.000 A 
BRANCH  14  15
ATOM     15  N   UNL     1       6.023   5.021  18.666  0.00  0.00    +0.000 N 
ATOM     16  O   UNL     1       6.600   4.754  17.607  0.00  0.00    +0.000 OA
ATOM     17  O   UNL     1       6.554   5.048  19.787  0.00  0.00    +0.000 OA
ENDBRANCH  14  15
BRANCH   9  19
ATOM     18  C   UNL     1       4.151   2.257  19.835  0.00  0.00    +0.000 C 
ATOM     19  O   UNL     1       4.215   2.894  18.563  0.00  0.00    +0.000 OA
ENDBRANCH   9  19
ENDBRANCH   1  12
BRANCH   6  20
ATOM     20  C   UNL     1      -0.004  10.597  22.059  0.00  0.00    +0.000 C 
BRANCH  20  21
ATOM     21  C   UNL     1      -0.374  12.021  21.621  0.00  0.00    +0.000 C 
BRANCH  21  22
ATOM     22  C   UNL     1      -1.361  12.639  22.578  0.00  0.00    +0.000 A 
ATOM     23  C   UNL     1      -1.073  13.863  23.204  0.00  0.00    +0.000 A 
ATOM     24  C   UNL     1      -1.975  14.424  24.103  0.00  0.00    +0.000 A 
ATOM     25  C   UNL     1      -3.171  13.770  24.387  0.00  0.00    +0.000 A 
ATOM     26  C   UNL     1      -3.463  12.549  23.778  0.00  0.00    +0.000 A 
ATOM     27  C   UNL     1      -2.562  11.984  22.879  0.00  0.00    +0.000 A 
ENDBRANCH  21  22
ENDBRANCH  20  21
ENDBRANCH   6  20
TORSDOF 6
ENDMDL
