MODEL 1
REMARK VINA RESULT:      -7.6      0.000      0.000
REMARK  Name = 
REMARK  9 active torsions:
REMARK  status: ('A' for Active; 'I' for Inactive)
REMARK    1  A    between atoms: C_1  and  C_2
REMARK    2  A    between atoms: C_2  and  C_14
REMARK    3  A    between atoms: N_3  and  N_4
REMARK    4  A    between atoms: N_4  and  C_5
REMARK    5  A    between atoms: C_10  and  C_11
REMARK    6  A    between atoms: C_11  and  O_13
REMARK    7  A    between atoms: N_16  and  C_17
REMARK    8  A    between atoms: C_17  and  C_18
REMARK    9  A    between atoms: C_18  and  O_20
REMARK                            x       y       z     vdW  Elec       q    Type
REMARK                         _______ _______ _______ _____ _____    ______ ____
ROOT
ATOM      1  C   UNL     1       7.553   4.712  17.332  0.00  0.00    +0.000 C 
ATOM      2  C   UNL     1       6.454   4.311  16.381  0.00  0.00    +0.000 C 
ATOM      3  N   UNL     1       5.282   3.828  16.691  0.00  0.00    +0.000 NA
ENDROOT
BRANCH   2   4
ATOM      4  C   UNL     1       6.796   4.472  14.896  0.00  0.00    +0.000 C 
ATOM      5  O   UNL     1       7.557   5.355  14.532  0.00  0.00    +0.000 OA
ATOM      6  N   UNL     1       6.199   3.575  14.044  0.00  0.00    +0.000 N 
ATOM      7  H   UNL     1       5.578   2.867  14.435  0.00  0.00    +0.000 HD
BRANCH   6   8
ATOM      8  C   UNL     1       6.481   3.597  12.626  0.00  0.00    +0.000 C 
BRANCH   8   9
ATOM      9  C   UNL     1       5.488   2.778  11.819  0.00  0.00    +0.000 C 
ATOM     10  O   UNL     1       4.385   3.172  11.467  0.00  0.00    +0.000 OA
BRANCH   9  11
ATOM     11  O   UNL     1       5.940   1.533  11.521  0.00  0.00    +0.000 OA
ATOM     12  H   UNL     1       5.421   1.070  10.834  0.00  0.00    +0.000 HD
ENDBRANCH   9  11
ENDBRANCH   8   9
ENDBRANCH   6   8
ENDBRANCH   2   4
BRANCH   3  13
ATOM     13  N   UNL     1       4.967   3.716  18.019  0.00  0.00    +0.000 N 
ATOM     14  H   UNL     1       5.322   4.449  18.655  0.00  0.00    +0.000 HD
BRANCH  13  15
ATOM     15  C   UNL     1       3.613   3.401  18.336  0.00  0.00    +0.000 A 
ATOM     16  C   UNL     1       3.163   2.071  18.272  0.00  0.00    +0.000 A 
ATOM     17  C   UNL     1       1.850   1.728  18.603  0.00  0.00    +0.000 A 
ATOM     18  C   UNL     1       0.954   2.710  19.009  0.00  0.00    +0.000 A 
ATOM     19  C   UNL     1       1.376   4.033  19.115  0.00  0.00    +0.000 A 
ATOM     20  C   UNL     1       2.710   4.379  18.819  0.00  0.00    +0.000 A 
BRANCH  20  21
ATOM     21  C   UNL     1       3.153   5.793  18.948  0.00  0.00    +0.000 C 
ATOM     22  O   UNL     1       3.584   6.432  17.999  0.00  0.00    +0.000 OA
BRANCH  21  23
ATOM     23  O   UNL     1       3.085   6.296  20.198  0.00  0.00    +0.000 OA
ATOM     24  H   UNL     1       3.290   7.244  20.282  0.00  0.00    +0.000 HD
ENDBRANCH  21  23
ENDBRANCH  20  21
ENDBRANCH  13  15
ENDBRANCH   3  13
TORSDOF 8
ENDMDL
MODEL 2
REMARK VINA RESULT:      -7.5      1.914      2.376
REMARK  Name = 
REMARK  9 active torsions:
REMARK  status: ('A' for Active; 'I' for Inactive)
REMARK    1  A    between atoms: C_1  and  C_2
REMARK    2  A    between atoms: C_2  and  C_14
REMARK    3  A    between atoms: N_3  and  N_4
REMARK    4  A    between atoms: N_4  and  C_5
REMARK    5  A    between atoms: C_10  and  C_11
REMARK    6  A    between atoms: C_11  and  O_13
REMARK    7  A    between atoms: N_16  and  C_17
REMARK    8  A    between atoms: C_17  and  C_18
REMARK    9  A    between atoms: C_18  and  O_20
REMARK                            x       y       z     vdW  Elec       q    Type
REMARK                         _______ _______ _______ _____ _____    ______ ____
ROOT
ATOM      1  C   UNL     1       6.068   6.520  16.822  0.00  0.00    +0.000 C 
ATOM      2  C   UNL     1       6.060   5.099  16.319  0.00  0.00    +0.000 C 
ATOM      3  N   UNL     1       5.615   4.045  16.947  0.00  0.00    +0.000 NA
ENDROOT
BRANCH   2   4
ATOM      4  C   UNL     1       6.674   4.903  14.930  0.00  0.00    +0.000 C 
ATOM      5  O   UNL     1       7.734   5.440  14.643  0.00  0.00    +0.000 OA
ATOM      6  N   UNL     1       5.962   4.105  14.067  0.00  0.00    +0.000 N 
ATOM      7  H   UNL     1       5.087   3.695  14.391  0.00  0.00    +0.000 HD
BRANCH   6   8
ATOM      8  C   UNL     1       6.465   3.808  12.744  0.00  0.00    +0.000 C 
BRANCH   8   9
ATOM      9  C   UNL     1       5.531   2.909  11.952  0.00  0.00    +0.000 C 
ATOM     10  O   UNL     1       4.395   3.212  11.614  0.00  0.00    +0.000 OA
BRANCH   9  11
ATOM     11  O   UNL     1       6.077   1.703  11.651  0.00  0.00    +0.000 OA
ATOM     12  H   UNL     1       6.349   1.179  12.429  0.00  0.00    +0.000 HD
ENDBRANCH   9  11
ENDBRANCH   8   9
ENDBRANCH   6   8
ENDBRANCH   2   4
BRANCH   3  13
ATOM     13  N   UNL     1       5.037   4.228  18.175  0.00  0.00    +0.000 N 
ATOM     14  H   UNL     1       5.197   5.134  18.644  0.00  0.00    +0.000 HD
BRANCH  13  15
ATOM     15  C   UNL     1       3.673   3.836  18.309  0.00  0.00    +0.000 A 
ATOM     16  C   UNL     1       2.651   4.636  17.767  0.00  0.00    +0.000 A 
ATOM     17  C   UNL     1       1.307   4.264  17.858  0.00  0.00    +0.000 A 
ATOM     18  C   UNL     1       0.953   3.080  18.494  0.00  0.00    +0.000 A 
ATOM     19  C   UNL     1       1.942   2.249  19.013  0.00  0.00    +0.000 A 
ATOM     20  C   UNL     1       3.302   2.599  18.890  0.00  0.00    +0.000 A 
BRANCH  20  21
ATOM     21  C   UNL     1       4.351   1.697  19.437  0.00  0.00    +0.000 C 
ATOM     22  O   UNL     1       5.049   2.009  20.391  0.00  0.00    +0.000 OA
BRANCH  21  23
ATOM     23  O   UNL     1       4.499   0.533  18.772  0.00  0.00    +0.000 OA
ATOM     24  H   UNL     1       3.875  -0.174  19.017  0.00  0.00    +0.000 HD
ENDBRANCH  21  23
ENDBRANCH  20  21
ENDBRANCH  13  15
ENDBRANCH   3  13
TORSDOF 8
ENDMDL
MODEL 3
REMARK VINA RESULT:      -7.2      1.872      2.461
REMARK  Name = 
REMARK  9 active torsions:
REMARK  status: ('A' for Active; 'I' for Inactive)
REMARK    1  A    between atoms: C_1  and  C_2
REMARK    2  A    between atoms: C_2  and  C_14
REMARK    3  A    between atoms: N_3  and  N_4
REMARK    4  A    between atoms: N_4  and  C_5
REMARK    5  A    between atoms: C_10  and  C_11
REMARK    6  A    between atoms: C_11  and  O_13
REMARK    7  A    between atoms: N_16  and  C_17
REMARK    8  A    between atoms: C_17  and  C_18
REMARK    9  A    between atoms: C_18  and  O_20
REMARK                            x       y       z     vdW  Elec       q    Type
REMARK                         _______ _______ _______ _____ _____    ______ ____
ROOT
ATOM      1  C   UNL     1       7.397   4.498  17.310  0.00  0.00    +0.000 C 
ATOM      2  C   UNL     1       6.048   4.502  16.639  0.00  0.00    +0.000 C 
ATOM      3  N   UNL     1       4.891   4.261  17.195  0.00  0.00    +0.000 NA
ENDROOT
BRANCH   2   4
ATOM      4  C   UNL     1       6.076   4.795  15.136  0.00  0.00    +0.000 C 
ATOM      5  O   UNL     1       5.799   5.910  14.721  0.00  0.00    +0.000 OA
ATOM      6  N   UNL     1       6.425   3.741  14.327  0.00  0.00    +0.000 N 
ATOM      7  H   UNL     1       6.643   2.844  14.760  0.00  0.00    +0.000 HD
BRANCH   6   8
ATOM      8  C   UNL     1       6.533   3.908  12.895  0.00  0.00    +0.000 C 
BRANCH   8   9
ATOM      9  C   UNL     1       5.549   3.039  12.129  0.00  0.00    +0.000 C 
ATOM     10  O   UNL     1       4.416   3.380  11.817  0.00  0.00    +0.000 OA
BRANCH   9  11
ATOM     11  O   UNL     1       6.047   1.815  11.819  0.00  0.00    +0.000 OA
ATOM     12  H   UNL     1       6.556   1.394  12.539  0.00  0.00    +0.000 HD
ENDBRANCH   9  11
ENDBRANCH   8   9
ENDBRANCH   6   8
ENDBRANCH   2   4
BRANCH   3  13
ATOM     13  N   UNL     1       4.866   4.032  18.545  0.00  0.00    +0.000 N 
ATOM     14  H   UNL     1       5.615   4.460  19.114  0.00  0.00    +0.000 HD
BRANCH  13  15
ATOM     15  C   UNL     1       3.607   4.174  19.199  0.00  0.00    +0.000 A 
ATOM     16  C   UNL     1       3.293   5.366  19.875  0.00  0.00    +0.000 A 
ATOM     17  C   UNL     1       2.057   5.546  20.502  0.00  0.00    +0.000 A 
ATOM     18  C   UNL     1       1.103   4.536  20.464  0.00  0.00    +0.000 A 
ATOM     19  C   UNL     1       1.370   3.355  19.775  0.00  0.00    +0.000 A 
ATOM     20  C   UNL     1       2.600   3.184  19.109  0.00  0.00    +0.000 A 
BRANCH  20  21
ATOM     21  C   UNL     1       2.868   1.923  18.365  0.00  0.00    +0.000 C 
ATOM     22  O   UNL     1       3.796   1.181  18.651  0.00  0.00    +0.000 OA
BRANCH  21  23
ATOM     23  O   UNL     1       2.038   1.691  17.328  0.00  0.00    +0.000 OA
ATOM     24  H   UNL     1       1.844   2.460  16.764  0.00  0.00    +0.000 HD
ENDBRANCH  21  23
ENDBRANCH  20  21
ENDBRANCH  13  15
ENDBRANCH   3  13
TORSDOF 8
ENDMDL
MODEL 4
REMARK VINA RESULT:      -7.2      1.728      2.421
REMARK  Name = 
REMARK  9 active torsions:
REMARK  status: ('A' for Active; 'I' for Inactive)
REMARK    1  A    between atoms: C_1  and  C_2
REMARK    2  A    between atoms: C_2  and  C_14
REMARK    3  A    between atoms: N_3  and  N_4
REMARK    4  A    between atoms: N_4  and  C_5
REMARK    5  A    between atoms: C_10  and  C_11
REMARK    6  A    between atoms: C_11  and  O_13
REMARK    7  A    between atoms: N_16  and  C_17
REMARK    8  A    between atoms: C_17  and  C_18
REMARK    9  A    between atoms: C_18  and  O_20
REMARK                            x       y       z     vdW  Elec       q    Type
REMARK                         _______ _______ _______ _____ _____    ______ ____
ROOT
ATOM      1  C   UNL     1       7.619   4.552  17.341  0.00  0.00    +0.000 C 
ATOM      2  C   UNL     1       6.471   4.279  16.404  0.00  0.00    +0.000 C 
ATOM      3  N   UNL     1       5.273   3.871  16.725  0.00  0.00    +0.000 NA
ENDROOT
BRANCH   2   4
ATOM      4  C   UNL     1       6.788   4.483  14.920  0.00  0.00    +0.000 C 
ATOM      5  O   UNL     1       7.535   5.383  14.567  0.00  0.00    +0.000 OA
ATOM      6  N   UNL     1       6.185   3.604  14.053  0.00  0.00    +0.000 N 
ATOM      7  H   UNL     1       5.577   2.880  14.434  0.00  0.00    +0.000 HD
BRANCH   6   8
ATOM      8  C   UNL     1       6.446   3.667  12.631  0.00  0.00    +0.000 C 
BRANCH   8   9
ATOM      9  C   UNL     1       5.466   2.837  11.820  0.00  0.00    +0.000 C 
ATOM     10  O   UNL     1       4.378   3.234  11.425  0.00  0.00    +0.000 OA
BRANCH   9  11
ATOM     11  O   UNL     1       5.910   1.578  11.571  0.00  0.00    +0.000 OA
ATOM     12  H   UNL     1       6.857   1.525  11.337  0.00  0.00    +0.000 HD
ENDBRANCH   9  11
ENDBRANCH   8   9
ENDBRANCH   6   8
ENDBRANCH   2   4
BRANCH   3  13
ATOM     13  N   UNL     1       4.983   3.720  18.055  0.00  0.00    +0.000 N 
ATOM     14  H   UNL     1       5.777   3.585  18.701  0.00  0.00    +0.000 HD
BRANCH  13  15
ATOM     15  C   UNL     1       4.040   4.631  18.615  0.00  0.00    +0.000 A 
ATOM     16  C   UNL     1       4.013   5.971  18.191  0.00  0.00    +0.000 A 
ATOM     17  C   UNL     1       3.083   6.879  18.702  0.00  0.00    +0.000 A 
ATOM     18  C   UNL     1       2.153   6.468  19.649  0.00  0.00    +0.000 A 
ATOM     19  C   UNL     1       2.131   5.139  20.067  0.00  0.00    +0.000 A 
ATOM     20  C   UNL     1       3.042   4.209  19.527  0.00  0.00    +0.000 A 
BRANCH  20  21
ATOM     21  C   UNL     1       3.001   2.790  19.972  0.00  0.00    +0.000 C 
ATOM     22  O   UNL     1       1.975   2.126  19.943  0.00  0.00    +0.000 OA
BRANCH  21  23
ATOM     23  O   UNL     1       4.168   2.312  20.449  0.00  0.00    +0.000 OA
ATOM     24  H   UNL     1       4.971   2.664  20.026  0.00  0.00    +0.000 HD
ENDBRANCH  21  23
ENDBRANCH  20  21
ENDBRANCH  13  15
ENDBRANCH   3  13
TORSDOF 8
ENDMDL
MODEL 5
REMARK VINA RESULT:      -7.1      2.037      2.608
REMARK  Name = 
REMARK  9 active torsions:
REMARK  status: ('A' for Active; 'I' for Inactive)
REMARK    1  A    between atoms: C_1  and  C_2
REMARK    2  A    between atoms: C_2  and  C_14
REMARK    3  A    between atoms: N_3  and  N_4
REMARK    4  A    between atoms: N_4  and  C_5
REMARK    5  A    between atoms: C_10  and  C_11
REMARK    6  A    between atoms: C_11  and  O_13
REMARK    7  A    between atoms: N_16  and  C_17
REMARK    8  A    between atoms: C_17  and  C_18
REMARK    9  A    between atoms: C_18  and  O_20
REMARK                            x       y       z     vdW  Elec       q    Type
REMARK                         _______ _______ _______ _____ _____    ______ ____
ROOT
ATOM      1  C   UNL     1       7.546   4.560  17.027  0.00  0.00    +0.000 C 
ATOM      2  C   UNL     1       6.197   4.364  16.385  0.00  0.00    +0.000 C 
ATOM      3  N   UNL     1       5.101   3.953  16.964  0.00  0.00    +0.000 NA
ENDROOT
BRANCH   2   4
ATOM      4  C   UNL     1       6.148   4.660  14.883  0.00  0.00    +0.000 C 
ATOM      5  O   UNL     1       5.905   5.790  14.485  0.00  0.00    +0.000 OA
ATOM      6  N   UNL     1       6.392   3.592  14.054  0.00  0.00    +0.000 N 
ATOM      7  H   UNL     1       6.589   2.684  14.472  0.00  0.00    +0.000 HD
BRANCH   6   8
ATOM      8  C   UNL     1       6.421   3.759  12.617  0.00  0.00    +0.000 C 
BRANCH   8   9
ATOM      9  C   UNL     1       5.455   2.830  11.901  0.00  0.00    +0.000 C 
ATOM     10  O   UNL     1       5.722   1.691  11.542  0.00  0.00    +0.000 OA
BRANCH   9  11
ATOM     11  O   UNL     1       4.238   3.390  11.682  0.00  0.00    +0.000 OA
ATOM     12  H   UNL     1       3.835   3.153  10.824  0.00  0.00    +0.000 HD
ENDBRANCH   9  11
ENDBRANCH   8   9
ENDBRANCH   6   8
ENDBRANCH   2   4
BRANCH   3  13
ATOM     13  N   UNL     1       5.140   3.720  18.313  0.00  0.00    +0.000 N 
ATOM     14  H   UNL     1       5.836   4.246  18.866  0.00  0.00    +0.000 HD
BRANCH  13  15
ATOM     15  C   UNL     1       3.889   3.687  18.997  0.00  0.00    +0.000 A 
ATOM     16  C   UNL     1       2.897   4.637  18.700  0.00  0.00    +0.000 A 
ATOM     17  C   UNL     1       1.651   4.614  19.333  0.00  0.00    +0.000 A 
ATOM     18  C   UNL     1       1.368   3.635  20.279  0.00  0.00    +0.000 A 
ATOM     19  C   UNL     1       2.317   2.659  20.572  0.00  0.00    +0.000 A 
ATOM     20  C   UNL     1       3.561   2.655  19.909  0.00  0.00    +0.000 A 
BRANCH  20  21
ATOM     21  C   UNL     1       4.562   1.600  20.221  0.00  0.00    +0.000 C 
ATOM     22  O   UNL     1       5.210   1.600  21.258  0.00  0.00    +0.000 OA
BRANCH  21  23
ATOM     23  O   UNL     1       4.729   0.674  19.254  0.00  0.00    +0.000 OA
ATOM     24  H   UNL     1       5.641   0.557  18.937  0.00  0.00    +0.000 HD
ENDBRANCH  21  23
ENDBRANCH  20  21
ENDBRANCH  13  15
ENDBRANCH   3  13
TORSDOF 8
ENDMDL
MODEL 6
REMARK VINA RESULT:      -7.0      0.959      1.009
REMARK  Name = 
REMARK  9 active torsions:
REMARK  status: ('A' for Active; 'I' for Inactive)
REMARK    1  A    between atoms: C_1  and  C_2
REMARK    2  A    between atoms: C_2  and  C_14
REMARK    3  A    between atoms: N_3  and  N_4
REMARK    4  A    between atoms: N_4  and  C_5
REMARK    5  A    between atoms: C_10  and  C_11
REMARK    6  A    between atoms: C_11  and  O_13
REMARK    7  A    between atoms: N_16  and  C_17
REMARK    8  A    between atoms: C_17  and  C_18
REMARK    9  A    between atoms: C_18  and  O_20
REMARK                            x       y       z     vdW  Elec       q    Type
REMARK                         _______ _______ _______ _____ _____    ______ ____
ROOT
ATOM      1  C   UNL     1       6.979   4.445  17.222  0.00  0.00    +0.000 C 
ATOM      2  C   UNL     1       5.731   4.119  16.443  0.00  0.00    +0.000 C 
ATOM      3  N   UNL     1       4.656   3.527  16.890  0.00  0.00    +0.000 NA
ENDROOT
BRANCH   2   4
ATOM      4  C   UNL     1       5.774   4.511  14.963  0.00  0.00    +0.000 C 
ATOM      5  O   UNL     1       5.422   5.627  14.611  0.00  0.00    +0.000 OA
ATOM      6  N   UNL     1       6.223   3.541  14.100  0.00  0.00    +0.000 N 
ATOM      7  H   UNL     1       6.500   2.637  14.481  0.00  0.00    +0.000 HD
BRANCH   6   8
ATOM      8  C   UNL     1       6.354   3.810  12.684  0.00  0.00    +0.000 C 
BRANCH   8   9
ATOM      9  C   UNL     1       5.443   2.937  11.837  0.00  0.00    +0.000 C 
ATOM     10  O   UNL     1       4.336   3.269  11.438  0.00  0.00    +0.000 OA
BRANCH   9  11
ATOM     11  O   UNL     1       5.976   1.719  11.562  0.00  0.00    +0.000 OA
ATOM     12  H   UNL     1       5.913   1.077  12.296  0.00  0.00    +0.000 HD
ENDBRANCH   9  11
ENDBRANCH   8   9
ENDBRANCH   6   8
ENDBRANCH   2   4
BRANCH   3  13
ATOM     13  N   UNL     1       4.608   3.207  18.220  0.00  0.00    +0.000 N 
ATOM     14  H   UNL     1       5.311   3.644  18.839  0.00  0.00    +0.000 HD
BRANCH  13  15
ATOM     15  C   UNL     1       3.325   3.226  18.841  0.00  0.00    +0.000 A 
ATOM     16  C   UNL     1       2.504   2.085  18.802  0.00  0.00    +0.000 A 
ATOM     17  C   UNL     1       1.253   2.064  19.424  0.00  0.00    +0.000 A 
ATOM     18  C   UNL     1       0.794   3.186  20.105  0.00  0.00    +0.000 A 
ATOM     19  C   UNL     1       1.596   4.321  20.190  0.00  0.00    +0.000 A 
ATOM     20  C   UNL     1       2.875   4.335  19.597  0.00  0.00    +0.000 A 
BRANCH  20  21
ATOM     21  C   UNL     1       3.727   5.549  19.706  0.00  0.00    +0.000 C 
ATOM     22  O   UNL     1       4.948   5.491  19.731  0.00  0.00    +0.000 OA
BRANCH  21  23
ATOM     23  O   UNL     1       3.048   6.709  19.822  0.00  0.00    +0.000 OA
ATOM     24  H   UNL     1       3.120   7.155  20.684  0.00  0.00    +0.000 HD
ENDBRANCH  21  23
ENDBRANCH  20  21
ENDBRANCH  13  15
ENDBRANCH   3  13
TORSDOF 8
ENDMDL
MODEL 7
REMARK VINA RESULT:      -7.0      1.912      2.450
REMARK  Name = 
REMARK  9 active torsions:
REMARK  status: ('A' for Active; 'I' for Inactive)
REMARK    1  A    between atoms: C_1  and  C_2
REMARK    2  A    between atoms: C_2  and  C_14
REMARK    3  A    between atoms: N_3  and  N_4
REMARK    4  A    between atoms: N_4  and  C_5
REMARK    5  A    between atoms: C_10  and  C_11
REMARK    6  A    between atoms: C_11  and  O_13
REMARK    7  A    between atoms: N_16  and  C_17
REMARK    8  A    between atoms: C_17  and  C_18
REMARK    9  A    between atoms: C_18  and  O_20
REMARK                            x       y       z     vdW  Elec       q    Type
REMARK                         _______ _______ _______ _____ _____    ______ ____
ROOT
ATOM      1  C   UNL     1       8.043   4.346  17.829  0.00  0.00    +0.000 C 
ATOM      2  C   UNL     1       6.790   4.638  17.045  0.00  0.00    +0.000 C 
ATOM      3  N   UNL     1       5.566   4.665  17.498  0.00  0.00    +0.000 NA
ENDROOT
BRANCH   2   4
ATOM      4  C   UNL     1       7.009   4.897  15.551  0.00  0.00    +0.000 C 
ATOM      5  O   UNL     1       7.720   5.820  15.184  0.00  0.00    +0.000 OA
ATOM      6  N   UNL     1       6.366   4.038  14.694  0.00  0.00    +0.000 N 
ATOM      7  H   UNL     1       5.793   3.292  15.087  0.00  0.00    +0.000 HD
BRANCH   6   8
ATOM      8  C   UNL     1       6.535   4.154  13.261  0.00  0.00    +0.000 C 
BRANCH   8   9
ATOM      9  C   UNL     1       5.597   3.243  12.487  0.00  0.00    +0.000 C 
ATOM     10  O   UNL     1       4.425   3.498  12.242  0.00  0.00    +0.000 OA
BRANCH   9  11
ATOM     11  O   UNL     1       6.185   2.088  12.086  0.00  0.00    +0.000 OA
ATOM     12  H   UNL     1       6.727   2.172  11.277  0.00  0.00    +0.000 HD
ENDBRANCH   9  11
ENDBRANCH   8   9
ENDBRANCH   6   8
ENDBRANCH   2   4
BRANCH   3  13
ATOM     13  N   UNL     1       5.376   4.465  18.839  0.00  0.00    +0.000 N 
ATOM     14  H   UNL     1       5.966   5.010  19.489  0.00  0.00    +0.000 HD
BRANCH  13  15
ATOM     15  C   UNL     1       4.028   4.438  19.302  0.00  0.00    +0.000 A 
ATOM     16  C   UNL     1       3.326   5.639  19.504  0.00  0.00    +0.000 A 
ATOM     17  C   UNL     1       1.995   5.645  19.930  0.00  0.00    +0.000 A 
ATOM     18  C   UNL     1       1.333   4.445  20.162  0.00  0.00    +0.000 A 
ATOM     19  C   UNL     1       1.989   3.236  19.941  0.00  0.00    +0.000 A 
ATOM     20  C   UNL     1       3.319   3.225  19.475  0.00  0.00    +0.000 A 
BRANCH  20  21
ATOM     21  C   UNL     1       4.005   1.928  19.230  0.00  0.00    +0.000 C 
ATOM     22  O   UNL     1       3.607   1.124  18.399  0.00  0.00    +0.000 OA
BRANCH  21  23
ATOM     23  O   UNL     1       5.068   1.691  20.026  0.00  0.00    +0.000 OA
ATOM     24  H   UNL     1       5.057   2.142  20.888  0.00  0.00    +0.000 HD
ENDBRANCH  21  23
ENDBRANCH  20  21
ENDBRANCH  13  15
ENDBRANCH   3  13
TORSDOF 8
ENDMDL
MODEL 8
REMARK VINA RESULT:      -6.9      2.355      2.935
REMARK  Name = 
REMARK  9 active torsions:
REMARK  status: ('A' for Active; 'I' for Inactive)
REMARK    1  A    between atoms: C_1  and  C_2
REMARK    2  A    between atoms: C_2  and  C_14
REMARK    3  A    between atoms: N_3  and  N_4
REMARK    4  A    between atoms: N_4  and  C_5
REMARK    5  A    between atoms: C_10  and  C_11
REMARK    6  A    between atoms: C_11  and  O_13
REMARK    7  A    between atoms: N_16  and  C_17
REMARK    8  A    between atoms: C_17  and  C_18
REMARK    9  A    between atoms: C_18  and  O_20
REMARK                            x       y       z     vdW  Elec       q    Type
REMARK                         _______ _______ _______ _____ _____    ______ ____
ROOT
ATOM      1  C   UNL     1       7.203   5.554  18.570  0.00  0.00    +0.000 C 
ATOM      2  C   UNL     1       5.934   5.616  17.759  0.00  0.00    +0.000 C 
ATOM      3  N   UNL     1       4.712   5.479  18.198  0.00  0.00    +0.000 NA
ENDROOT
BRANCH   2   4
ATOM      4  C   UNL     1       6.138   5.837  16.257  0.00  0.00    +0.000 C 
ATOM      5  O   UNL     1       5.519   6.714  15.674  0.00  0.00    +0.000 OA
ATOM      6  N   UNL     1       7.040   4.999  15.646  0.00  0.00    +0.000 N 
ATOM      7  H   UNL     1       7.514   4.296  16.211  0.00  0.00    +0.000 HD
BRANCH   6   8
ATOM      8  C   UNL     1       7.352   5.143  14.241  0.00  0.00    +0.000 C 
BRANCH   8   9
ATOM      9  C   UNL     1       6.738   4.044  13.391  0.00  0.00    +0.000 C 
ATOM     10  O   UNL     1       6.820   3.980  12.171  0.00  0.00    +0.000 OA
BRANCH   9  11
ATOM     11  O   UNL     1       6.065   3.117  14.120  0.00  0.00    +0.000 OA
ATOM     12  H   UNL     1       6.142   3.233  15.087  0.00  0.00    +0.000 HD
ENDBRANCH   9  11
ENDBRANCH   8   9
ENDBRANCH   6   8
ENDBRANCH   2   4
BRANCH   3  13
ATOM     13  N   UNL     1       4.531   5.314  19.545  0.00  0.00    +0.000 N 
ATOM     14  H   UNL     1       4.715   6.130  20.152  0.00  0.00    +0.000 HD
BRANCH  13  15
ATOM     15  C   UNL     1       3.338   4.651  19.958  0.00  0.00    +0.000 A 
ATOM     16  C   UNL     1       2.125   5.358  20.031  0.00  0.00    +0.000 A 
ATOM     17  C   UNL     1       0.935   4.729  20.405  0.00  0.00    +0.000 A 
ATOM     18  C   UNL     1       0.930   3.373  20.714  0.00  0.00    +0.000 A 
ATOM     19  C   UNL     1       2.108   2.637  20.621  0.00  0.00    +0.000 A 
ATOM     20  C   UNL     1       3.304   3.257  20.207  0.00  0.00    +0.000 A 
BRANCH  20  21
ATOM     21  C   UNL     1       4.553   2.457  20.099  0.00  0.00    +0.000 C 
ATOM     22  O   UNL     1       4.997   1.808  21.035  0.00  0.00    +0.000 OA
BRANCH  21  23
ATOM     23  O   UNL     1       5.178   2.542  18.906  0.00  0.00    +0.000 OA
ATOM     24  H   UNL     1       4.921   3.298  18.349  0.00  0.00    +0.000 HD
ENDBRANCH  21  23
ENDBRANCH  20  21
ENDBRANCH  13  15
ENDBRANCH   3  13
TORSDOF 8
ENDMDL
MODEL 9
REMARK VINA RESULT:      -6.8      1.792      2.340
REMARK  Name = 
REMARK  9 active torsions:
REMARK  status: ('A' for Active; 'I' for Inactive)
REMARK    1  A    between atoms: C_1  and  C_2
REMARK    2  A    between atoms: C_2  and  C_14
REMARK    3  A    between atoms: N_3  and  N_4
REMARK    4  A    between atoms: N_4  and  C_5
REMARK    5  A    between atoms: C_10  and  C_11
REMARK    6  A    between atoms: C_11  and  O_13
REMARK    7  A    between atoms: N_16  and  C_17
REMARK    8  A    between atoms: C_17  and  C_18
REMARK    9  A    between atoms: C_18  and  O_20
REMARK                            x       y       z     vdW  Elec       q    Type
REMARK                         _______ _______ _______ _____ _____    ______ ____
ROOT
ATOM      1  C   UNL     1       4.914   6.752  16.250  0.00  0.00    +0.000 C 
ATOM      2  C   UNL     1       5.441   5.340  16.283  0.00  0.00    +0.000 C 
ATOM      3  N   UNL     1       5.276   4.460  17.233  0.00  0.00    +0.000 NA
ENDROOT
BRANCH   2   4
ATOM      4  C   UNL     1       6.282   4.938  15.068  0.00  0.00    +0.000 C 
ATOM      5  O   UNL     1       7.441   5.311  14.970  0.00  0.00    +0.000 OA
ATOM      6  N   UNL     1       5.649   4.152  14.136  0.00  0.00    +0.000 N 
ATOM      7  H   UNL     1       4.679   3.884  14.299  0.00  0.00    +0.000 HD
BRANCH   6   8
ATOM      8  C   UNL     1       6.355   3.669  12.969  0.00  0.00    +0.000 C 
BRANCH   8   9
ATOM      9  C   UNL     1       5.451   2.913  12.010  0.00  0.00    +0.000 C 
ATOM     10  O   UNL     1       5.728   1.839  11.493  0.00  0.00    +0.000 OA
BRANCH   9  11
ATOM     11  O   UNL     1       4.280   3.554  11.763  0.00  0.00    +0.000 OA
ATOM     12  H   UNL     1       4.352   4.528  11.741  0.00  0.00    +0.000 HD
ENDBRANCH   9  11
ENDBRANCH   8   9
ENDBRANCH   6   8
ENDBRANCH   2   4
BRANCH   3  13
ATOM     13  N   UNL     1       4.497   4.812  18.303  0.00  0.00    +0.000 N 
ATOM     14  H   UNL     1       4.383   5.821  18.496  0.00  0.00    +0.000 HD
BRANCH  13  15
ATOM     15  C   UNL     1       3.248   4.139  18.439  0.00  0.00    +0.000 A 
ATOM     16  C   UNL     1       2.156   4.507  17.634  0.00  0.00    +0.000 A 
ATOM     17  C   UNL     1       0.927   3.848  17.725  0.00  0.00    +0.000 A 
ATOM     18  C   UNL     1       0.762   2.800  18.623  0.00  0.00    +0.000 A 
ATOM     19  C   UNL     1       1.834   2.389  19.412  0.00  0.00    +0.000 A 
ATOM     20  C   UNL     1       3.086   3.025  19.298  0.00  0.00    +0.000 A 
BRANCH  20  21
ATOM     21  C   UNL     1       4.227   2.568  20.136  0.00  0.00    +0.000 C 
ATOM     22  O   UNL     1       4.084   2.216  21.298  0.00  0.00    +0.000 OA
BRANCH  21  23
ATOM     23  O   UNL     1       5.430   2.617  19.530  0.00  0.00    +0.000 OA
ATOM     24  H   UNL     1       5.609   3.422  19.013  0.00  0.00    +0.000 HD
ENDBRANCH  21  23
ENDBRANCH  20  21
ENDBRANCH  13  15
ENDBRANCH   3  13
TORSDOF 8
ENDMDL
