MODEL 1
REMARK VINA RESULT:      -4.9      0.000      0.000
REMARK  Name = 
REMARK  2 active torsions:
REMARK  status: ('A' for Active; 'I' for Inactive)
REMARK    1  A    between atoms: C_5  and  C_6
REMARK    2  A    between atoms: C_6  and  O_8
REMARK                            x       y       z     vdW  Elec       q    Type
REMARK                         _______ _______ _______ _____ _____    ______ ____
ROOT
ATOM      1  O   UNL     1       7.625   5.350  20.312  0.00  0.00    +0.000 OA
ATOM      2  C   UNL     1       7.285   5.728  19.198  0.00  0.00    +0.000 C 
ATOM      3  C   UNL     1       7.964   6.838  18.449  0.00  0.00    +0.000 C 
ATOM      4  C   UNL     1       6.973   7.129  17.330  0.00  0.00    +0.000 C 
ATOM      5  C   UNL     1       6.194   5.833  17.089  0.00  0.00    +0.000 C 
ATOM      6  C   UNL     1       6.144   5.121  18.434  0.00  0.00    +0.000 C 
ENDROOT
BRANCH   5   7
ATOM      7  C   UNL     1       6.812   4.952  16.020  0.00  0.00    +0.000 C 
ATOM      8  O   UNL     1       7.604   5.335  15.175  0.00  0.00    +0.000 OA
BRANCH   7   9
ATOM      9  O   UNL     1       6.378   3.672  16.074  0.00  0.00    +0.000 OA
ATOM     10  H   UNL     1       6.923   3.026  15.584  0.00  0.00    +0.000 HD
ENDBRANCH   7   9
ENDBRANCH   5   7
TORSDOF 2
ENDMDL
MODEL 2
REMARK VINA RESULT:      -4.8      5.166      5.841
REMARK  Name = 
REMARK  2 active torsions:
REMARK  status: ('A' for Active; 'I' for Inactive)
REMARK    1  A    between atoms: C_5  and  C_6
REMARK    2  A    between atoms: C_6  and  O_8
REMARK                            x       y       z     vdW  Elec       q    Type
REMARK                         _______ _______ _______ _____ _____    ______ ____
ROOT
ATOM      1  O   UNL     1       1.556   2.581  22.100  0.00  0.00    +0.000 OA
ATOM      2  C   UNL     1       1.627   3.188  21.039  0.00  0.00    +0.000 C 
ATOM      3  C   UNL     1       2.477   4.408  20.829  0.00  0.00    +0.000 C 
ATOM      4  C   UNL     1       1.950   4.948  19.506  0.00  0.00    +0.000 C 
ATOM      5  C   UNL     1       1.378   3.750  18.742  0.00  0.00    +0.000 C 
ATOM      6  C   UNL     1       0.876   2.781  19.804  0.00  0.00    +0.000 C 
ENDROOT
BRANCH   5   7
ATOM      7  C   UNL     1       2.387   3.089  17.823  0.00  0.00    +0.000 C 
ATOM      8  O   UNL     1       3.200   3.686  17.138  0.00  0.00    +0.000 OA
BRANCH   7   9
ATOM      9  O   UNL     1       2.288   1.740  17.813  0.00  0.00    +0.000 OA
ATOM     10  H   UNL     1       2.923   1.280  17.230  0.00  0.00    +0.000 HD
ENDBRANCH   7   9
ENDBRANCH   5   7
TORSDOF 2
ENDMDL
MODEL 3
REMARK VINA RESULT:      -4.8      1.540      3.689
REMARK  Name = 
REMARK  2 active torsions:
REMARK  status: ('A' for Active; 'I' for Inactive)
REMARK    1  A    between atoms: C_5  and  C_6
REMARK    2  A    between atoms: C_6  and  O_8
REMARK                            x       y       z     vdW  Elec       q    Type
REMARK                         _______ _______ _______ _____ _____    ______ ____
ROOT
ATOM      1  O   UNL     1       7.617   5.448  14.864  0.00  0.00    +0.000 OA
ATOM      2  C   UNL     1       6.718   5.132  15.633  0.00  0.00    +0.000 C 
ATOM      3  C   UNL     1       5.979   3.827  15.565  0.00  0.00    +0.000 C 
ATOM      4  C   UNL     1       4.786   4.082  16.476  0.00  0.00    +0.000 C 
ATOM      5  C   UNL     1       5.224   5.150  17.482  0.00  0.00    +0.000 C 
ATOM      6  C   UNL     1       6.245   6.013  16.753  0.00  0.00    +0.000 C 
ENDROOT
BRANCH   5   7
ATOM      7  C   UNL     1       5.801   4.569  18.758  0.00  0.00    +0.000 C 
ATOM      8  O   UNL     1       6.595   5.141  19.487  0.00  0.00    +0.000 OA
BRANCH   7   9
ATOM      9  O   UNL     1       5.365   3.315  19.013  0.00  0.00    +0.000 OA
ATOM     10  H   UNL     1       5.850   2.839  19.715  0.00  0.00    +0.000 HD
ENDBRANCH   7   9
ENDBRANCH   5   7
TORSDOF 2
ENDMDL
MODEL 4
REMARK VINA RESULT:      -4.8      4.152      5.336
REMARK  Name = 
REMARK  2 active torsions:
REMARK  status: ('A' for Active; 'I' for Inactive)
REMARK    1  A    between atoms: C_5  and  C_6
REMARK    2  A    between atoms: C_6  and  O_8
REMARK                            x       y       z     vdW  Elec       q    Type
REMARK                         _______ _______ _______ _____ _____    ______ ____
ROOT
ATOM      1  O   UNL     1       0.621   2.234  18.664  0.00  0.00    +0.000 OA
ATOM      2  C   UNL     1       1.649   2.825  18.361  0.00  0.00    +0.000 C 
ATOM      3  C   UNL     1       1.780   4.321  18.342  0.00  0.00    +0.000 C 
ATOM      4  C   UNL     1       3.087   4.523  17.587  0.00  0.00    +0.000 C 
ATOM      5  C   UNL     1       3.921   3.259  17.810  0.00  0.00    +0.000 C 
ATOM      6  C   UNL     1       2.919   2.123  17.974  0.00  0.00    +0.000 C 
ENDROOT
BRANCH   5   7
ATOM      7  C   UNL     1       4.847   3.356  19.007  0.00  0.00    +0.000 C 
ATOM      8  O   UNL     1       5.496   4.344  19.308  0.00  0.00    +0.000 OA
BRANCH   7   9
ATOM      9  O   UNL     1       4.910   2.208  19.721  0.00  0.00    +0.000 OA
ATOM     10  H   UNL     1       5.089   2.320  20.675  0.00  0.00    +0.000 HD
ENDBRANCH   7   9
ENDBRANCH   5   7
TORSDOF 2
ENDMDL
MODEL 5
REMARK VINA RESULT:      -4.7      5.033      6.769
REMARK  Name = 
REMARK  2 active torsions:
REMARK  status: ('A' for Active; 'I' for Inactive)
REMARK    1  A    between atoms: C_5  and  C_6
REMARK    2  A    between atoms: C_6  and  O_8
REMARK                            x       y       z     vdW  Elec       q    Type
REMARK                         _______ _______ _______ _____ _____    ______ ____
ROOT
ATOM      1  O   UNL     1       3.410   3.887  17.055  0.00  0.00    +0.000 OA
ATOM      2  C   UNL     1       2.613   3.607  17.941  0.00  0.00    +0.000 C 
ATOM      3  C   UNL     1       2.249   2.202  18.325  0.00  0.00    +0.000 C 
ATOM      4  C   UNL     1       1.014   2.411  19.190  0.00  0.00    +0.000 C 
ATOM      5  C   UNL     1       1.132   3.815  19.790  0.00  0.00    +0.000 C 
ATOM      6  C   UNL     1       1.901   4.640  18.766  0.00  0.00    +0.000 C 
ENDROOT
BRANCH   5   7
ATOM      7  C   UNL     1       1.819   3.833  21.142  0.00  0.00    +0.000 C 
ATOM      8  O   UNL     1       1.785   2.922  21.952  0.00  0.00    +0.000 OA
BRANCH   7   9
ATOM      9  O   UNL     1       2.473   4.991  21.387  0.00  0.00    +0.000 OA
ATOM     10  H   UNL     1       3.354   5.068  20.974  0.00  0.00    +0.000 HD
ENDBRANCH   7   9
ENDBRANCH   5   7
TORSDOF 2
ENDMDL
MODEL 6
REMARK VINA RESULT:      -4.7      5.146      6.191
REMARK  Name = 
REMARK  2 active torsions:
REMARK  status: ('A' for Active; 'I' for Inactive)
REMARK    1  A    between atoms: C_5  and  C_6
REMARK    2  A    between atoms: C_6  and  O_8
REMARK                            x       y       z     vdW  Elec       q    Type
REMARK                         _______ _______ _______ _____ _____    ______ ____
ROOT
ATOM      1  O   UNL     1       4.991   1.892  20.405  0.00  0.00    +0.000 OA
ATOM      2  C   UNL     1       4.096   2.245  19.648  0.00  0.00    +0.000 C 
ATOM      3  C   UNL     1       3.696   1.487  18.416  0.00  0.00    +0.000 C 
ATOM      4  C   UNL     1       2.823   2.497  17.682  0.00  0.00    +0.000 C 
ATOM      5  C   UNL     1       2.238   3.426  18.750  0.00  0.00    +0.000 C 
ATOM      6  C   UNL     1       3.276   3.484  19.863  0.00  0.00    +0.000 C 
ENDROOT
BRANCH   5   7
ATOM      7  C   UNL     1       0.892   2.964  19.273  0.00  0.00    +0.000 C 
ATOM      8  O   UNL     1       0.190   2.121  18.740  0.00  0.00    +0.000 OA
BRANCH   7   9
ATOM      9  O   UNL     1       0.516   3.604  20.403  0.00  0.00    +0.000 OA
ATOM     10  H   UNL     1      -0.443   3.769  20.489  0.00  0.00    +0.000 HD
ENDBRANCH   7   9
ENDBRANCH   5   7
TORSDOF 2
ENDMDL
MODEL 7
REMARK VINA RESULT:      -4.7      1.304      3.686
REMARK  Name = 
REMARK  2 active torsions:
REMARK  status: ('A' for Active; 'I' for Inactive)
REMARK    1  A    between atoms: C_5  and  C_6
REMARK    2  A    between atoms: C_6  and  O_8
REMARK                            x       y       z     vdW  Elec       q    Type
REMARK                         _______ _______ _______ _____ _____    ______ ____
ROOT
ATOM      1  O   UNL     1       7.558   5.304  14.965  0.00  0.00    +0.000 OA
ATOM      2  C   UNL     1       6.731   5.397  15.862  0.00  0.00    +0.000 C 
ATOM      3  C   UNL     1       5.412   4.680  15.861  0.00  0.00    +0.000 C 
ATOM      4  C   UNL     1       4.655   5.390  16.976  0.00  0.00    +0.000 C 
ATOM      5  C   UNL     1       5.711   5.938  17.940  0.00  0.00    +0.000 C 
ATOM      6  C   UNL     1       6.936   6.240  17.087  0.00  0.00    +0.000 C 
ENDROOT
BRANCH   5   7
ATOM      7  C   UNL     1       6.045   4.982  19.068  0.00  0.00    +0.000 C 
ATOM      8  O   UNL     1       5.461   3.934  19.290  0.00  0.00    +0.000 OA
BRANCH   7   9
ATOM      9  O   UNL     1       7.064   5.416  19.845  0.00  0.00    +0.000 OA
ATOM     10  H   UNL     1       7.941   5.425  19.416  0.00  0.00    +0.000 HD
ENDBRANCH   7   9
ENDBRANCH   5   7
TORSDOF 2
ENDMDL
MODEL 8
REMARK VINA RESULT:      -4.7      4.403      5.705
REMARK  Name = 
REMARK  2 active torsions:
REMARK  status: ('A' for Active; 'I' for Inactive)
REMARK    1  A    between atoms: C_5  and  C_6
REMARK    2  A    between atoms: C_6  and  O_8
REMARK                            x       y       z     vdW  Elec       q    Type
REMARK                         _______ _______ _______ _____ _____    ______ ____
ROOT
ATOM      1  O   UNL     1       0.267   2.298  18.549  0.00  0.00    +0.000 OA
ATOM      2  C   UNL     1       1.367   2.789  18.328  0.00  0.00    +0.000 C 
ATOM      3  C   UNL     1       1.641   4.265  18.339  0.00  0.00    +0.000 C 
ATOM      4  C   UNL     1       3.013   4.346  17.682  0.00  0.00    +0.000 C 
ATOM      5  C   UNL     1       3.704   3.005  17.947  0.00  0.00    +0.000 C 
ATOM      6  C   UNL     1       2.588   1.970  18.023  0.00  0.00    +0.000 C 
ENDROOT
BRANCH   5   7
ATOM      7  C   UNL     1       4.545   3.004  19.209  0.00  0.00    +0.000 C 
ATOM      8  O   UNL     1       4.256   2.417  20.238  0.00  0.00    +0.000 OA
BRANCH   7   9
ATOM      9  O   UNL     1       5.666   3.753  19.097  0.00  0.00    +0.000 OA
ATOM     10  H   UNL     1       5.883   4.297  19.879  0.00  0.00    +0.000 HD
ENDBRANCH   7   9
ENDBRANCH   5   7
TORSDOF 2
ENDMDL
MODEL 9
REMARK VINA RESULT:      -4.7      2.362      2.665
REMARK  Name = 
REMARK  2 active torsions:
REMARK  status: ('A' for Active; 'I' for Inactive)
REMARK    1  A    between atoms: C_5  and  C_6
REMARK    2  A    between atoms: C_6  and  O_8
REMARK                            x       y       z     vdW  Elec       q    Type
REMARK                         _______ _______ _______ _____ _____    ______ ____
ROOT
ATOM      1  O   UNL     1       4.074   4.461  18.665  0.00  0.00    +0.000 OA
ATOM      2  C   UNL     1       4.564   4.911  17.637  0.00  0.00    +0.000 C 
ATOM      3  C   UNL     1       4.848   6.369  17.415  0.00  0.00    +0.000 C 
ATOM      4  C   UNL     1       5.107   6.425  15.916  0.00  0.00    +0.000 C 
ATOM      5  C   UNL     1       5.614   5.039  15.508  0.00  0.00    +0.000 C 
ATOM      6  C   UNL     1       4.954   4.056  16.466  0.00  0.00    +0.000 C 
ENDROOT
BRANCH   5   7
ATOM      7  C   UNL     1       7.125   4.918  15.548  0.00  0.00    +0.000 C 
ATOM      8  O   UNL     1       7.760   4.421  16.462  0.00  0.00    +0.000 OA
BRANCH   7   9
ATOM      9  O   UNL     1       7.727   5.449  14.458  0.00  0.00    +0.000 OA
ATOM     10  H   UNL     1       7.230   5.359  13.622  0.00  0.00    +0.000 HD
ENDBRANCH   7   9
ENDBRANCH   5   7
TORSDOF 2
ENDMDL
