MODEL 1
REMARK VINA RESULT:      -6.3      0.000      0.000
REMARK  Name = 
REMARK  9 active torsions:
REMARK  status: ('A' for Active; 'I' for Inactive)
REMARK    1  A    between atoms: C_1  and  C_2
REMARK    2  A    between atoms: C_2  and  C_3
REMARK    3  A    between atoms: C_2  and  C_4
REMARK    4  A    between atoms: C_2  and  N_5
REMARK    5  A    between atoms: N_5  and  C_6
REMARK    6  A    between atoms: C_6  and  C_7
REMARK    7  A    between atoms: C_7  and  O_8
REMARK    8  A    between atoms: C_7  and  C_9
REMARK    9  A    between atoms: C_9  and  N_10
REMARK                            x       y       z     vdW  Elec       q    Type
REMARK                         _______ _______ _______ _____ _____    ______ ____
ROOT
ATOM      1  C   UNL     1       5.201   5.642  15.727  0.00  0.00    +0.000 C 
ENDROOT
BRANCH   1   2
ATOM      2  N   UNL     1       4.527   5.153  16.911  0.00  0.00    +0.000 N 
ATOM      3  C   UNL     1       3.849   5.950  17.780  0.00  0.00    +0.000 C 
ATOM      4  O   UNL     1       3.810   7.170  17.770  0.00  0.00    +0.000 OA
ATOM      5  C   UNL     1       3.165   5.053  18.739  0.00  0.00    +0.000 C 
ATOM      6  C   UNL     1       3.469   3.805  18.411  0.00  0.00    +0.000 C 
ATOM      7  S   UNL     1       3.075   2.352  19.196  0.00  0.00    +0.000 S 
ATOM      8  C   UNL     1       1.633   2.821  20.185  0.00  0.00    +0.000 C 
ATOM      9  C   UNL     1       1.600   4.195  20.856  0.00  0.00    +0.000 C 
ATOM     10  S   UNL     1       2.208   5.668  19.999  0.00  0.00    +0.000 S 
ATOM     11  C   UNL     1       4.296   3.849  17.182  0.00  0.00    +0.000 C 
ATOM     12  O   UNL     1       4.660   2.899  16.510  0.00  0.00    +0.000 OA
ENDBRANCH   1   2
BRANCH   1  13
ATOM     13  C   UNL     1       6.635   5.090  15.623  0.00  0.00    +0.000 C 
BRANCH  13  14
ATOM     14  O   UNL     1       7.600   6.040  16.107  0.00  0.00    +0.000 OA
ATOM     15  H   UNL     1       7.231   6.507  16.883  0.00  0.00    +0.000 HD
ENDBRANCH  13  14
BRANCH  13  16
ATOM     16  C   UNL     1       6.932   4.764  14.149  0.00  0.00    +0.000 C 
BRANCH  16  17
ATOM     17  N   UNL     1       6.286   3.519  13.724  0.00  0.00    +0.000 NA
ATOM     18  H   UNL     1       6.805   2.736  14.133  0.00  0.00    +0.000 HD
BRANCH  17  20
ATOM     19  C   UNL     1       6.423   1.901  11.821  0.00  0.00    +0.000 C 
ATOM     20  C   UNL     1       6.150   3.348  12.266  0.00  0.00    +0.000 C 
ATOM     21  C   UNL     1       7.080   4.315  11.513  0.00  0.00    +0.000 C 
ATOM     22  C   UNL     1       4.696   3.699  11.901  0.00  0.00    +0.000 C 
ENDBRANCH  17  20
ENDBRANCH  16  17
ENDBRANCH  13  16
ENDBRANCH   1  13
TORSDOF 6
ENDMDL
MODEL 2
REMARK VINA RESULT:      -6.3      0.321      2.073
REMARK  Name = 
REMARK  9 active torsions:
REMARK  status: ('A' for Active; 'I' for Inactive)
REMARK    1  A    between atoms: C_1  and  C_2
REMARK    2  A    between atoms: C_2  and  C_3
REMARK    3  A    between atoms: C_2  and  C_4
REMARK    4  A    between atoms: C_2  and  N_5
REMARK    5  A    between atoms: N_5  and  C_6
REMARK    6  A    between atoms: C_6  and  C_7
REMARK    7  A    between atoms: C_7  and  O_8
REMARK    8  A    between atoms: C_7  and  C_9
REMARK    9  A    between atoms: C_9  and  N_10
REMARK                            x       y       z     vdW  Elec       q    Type
REMARK                         _______ _______ _______ _____ _____    ______ ____
ROOT
ATOM      1  C   UNL     1       5.233   5.571  15.559  0.00  0.00    +0.000 C 
ENDROOT
BRANCH   1   2
ATOM      2  N   UNL     1       4.421   5.160  16.684  0.00  0.00    +0.000 N 
ATOM      3  C   UNL     1       4.286   3.868  17.089  0.00  0.00    +0.000 C 
ATOM      4  O   UNL     1       4.709   2.878  16.514  0.00  0.00    +0.000 OA
ATOM      5  C   UNL     1       3.531   3.895  18.362  0.00  0.00    +0.000 C 
ATOM      6  C   UNL     1       3.252   5.161  18.638  0.00  0.00    +0.000 C 
ATOM      7  S   UNL     1       2.322   5.815  19.900  0.00  0.00    +0.000 S 
ATOM      8  C   UNL     1       2.342   4.486  21.130  0.00  0.00    +0.000 C 
ATOM      9  C   UNL     1       2.253   3.033  20.662  0.00  0.00    +0.000 C 
ATOM     10  S   UNL     1       3.147   2.467  19.195  0.00  0.00    +0.000 S 
ATOM     11  C   UNL     1       3.884   6.002  17.595  0.00  0.00    +0.000 C 
ATOM     12  O   UNL     1       3.955   7.220  17.580  0.00  0.00    +0.000 OA
ENDBRANCH   1   2
BRANCH   1  13
ATOM     13  C   UNL     1       6.695   5.113  15.718  0.00  0.00    +0.000 C 
BRANCH  13  14
ATOM     14  O   UNL     1       7.545   6.198  16.126  0.00  0.00    +0.000 OA
ATOM     15  H   UNL     1       7.183   7.038  15.782  0.00  0.00    +0.000 HD
ENDBRANCH  13  14
BRANCH  13  16
ATOM     16  C   UNL     1       7.186   4.556  14.371  0.00  0.00    +0.000 C 
BRANCH  16  17
ATOM     17  N   UNL     1       6.285   3.525  13.844  0.00  0.00    +0.000 NA
ATOM     18  H   UNL     1       6.568   2.625  14.242  0.00  0.00    +0.000 HD
BRANCH  17  20
ATOM     19  C   UNL     1       6.589   2.050  11.847  0.00  0.00    +0.000 C 
ATOM     20  C   UNL     1       6.213   3.446  12.374  0.00  0.00    +0.000 C 
ATOM     21  C   UNL     1       7.112   4.513  11.724  0.00  0.00    +0.000 C 
ATOM     22  C   UNL     1       4.756   3.737  11.974  0.00  0.00    +0.000 C 
ENDBRANCH  17  20
ENDBRANCH  16  17
ENDBRANCH  13  16
ENDBRANCH   1  13
TORSDOF 6
ENDMDL
MODEL 3
REMARK VINA RESULT:      -6.1      0.766      1.243
REMARK  Name = 
REMARK  9 active torsions:
REMARK  status: ('A' for Active; 'I' for Inactive)
REMARK    1  A    between atoms: C_1  and  C_2
REMARK    2  A    between atoms: C_2  and  C_3
REMARK    3  A    between atoms: C_2  and  C_4
REMARK    4  A    between atoms: C_2  and  N_5
REMARK    5  A    between atoms: N_5  and  C_6
REMARK    6  A    between atoms: C_6  and  C_7
REMARK    7  A    between atoms: C_7  and  O_8
REMARK    8  A    between atoms: C_7  and  C_9
REMARK    9  A    between atoms: C_9  and  N_10
REMARK                            x       y       z     vdW  Elec       q    Type
REMARK                         _______ _______ _______ _____ _____    ______ ____
ROOT
ATOM      1  C   UNL     1       4.932   4.447  15.570  0.00  0.00    +0.000 C 
ENDROOT
BRANCH   1   2
ATOM      2  N   UNL     1       4.302   4.546  16.870  0.00  0.00    +0.000 N 
ATOM      3  C   UNL     1       3.878   5.716  17.419  0.00  0.00    +0.000 C 
ATOM      4  O   UNL     1       4.068   6.837  16.977  0.00  0.00    +0.000 OA
ATOM      5  C   UNL     1       3.140   5.366  18.653  0.00  0.00    +0.000 C 
ATOM      6  C   UNL     1       3.169   4.047  18.781  0.00  0.00    +0.000 C 
ATOM      7  S   UNL     1       2.591   3.068  20.042  0.00  0.00    +0.000 S 
ATOM      8  C   UNL     1       1.371   4.139  20.842  0.00  0.00    +0.000 C 
ATOM      9  C   UNL     1       1.665   5.633  20.982  0.00  0.00    +0.000 C 
ATOM     10  S   UNL     1       2.448   6.561  19.641  0.00  0.00    +0.000 S 
ATOM     11  C   UNL     1       3.860   3.493  17.593  0.00  0.00    +0.000 C 
ATOM     12  O   UNL     1       3.968   2.316  17.291  0.00  0.00    +0.000 OA
ENDBRANCH   1   2
BRANCH   1  13
ATOM     13  C   UNL     1       6.439   4.756  15.646  0.00  0.00    +0.000 C 
BRANCH  13  14
ATOM     14  O   UNL     1       6.677   6.154  15.879  0.00  0.00    +0.000 OA
ATOM     15  H   UNL     1       6.386   6.384  16.783  0.00  0.00    +0.000 HD
ENDBRANCH  13  14
BRANCH  13  16
ATOM     16  C   UNL     1       7.094   4.339  14.318  0.00  0.00    +0.000 C 
BRANCH  16  17
ATOM     17  N   UNL     1       6.373   3.236  13.675  0.00  0.00    +0.000 NA
ATOM     18  H   UNL     1       6.834   2.360  13.939  0.00  0.00    +0.000 HD
BRANCH  17  20
ATOM     19  C   UNL     1       4.804   3.629  11.768  0.00  0.00    +0.000 C 
ATOM     20  C   UNL     1       6.248   3.337  12.210  0.00  0.00    +0.000 C 
ATOM     21  C   UNL     1       6.759   2.056  11.527  0.00  0.00    +0.000 C 
ATOM     22  C   UNL     1       7.138   4.509  11.757  0.00  0.00    +0.000 C 
ENDBRANCH  17  20
ENDBRANCH  16  17
ENDBRANCH  13  16
ENDBRANCH   1  13
TORSDOF 6
ENDMDL
MODEL 4
REMARK VINA RESULT:      -6.0      1.009      2.239
REMARK  Name = 
REMARK  9 active torsions:
REMARK  status: ('A' for Active; 'I' for Inactive)
REMARK    1  A    between atoms: C_1  and  C_2
REMARK    2  A    between atoms: C_2  and  C_3
REMARK    3  A    between atoms: C_2  and  C_4
REMARK    4  A    between atoms: C_2  and  N_5
REMARK    5  A    between atoms: N_5  and  C_6
REMARK    6  A    between atoms: C_6  and  C_7
REMARK    7  A    between atoms: C_7  and  O_8
REMARK    8  A    between atoms: C_7  and  C_9
REMARK    9  A    between atoms: C_9  and  N_10
REMARK                            x       y       z     vdW  Elec       q    Type
REMARK                         _______ _______ _______ _____ _____    ______ ____
ROOT
ATOM      1  C   UNL     1       6.346   4.395  16.601  0.00  0.00    +0.000 C 
ENDROOT
BRANCH   1   2
ATOM      2  N   UNL     1       5.105   4.514  17.336  0.00  0.00    +0.000 N 
ATOM      3  C   UNL     1       4.271   3.470  17.589  0.00  0.00    +0.000 C 
ATOM      4  O   UNL     1       4.368   2.337  17.145  0.00  0.00    +0.000 OA
ATOM      5  C   UNL     1       3.225   3.971  18.509  0.00  0.00    +0.000 C 
ATOM      6  C   UNL     1       3.473   5.252  18.743  0.00  0.00    +0.000 C 
ATOM      7  S   UNL     1       2.571   6.386  19.628  0.00  0.00    +0.000 S 
ATOM      8  C   UNL     1       1.565   5.333  20.703  0.00  0.00    +0.000 C 
ATOM      9  C   UNL     1       0.994   4.027  20.149  0.00  0.00    +0.000 C 
ATOM     10  S   UNL     1       1.977   2.963  19.065  0.00  0.00    +0.000 S 
ATOM     11  C   UNL     1       4.732   5.604  18.045  0.00  0.00    +0.000 C 
ATOM     12  O   UNL     1       5.347   6.654  18.128  0.00  0.00    +0.000 OA
ENDBRANCH   1   2
BRANCH   1  13
ATOM     13  C   UNL     1       6.246   5.053  15.211  0.00  0.00    +0.000 C 
BRANCH  13  14
ATOM     14  O   UNL     1       5.620   6.345  15.286  0.00  0.00    +0.000 OA
ATOM     15  H   UNL     1       5.119   6.508  14.462  0.00  0.00    +0.000 HD
ENDBRANCH  13  14
BRANCH  13  16
ATOM     16  C   UNL     1       5.422   4.136  14.291  0.00  0.00    +0.000 C 
BRANCH  16  17
ATOM     17  N   UNL     1       6.263   3.148  13.609  0.00  0.00    +0.000 NA
ATOM     18  H   UNL     1       7.217   3.240  13.969  0.00  0.00    +0.000 HD
BRANCH  17  20
ATOM     19  C   UNL     1       6.749   1.923  11.483  0.00  0.00    +0.000 C 
ATOM     20  C   UNL     1       6.252   3.224  12.136  0.00  0.00    +0.000 C 
ATOM     21  C   UNL     1       7.094   4.415  11.644  0.00  0.00    +0.000 C 
ATOM     22  C   UNL     1       4.793   3.456  11.703  0.00  0.00    +0.000 C 
ENDBRANCH  17  20
ENDBRANCH  16  17
ENDBRANCH  13  16
ENDBRANCH   1  13
TORSDOF 6
ENDMDL
MODEL 5
REMARK VINA RESULT:      -5.9      1.145      1.145
REMARK  Name = 
REMARK  9 active torsions:
REMARK  status: ('A' for Active; 'I' for Inactive)
REMARK    1  A    between atoms: C_1  and  C_2
REMARK    2  A    between atoms: C_2  and  C_3
REMARK    3  A    between atoms: C_2  and  C_4
REMARK    4  A    between atoms: C_2  and  N_5
REMARK    5  A    between atoms: N_5  and  C_6
REMARK    6  A    between atoms: C_6  and  C_7
REMARK    7  A    between atoms: C_7  and  O_8
REMARK    8  A    between atoms: C_7  and  C_9
REMARK    9  A    between atoms: C_9  and  N_10
REMARK                            x       y       z     vdW  Elec       q    Type
REMARK                         _______ _______ _______ _____ _____    ______ ____
ROOT
ATOM      1  C   UNL     1       5.646   5.228  16.531  0.00  0.00    +0.000 C 
ENDROOT
BRANCH   1   2
ATOM      2  N   UNL     1       4.710   4.613  17.447  0.00  0.00    +0.000 N 
ATOM      3  C   UNL     1       4.576   4.977  18.751  0.00  0.00    +0.000 C 
ATOM      4  O   UNL     1       5.284   5.760  19.364  0.00  0.00    +0.000 OA
ATOM      5  C   UNL     1       3.405   4.243  19.282  0.00  0.00    +0.000 C 
ATOM      6  C   UNL     1       2.921   3.493  18.302  0.00  0.00    +0.000 C 
ATOM      7  S   UNL     1       1.659   2.357  18.329  0.00  0.00    +0.000 S 
ATOM      8  C   UNL     1       0.711   2.861  19.787  0.00  0.00    +0.000 C 
ATOM      9  C   UNL     1       1.455   3.347  21.032  0.00  0.00    +0.000 C 
ATOM     10  S   UNL     1       2.904   4.420  20.894  0.00  0.00    +0.000 S 
ATOM     11  C   UNL     1       3.713   3.775  17.082  0.00  0.00    +0.000 C 
ATOM     12  O   UNL     1       3.488   3.373  15.953  0.00  0.00    +0.000 OA
ENDBRANCH   1   2
BRANCH   1  13
ATOM     13  C   UNL     1       6.717   4.227  16.059  0.00  0.00    +0.000 C 
BRANCH  13  14
ATOM     14  O   UNL     1       7.994   4.500  16.660  0.00  0.00    +0.000 OA
ATOM     15  H   UNL     1       8.122   3.907  17.427  0.00  0.00    +0.000 HD
ENDBRANCH  13  14
BRANCH  13  16
ATOM     16  C   UNL     1       6.841   4.323  14.528  0.00  0.00    +0.000 C 
BRANCH  16  17
ATOM     17  N   UNL     1       6.025   3.313  13.849  0.00  0.00    +0.000 NA
ATOM     18  H   UNL     1       6.299   2.392  14.204  0.00  0.00    +0.000 HD
BRANCH  17  20
ATOM     19  C   UNL     1       6.445   1.970  11.781  0.00  0.00    +0.000 C 
ATOM     20  C   UNL     1       6.086   3.343  12.376  0.00  0.00    +0.000 C 
ATOM     21  C   UNL     1       7.089   4.405  11.892  0.00  0.00    +0.000 C 
ATOM     22  C   UNL     1       4.687   3.738  11.870  0.00  0.00    +0.000 C 
ENDBRANCH  17  20
ENDBRANCH  16  17
ENDBRANCH  13  16
ENDBRANCH   1  13
TORSDOF 6
ENDMDL
MODEL 6
REMARK VINA RESULT:      -5.9      4.419      6.167
REMARK  Name = 
REMARK  9 active torsions:
REMARK  status: ('A' for Active; 'I' for Inactive)
REMARK    1  A    between atoms: C_1  and  C_2
REMARK    2  A    between atoms: C_2  and  C_3
REMARK    3  A    between atoms: C_2  and  C_4
REMARK    4  A    between atoms: C_2  and  N_5
REMARK    5  A    between atoms: N_5  and  C_6
REMARK    6  A    between atoms: C_6  and  C_7
REMARK    7  A    between atoms: C_7  and  O_8
REMARK    8  A    between atoms: C_7  and  C_9
REMARK    9  A    between atoms: C_9  and  N_10
REMARK                            x       y       z     vdW  Elec       q    Type
REMARK                         _______ _______ _______ _____ _____    ______ ____
ROOT
ATOM      1  C   UNL     1       2.570   6.517  18.119  0.00  0.00    +0.000 C 
ENDROOT
BRANCH   1   2
ATOM      2  N   UNL     1       2.115   7.625  18.932  0.00  0.00    +0.000 N 
ATOM      3  C   UNL     1       1.831   8.860  18.439  0.00  0.00    +0.000 C 
ATOM      4  O   UNL     1       2.029   9.252  17.300  0.00  0.00    +0.000 OA
ATOM      5  C   UNL     1       1.233   9.637  19.548  0.00  0.00    +0.000 C 
ATOM      6  C   UNL     1       1.202   8.854  20.618  0.00  0.00    +0.000 C 
ATOM      7  S   UNL     1       0.730   9.213  22.209  0.00  0.00    +0.000 S 
ATOM      8  C   UNL     1      -0.316  10.673  21.987  0.00  0.00    +0.000 C 
ATOM      9  C   UNL     1       0.080  11.727  20.952  0.00  0.00    +0.000 C 
ATOM     10  S   UNL     1       0.741  11.248  19.338  0.00  0.00    +0.000 S 
ATOM     11  C   UNL     1       1.706   7.520  20.217  0.00  0.00    +0.000 C 
ATOM     12  O   UNL     1       1.708   6.504  20.892  0.00  0.00    +0.000 OA
ENDBRANCH   1   2
BRANCH   1  13
ATOM     13  C   UNL     1       4.108   6.456  18.055  0.00  0.00    +0.000 C 
BRANCH  13  14
ATOM     14  O   UNL     1       4.585   6.622  16.710  0.00  0.00    +0.000 OA
ATOM     15  H   UNL     1       4.960   5.776  16.394  0.00  0.00    +0.000 HD
ENDBRANCH  13  14
BRANCH  13  16
ATOM     16  C   UNL     1       4.569   5.093  18.599  0.00  0.00    +0.000 C 
BRANCH  16  17
ATOM     17  N   UNL     1       3.592   4.515  19.527  0.00  0.00    +0.000 NA
ATOM     18  H   UNL     1       3.919   4.691  20.481  0.00  0.00    +0.000 HD
BRANCH  17  20
ATOM     19  C   UNL     1       1.908   2.690  19.824  0.00  0.00    +0.000 C 
ATOM     20  C   UNL     1       3.311   3.082  19.328  0.00  0.00    +0.000 C 
ATOM     21  C   UNL     1       4.375   2.214  20.022  0.00  0.00    +0.000 C 
ATOM     22  C   UNL     1       3.381   2.809  17.815  0.00  0.00    +0.000 C 
ENDBRANCH  17  20
ENDBRANCH  16  17
ENDBRANCH  13  16
ENDBRANCH   1  13
TORSDOF 6
ENDMDL
MODEL 7
REMARK VINA RESULT:      -5.8      4.761      6.445
REMARK  Name = 
REMARK  9 active torsions:
REMARK  status: ('A' for Active; 'I' for Inactive)
REMARK    1  A    between atoms: C_1  and  C_2
REMARK    2  A    between atoms: C_2  and  C_3
REMARK    3  A    between atoms: C_2  and  C_4
REMARK    4  A    between atoms: C_2  and  N_5
REMARK    5  A    between atoms: N_5  and  C_6
REMARK    6  A    between atoms: C_6  and  C_7
REMARK    7  A    between atoms: C_7  and  O_8
REMARK    8  A    between atoms: C_7  and  C_9
REMARK    9  A    between atoms: C_9  and  N_10
REMARK                            x       y       z     vdW  Elec       q    Type
REMARK                         _______ _______ _______ _____ _____    ______ ____
ROOT
ATOM      1  C   UNL     1       2.529   6.650  18.138  0.00  0.00    +0.000 C 
ENDROOT
BRANCH   1   2
ATOM      2  N   UNL     1       2.075   7.734  18.983  0.00  0.00    +0.000 N 
ATOM      3  C   UNL     1       1.812   8.989  18.530  0.00  0.00    +0.000 C 
ATOM      4  O   UNL     1       2.031   9.418  17.408  0.00  0.00    +0.000 OA
ATOM      5  C   UNL     1       1.207   9.733  19.657  0.00  0.00    +0.000 C 
ATOM      6  C   UNL     1       1.151   8.914  20.697  0.00  0.00    +0.000 C 
ATOM      7  S   UNL     1       0.661   9.222  22.294  0.00  0.00    +0.000 S 
ATOM      8  C   UNL     1      -0.365  10.702  22.109  0.00  0.00    +0.000 C 
ATOM      9  C   UNL     1       0.057  11.786  21.117  0.00  0.00    +0.000 C 
ATOM     10  S   UNL     1       0.737  11.357  19.497  0.00  0.00    +0.000 S 
ATOM     11  C   UNL     1       1.646   7.589  20.257  0.00  0.00    +0.000 C 
ATOM     12  O   UNL     1       1.626   6.550  20.896  0.00  0.00    +0.000 OA
ENDBRANCH   1   2
BRANCH   1  13
ATOM     13  C   UNL     1       3.917   6.140  18.569  0.00  0.00    +0.000 C 
BRANCH  13  14
ATOM     14  O   UNL     1       4.868   6.231  17.494  0.00  0.00    +0.000 OA
ATOM     15  H   UNL     1       4.404   6.493  16.675  0.00  0.00    +0.000 HD
ENDBRANCH  13  14
BRANCH  13  16
ATOM     16  C   UNL     1       3.785   4.673  19.013  0.00  0.00    +0.000 C 
BRANCH  16  17
ATOM     17  N   UNL     1       2.390   4.221  19.004  0.00  0.00    +0.000 NA
ATOM     18  H   UNL     1       1.854   4.838  19.622  0.00  0.00    +0.000 HD
BRANCH  17  20
ATOM     19  C   UNL     1       3.325   1.905  18.868  0.00  0.00    +0.000 C 
ATOM     20  C   UNL     1       2.186   2.808  19.371  0.00  0.00    +0.000 C 
ATOM     21  C   UNL     1       0.835   2.296  18.843  0.00  0.00    +0.000 C 
ATOM     22  C   UNL     1       2.158   2.738  20.909  0.00  0.00    +0.000 C 
ENDBRANCH  17  20
ENDBRANCH  16  17
ENDBRANCH  13  16
ENDBRANCH   1  13
TORSDOF 6
ENDMDL
MODEL 8
REMARK VINA RESULT:      -5.7      1.202      2.007
REMARK  Name = 
REMARK  9 active torsions:
REMARK  status: ('A' for Active; 'I' for Inactive)
REMARK    1  A    between atoms: C_1  and  C_2
REMARK    2  A    between atoms: C_2  and  C_3
REMARK    3  A    between atoms: C_2  and  C_4
REMARK    4  A    between atoms: C_2  and  N_5
REMARK    5  A    between atoms: N_5  and  C_6
REMARK    6  A    between atoms: C_6  and  C_7
REMARK    7  A    between atoms: C_7  and  O_8
REMARK    8  A    between atoms: C_7  and  C_9
REMARK    9  A    between atoms: C_9  and  N_10
REMARK                            x       y       z     vdW  Elec       q    Type
REMARK                         _______ _______ _______ _____ _____    ______ ____
ROOT
ATOM      1  C   UNL     1       5.183   5.833  16.609  0.00  0.00    +0.000 C 
ENDROOT
BRANCH   1   2
ATOM      2  N   UNL     1       4.455   5.053  17.587  0.00  0.00    +0.000 N 
ATOM      3  C   UNL     1       5.032   4.123  18.395  0.00  0.00    +0.000 C 
ATOM      4  O   UNL     1       6.184   3.723  18.337  0.00  0.00    +0.000 OA
ATOM      5  C   UNL     1       3.995   3.690  19.358  0.00  0.00    +0.000 C 
ATOM      6  C   UNL     1       2.883   4.355  19.079  0.00  0.00    +0.000 C 
ATOM      7  S   UNL     1       1.335   4.212  19.763  0.00  0.00    +0.000 S 
ATOM      8  C   UNL     1       1.684   3.441  21.363  0.00  0.00    +0.000 C 
ATOM      9  C   UNL     1       2.764   2.363  21.454  0.00  0.00    +0.000 C 
ATOM     10  S   UNL     1       4.321   2.521  20.545  0.00  0.00    +0.000 S 
ATOM     11  C   UNL     1       3.184   5.297  17.976  0.00  0.00    +0.000 C 
ATOM     12  O   UNL     1       2.449   6.164  17.532  0.00  0.00    +0.000 OA
ENDBRANCH   1   2
BRANCH   1  13
ATOM     13  C   UNL     1       6.174   4.963  15.813  0.00  0.00    +0.000 C 
BRANCH  13  14
ATOM     14  O   UNL     1       7.369   5.692  15.488  0.00  0.00    +0.000 OA
ATOM     15  H   UNL     1       7.413   6.501  16.035  0.00  0.00    +0.000 HD
ENDBRANCH  13  14
BRANCH  13  16
ATOM     16  C   UNL     1       5.489   4.497  14.517  0.00  0.00    +0.000 C 
BRANCH  16  17
ATOM     17  N   UNL     1       6.219   3.399  13.877  0.00  0.00    +0.000 NA
ATOM     18  H   UNL     1       7.176   3.399  14.243  0.00  0.00    +0.000 HD
BRANCH  17  20
ATOM     19  C   UNL     1       6.635   2.070  11.799  0.00  0.00    +0.000 C 
ATOM     20  C   UNL     1       6.225   3.425  12.403  0.00  0.00    +0.000 C 
ATOM     21  C   UNL     1       7.150   4.537  11.878  0.00  0.00    +0.000 C 
ATOM     22  C   UNL     1       4.788   3.740  11.948  0.00  0.00    +0.000 C 
ENDBRANCH  17  20
ENDBRANCH  16  17
ENDBRANCH  13  16
ENDBRANCH   1  13
TORSDOF 6
ENDMDL
MODEL 9
REMARK VINA RESULT:      -5.6      4.394      6.192
REMARK  Name = 
REMARK  9 active torsions:
REMARK  status: ('A' for Active; 'I' for Inactive)
REMARK    1  A    between atoms: C_1  and  C_2
REMARK    2  A    between atoms: C_2  and  C_3
REMARK    3  A    between atoms: C_2  and  C_4
REMARK    4  A    between atoms: C_2  and  N_5
REMARK    5  A    between atoms: N_5  and  C_6
REMARK    6  A    between atoms: C_6  and  C_7
REMARK    7  A    between atoms: C_7  and  O_8
REMARK    8  A    between atoms: C_7  and  C_9
REMARK    9  A    between atoms: C_9  and  N_10
REMARK                            x       y       z     vdW  Elec       q    Type
REMARK                         _______ _______ _______ _____ _____    ______ ____
ROOT
ATOM      1  C   UNL     1       2.798   6.323  18.063  0.00  0.00    +0.000 C 
ENDROOT
BRANCH   1   2
ATOM      2  N   UNL     1       2.109   7.395  18.750  0.00  0.00    +0.000 N 
ATOM      3  C   UNL     1       1.737   7.341  20.057  0.00  0.00    +0.000 C 
ATOM      4  O   UNL     1       1.807   6.371  20.794  0.00  0.00    +0.000 OA
ATOM      5  C   UNL     1       1.234   8.686  20.414  0.00  0.00    +0.000 C 
ATOM      6  C   UNL     1       1.318   9.449  19.333  0.00  0.00    +0.000 C 
ATOM      7  S   UNL     1       0.795  11.046  19.091  0.00  0.00    +0.000 S 
ATOM      8  C   UNL     1       0.700  11.687  20.781  0.00  0.00    +0.000 C 
ATOM      9  C   UNL     1       0.187  10.778  21.898  0.00  0.00    +0.000 C 
ATOM     10  S   UNL     1       0.662   9.033  21.974  0.00  0.00    +0.000 S 
ATOM     11  C   UNL     1       1.951   8.646  18.261  0.00  0.00    +0.000 C 
ATOM     12  O   UNL     1       2.309   9.041  17.164  0.00  0.00    +0.000 OA
ENDBRANCH   1   2
BRANCH   1  13
ATOM     13  C   UNL     1       4.316   6.367  18.323  0.00  0.00    +0.000 C 
BRANCH  13  14
ATOM     14  O   UNL     1       5.045   6.681  17.125  0.00  0.00    +0.000 OA
ATOM     15  H   UNL     1       4.473   7.198  16.525  0.00  0.00    +0.000 HD
ENDBRANCH  13  14
BRANCH  13  16
ATOM     16  C   UNL     1       4.764   4.993  18.851  0.00  0.00    +0.000 C 
BRANCH  16  17
ATOM     17  N   UNL     1       3.723   4.352  19.660  0.00  0.00    +0.000 NA
ATOM     18  H   UNL     1       3.981   4.451  20.646  0.00  0.00    +0.000 HD
BRANCH  17  20
ATOM     19  C   UNL     1       3.668   2.640  17.838  0.00  0.00    +0.000 C 
ATOM     20  C   UNL     1       3.454   2.940  19.331  0.00  0.00    +0.000 C 
ATOM     21  C   UNL     1       2.027   2.544  19.749  0.00  0.00    +0.000 C 
ATOM     22  C   UNL     1       4.446   2.087  20.142  0.00  0.00    +0.000 C 
ENDBRANCH  17  20
ENDBRANCH  16  17
ENDBRANCH  13  16
ENDBRANCH   1  13
TORSDOF 6
ENDMDL
