MODEL 1
REMARK VINA RESULT:      -7.6      0.000      0.000
REMARK  Name = 
REMARK  8 active torsions:
REMARK  status: ('A' for Active; 'I' for Inactive)
REMARK    1  A    between atoms: C_1  and  O_2
REMARK    2  A    between atoms: O_2  and  C_3
REMARK    3  A    between atoms: C_6  and  C_7
REMARK    4  A    between atoms: C_7  and  O_9
REMARK    5  A    between atoms: O_9  and  C_10
REMARK    6  A    between atoms: C_10  and  C_11
REMARK    7  A    between atoms: N_13  and  C_14
REMARK    8  A    between atoms: C_19  and  O_20
REMARK                            x       y       z     vdW  Elec       q    Type
REMARK                         _______ _______ _______ _____ _____    ______ ____
ROOT
ATOM      1  C   UNL     1       1.936   4.528  20.312  0.00  0.00    +0.000 C 
ATOM      2  O   UNL     1       0.883   4.325  19.711  0.00  0.00    +0.000 OA
ATOM      3  N   UNL     1       2.662   5.710  20.307  0.00  0.00    +0.000 N 
ATOM      4  H   UNL     1       3.598   5.677  20.718  0.00  0.00    +0.000 HD
ENDROOT
BRANCH   3   5
ATOM      5  C   UNL     1       2.268   6.933  19.718  0.00  0.00    +0.000 A 
ATOM      6  C   UNL     1       2.543   7.241  18.379  0.00  0.00    +0.000 A 
ATOM      7  C   UNL     1       2.180   8.463  17.802  0.00  0.00    +0.000 A 
ATOM      8  C   UNL     1       1.520   9.363  18.627  0.00  0.00    +0.000 A 
ATOM      9  N   UNL     1       1.046  10.632  18.410  0.00  0.00    +0.000 N 
ATOM     10  C   UNL     1       0.470  11.066  19.570  0.00  0.00    +0.000 A 
ATOM     11  N   UNL     1       0.539  10.165  20.518  0.00  0.00    +0.000 NA
ATOM     12  C   UNL     1       1.197   9.095  19.953  0.00  0.00    +0.000 A 
ATOM     13  C   UNL     1       1.560   7.854  20.510  0.00  0.00    +0.000 A 
ATOM     14  H   UNL     1       1.125  11.146  17.546  0.00  0.00    +0.000 HD
BRANCH  10  15
ATOM     15  O   UNL     1      -0.094  12.252  19.725  0.00  0.00    +0.000 OA
ATOM     16  H   UNL     1      -0.702  12.220  20.478  0.00  0.00    +0.000 HD
ENDBRANCH  10  15
ENDBRANCH   3   5
BRANCH   1  17
ATOM     17  C   UNL     1       2.578   3.396  21.120  0.00  0.00    +0.000 C 
BRANCH  17  18
ATOM     18  O   UNL     1       3.816   2.933  20.582  0.00  0.00    +0.000 OA
BRANCH  18  19
ATOM     19  C   UNL     1       3.788   2.644  19.259  0.00  0.00    +0.000 C 
ATOM     20  O   UNL     1       3.219   1.682  18.767  0.00  0.00    +0.000 OA
BRANCH  19  24
ATOM     21  C   UNL     1       5.992   5.605  17.074  0.00  0.00    +0.000 A 
ATOM     22  C   UNL     1       6.246   5.364  18.426  0.00  0.00    +0.000 A 
ATOM     23  C   UNL     1       5.522   4.395  19.121  0.00  0.00    +0.000 A 
ATOM     24  C   UNL     1       4.519   3.668  18.472  0.00  0.00    +0.000 A 
ATOM     25  C   UNL     1       4.249   3.922  17.120  0.00  0.00    +0.000 A 
ATOM     26  C   UNL     1       4.985   4.889  16.424  0.00  0.00    +0.000 A 
BRANCH  21  28
ATOM     27  C   UNL     1       7.481   7.408  17.418  0.00  0.00    +0.000 C 
ATOM     28  O   UNL     1       6.760   6.584  16.510  0.00  0.00    +0.000 OA
ENDBRANCH  21  28
ENDBRANCH  19  24
ENDBRANCH  18  19
ENDBRANCH  17  18
ENDBRANCH   1  17
TORSDOF 7
ENDMDL
MODEL 2
REMARK VINA RESULT:      -7.5      0.535      1.105
REMARK  Name = 
REMARK  8 active torsions:
REMARK  status: ('A' for Active; 'I' for Inactive)
REMARK    1  A    between atoms: C_1  and  O_2
REMARK    2  A    between atoms: O_2  and  C_3
REMARK    3  A    between atoms: C_6  and  C_7
REMARK    4  A    between atoms: C_7  and  O_9
REMARK    5  A    between atoms: O_9  and  C_10
REMARK    6  A    between atoms: C_10  and  C_11
REMARK    7  A    between atoms: N_13  and  C_14
REMARK    8  A    between atoms: C_19  and  O_20
REMARK                            x       y       z     vdW  Elec       q    Type
REMARK                         _______ _______ _______ _____ _____    ______ ____
ROOT
ATOM      1  C   UNL     1       2.127   4.563  19.823  0.00  0.00    +0.000 C 
ATOM      2  O   UNL     1       1.245   4.343  18.995  0.00  0.00    +0.000 OA
ATOM      3  N   UNL     1       2.699   5.798  20.096  0.00  0.00    +0.000 N 
ATOM      4  H   UNL     1       3.532   5.798  20.689  0.00  0.00    +0.000 HD
ENDROOT
BRANCH   3   5
ATOM      5  C   UNL     1       2.291   7.044  19.569  0.00  0.00    +0.000 A 
ATOM      6  C   UNL     1       2.576   7.429  18.253  0.00  0.00    +0.000 A 
ATOM      7  C   UNL     1       2.200   8.675  17.739  0.00  0.00    +0.000 A 
ATOM      8  C   UNL     1       1.517   9.519  18.604  0.00  0.00    +0.000 A 
ATOM      9  N   UNL     1       1.025  10.791  18.450  0.00  0.00    +0.000 N 
ATOM     10  C   UNL     1       0.429  11.151  19.625  0.00  0.00    +0.000 A 
ATOM     11  N   UNL     1       0.502  10.201  20.524  0.00  0.00    +0.000 NA
ATOM     12  C   UNL     1       1.183   9.174  19.909  0.00  0.00    +0.000 A 
ATOM     13  C   UNL     1       1.560   7.909  20.403  0.00  0.00    +0.000 A 
ATOM     14  H   UNL     1       1.105  11.351  17.617  0.00  0.00    +0.000 HD
BRANCH  10  15
ATOM     15  O   UNL     1      -0.156  12.318  19.838  0.00  0.00    +0.000 OA
ATOM     16  H   UNL     1       0.336  12.803  20.517  0.00  0.00    +0.000 HD
ENDBRANCH  10  15
ENDBRANCH   3   5
BRANCH   1  17
ATOM     17  C   UNL     1       2.721   3.401  20.624  0.00  0.00    +0.000 C 
BRANCH  17  18
ATOM     18  O   UNL     1       4.017   2.998  20.180  0.00  0.00    +0.000 OA
BRANCH  18  19
ATOM     19  C   UNL     1       4.165   2.943  18.836  0.00  0.00    +0.000 C 
ATOM     20  O   UNL     1       3.683   2.084  18.115  0.00  0.00    +0.000 OA
BRANCH  19  24
ATOM     21  C   UNL     1       6.415   6.261  17.308  0.00  0.00    +0.000 A 
ATOM     22  C   UNL     1       5.439   5.629  16.534  0.00  0.00    +0.000 A 
ATOM     23  C   UNL     1       4.714   4.553  17.047  0.00  0.00    +0.000 A 
ATOM     24  C   UNL     1       4.974   4.085  18.339  0.00  0.00    +0.000 A 
ATOM     25  C   UNL     1       5.965   4.705  19.111  0.00  0.00    +0.000 A 
ATOM     26  C   UNL     1       6.683   5.791  18.595  0.00  0.00    +0.000 A 
BRANCH  21  28
ATOM     27  C   UNL     1       7.771   8.183  17.543  0.00  0.00    +0.000 C 
ATOM     28  O   UNL     1       7.060   7.294  16.689  0.00  0.00    +0.000 OA
ENDBRANCH  21  28
ENDBRANCH  19  24
ENDBRANCH  18  19
ENDBRANCH  17  18
ENDBRANCH   1  17
TORSDOF 7
ENDMDL
MODEL 3
REMARK VINA RESULT:      -7.5      4.340      6.287
REMARK  Name = 
REMARK  8 active torsions:
REMARK  status: ('A' for Active; 'I' for Inactive)
REMARK    1  A    between atoms: C_1  and  O_2
REMARK    2  A    between atoms: O_2  and  C_3
REMARK    3  A    between atoms: C_6  and  C_7
REMARK    4  A    between atoms: C_7  and  O_9
REMARK    5  A    between atoms: O_9  and  C_10
REMARK    6  A    between atoms: C_10  and  C_11
REMARK    7  A    between atoms: N_13  and  C_14
REMARK    8  A    between atoms: C_19  and  O_20
REMARK                            x       y       z     vdW  Elec       q    Type
REMARK                         _______ _______ _______ _____ _____    ______ ____
ROOT
ATOM      1  C   UNL     1       6.384   4.501  18.160  0.00  0.00    +0.000 C 
ATOM      2  O   UNL     1       6.444   5.077  19.245  0.00  0.00    +0.000 OA
ATOM      3  N   UNL     1       5.333   3.712  17.713  0.00  0.00    +0.000 N 
ATOM      4  H   UNL     1       5.496   3.167  16.864  0.00  0.00    +0.000 HD
ENDROOT
BRANCH   3   5
ATOM      5  C   UNL     1       4.091   3.526  18.362  0.00  0.00    +0.000 A 
ATOM      6  C   UNL     1       2.870   3.782  17.726  0.00  0.00    +0.000 A 
ATOM      7  C   UNL     1       1.640   3.627  18.377  0.00  0.00    +0.000 A 
ATOM      8  C   UNL     1       1.690   3.195  19.695  0.00  0.00    +0.000 A 
ATOM      9  N   UNL     1       0.706   2.959  20.623  0.00  0.00    +0.000 N 
ATOM     10  C   UNL     1       1.311   2.539  21.773  0.00  0.00    +0.000 A 
ATOM     11  N   UNL     1       2.614   2.487  21.650  0.00  0.00    +0.000 NA
ATOM     12  C   UNL     1       2.873   2.898  20.362  0.00  0.00    +0.000 A 
ATOM     13  C   UNL     1       4.099   3.049  19.685  0.00  0.00    +0.000 A 
ATOM     14  H   UNL     1      -0.282   3.088  20.472  0.00  0.00    +0.000 HD
BRANCH  10  15
ATOM     15  O   UNL     1       0.665   2.218  22.881  0.00  0.00    +0.000 OA
ATOM     16  H   UNL     1      -0.083   2.821  23.000  0.00  0.00    +0.000 HD
ENDBRANCH  10  15
ENDBRANCH   3   5
BRANCH   1  17
ATOM     17  C   UNL     1       7.565   4.587  17.189  0.00  0.00    +0.000 C 
BRANCH  17  18
ATOM     18  O   UNL     1       7.586   5.783  16.410  0.00  0.00    +0.000 OA
BRANCH  18  19
ATOM     19  C   UNL     1       6.496   5.972  15.630  0.00  0.00    +0.000 C 
ATOM     20  O   UNL     1       5.593   6.758  15.870  0.00  0.00    +0.000 OA
BRANCH  19  24
ATOM     21  C   UNL     1       6.531   3.469  12.146  0.00  0.00    +0.000 A 
ATOM     22  C   UNL     1       5.524   3.359  13.108  0.00  0.00    +0.000 A 
ATOM     23  C   UNL     1       5.526   4.183  14.234  0.00  0.00    +0.000 A 
ATOM     24  C   UNL     1       6.551   5.117  14.418  0.00  0.00    +0.000 A 
ATOM     25  C   UNL     1       7.572   5.216  13.464  0.00  0.00    +0.000 A 
ATOM     26  C   UNL     1       7.560   4.393  12.331  0.00  0.00    +0.000 A 
BRANCH  21  28
ATOM     27  C   UNL     1       5.901   1.314  11.409  0.00  0.00    +0.000 C 
ATOM     28  O   UNL     1       6.422   2.600  11.097  0.00  0.00    +0.000 OA
ENDBRANCH  21  28
ENDBRANCH  19  24
ENDBRANCH  18  19
ENDBRANCH  17  18
ENDBRANCH   1  17
TORSDOF 7
ENDMDL
MODEL 4
REMARK VINA RESULT:      -7.3      5.227      7.701
REMARK  Name = 
REMARK  8 active torsions:
REMARK  status: ('A' for Active; 'I' for Inactive)
REMARK    1  A    between atoms: C_1  and  O_2
REMARK    2  A    between atoms: O_2  and  C_3
REMARK    3  A    between atoms: C_6  and  C_7
REMARK    4  A    between atoms: C_7  and  O_9
REMARK    5  A    between atoms: O_9  and  C_10
REMARK    6  A    between atoms: C_10  and  C_11
REMARK    7  A    between atoms: N_13  and  C_14
REMARK    8  A    between atoms: C_19  and  O_20
REMARK                            x       y       z     vdW  Elec       q    Type
REMARK                         _______ _______ _______ _____ _____    ______ ____
ROOT
ATOM      1  C   UNL     1       8.255   8.638  18.268  0.00  0.00    +0.000 C 
ATOM      2  O   UNL     1       7.520   9.105  17.400  0.00  0.00    +0.000 OA
ATOM      3  N   UNL     1       9.236   9.330  18.963  0.00  0.00    +0.000 N 
ATOM      4  H   UNL     1       9.876   8.772  19.533  0.00  0.00    +0.000 HD
ENDROOT
BRANCH   3   5
ATOM      5  C   UNL     1       9.488  10.719  18.897  0.00  0.00    +0.000 A 
ATOM      6  C   UNL     1       9.023  11.611  19.871  0.00  0.00    +0.000 A 
ATOM      7  C   UNL     1       9.246  12.990  19.791  0.00  0.00    +0.000 A 
ATOM      8  C   UNL     1       9.964  13.437  18.690  0.00  0.00    +0.000 A 
ATOM      9  N   UNL     1      10.341  14.693  18.286  0.00  0.00    +0.000 N 
ATOM     10  C   UNL     1      11.044  14.562  17.122  0.00  0.00    +0.000 A 
ATOM     11  N   UNL     1      11.146  13.311  16.749  0.00  0.00    +0.000 NA
ATOM     12  C   UNL     1      10.473  12.591  17.711  0.00  0.00    +0.000 A 
ATOM     13  C   UNL     1      10.248  11.204  17.817  0.00  0.00    +0.000 A 
ATOM     14  H   UNL     1      10.123  15.551  18.767  0.00  0.00    +0.000 HD
BRANCH  10  15
ATOM     15  O   UNL     1      11.565  15.573  16.448  0.00  0.00    +0.000 OA
ATOM     16  H   UNL     1      10.979  16.341  16.521  0.00  0.00    +0.000 HD
ENDBRANCH  10  15
ENDBRANCH   3   5
BRANCH   1  17
ATOM     17  C   UNL     1       8.159   7.151  18.624  0.00  0.00    +0.000 C 
BRANCH  17  18
ATOM     18  O   UNL     1       6.921   6.548  18.250  0.00  0.00    +0.000 OA
BRANCH  18  19
ATOM     19  C   UNL     1       6.483   5.580  19.090  0.00  0.00    +0.000 C 
ATOM     20  O   UNL     1       7.099   5.164  20.058  0.00  0.00    +0.000 OA
BRANCH  19  24
ATOM     21  C   UNL     1       2.605   4.089  18.019  0.00  0.00    +0.000 A 
ATOM     22  C   UNL     1       3.615   3.231  18.459  0.00  0.00    +0.000 A 
ATOM     23  C   UNL     1       4.870   3.733  18.807  0.00  0.00    +0.000 A 
ATOM     24  C   UNL     1       5.133   5.102  18.698  0.00  0.00    +0.000 A 
ATOM     25  C   UNL     1       4.127   5.963  18.238  0.00  0.00    +0.000 A 
ATOM     26  C   UNL     1       2.866   5.455  17.900  0.00  0.00    +0.000 A 
BRANCH  21  28
ATOM     27  C   UNL     1       0.909   2.582  18.679  0.00  0.00    +0.000 C 
ATOM     28  O   UNL     1       1.427   3.475  17.701  0.00  0.00    +0.000 OA
ENDBRANCH  21  28
ENDBRANCH  19  24
ENDBRANCH  18  19
ENDBRANCH  17  18
ENDBRANCH   1  17
TORSDOF 7
ENDMDL
MODEL 5
REMARK VINA RESULT:      -7.2      3.356      8.700
REMARK  Name = 
REMARK  8 active torsions:
REMARK  status: ('A' for Active; 'I' for Inactive)
REMARK    1  A    between atoms: C_1  and  O_2
REMARK    2  A    between atoms: O_2  and  C_3
REMARK    3  A    between atoms: C_6  and  C_7
REMARK    4  A    between atoms: C_7  and  O_9
REMARK    5  A    between atoms: O_9  and  C_10
REMARK    6  A    between atoms: C_10  and  C_11
REMARK    7  A    between atoms: N_13  and  C_14
REMARK    8  A    between atoms: C_19  and  O_20
REMARK                            x       y       z     vdW  Elec       q    Type
REMARK                         _______ _______ _______ _____ _____    ______ ____
ROOT
ATOM      1  C   UNL     1       2.109   7.930  18.807  0.00  0.00    +0.000 C 
ATOM      2  O   UNL     1       2.063   7.780  20.027  0.00  0.00    +0.000 OA
ATOM      3  N   UNL     1       2.404   6.944  17.876  0.00  0.00    +0.000 N 
ATOM      4  H   UNL     1       2.568   7.253  16.916  0.00  0.00    +0.000 HD
ENDROOT
BRANCH   3   5
ATOM      5  C   UNL     1       2.581   5.567  18.142  0.00  0.00    +0.000 A 
ATOM      6  C   UNL     1       1.623   4.608  17.790  0.00  0.00    +0.000 A 
ATOM      7  C   UNL     1       1.783   3.249  18.079  0.00  0.00    +0.000 A 
ATOM      8  C   UNL     1       2.954   2.890  18.733  0.00  0.00    +0.000 A 
ATOM      9  N   UNL     1       3.423   1.681  19.180  0.00  0.00    +0.000 N 
ATOM     10  C   UNL     1       4.644   1.896  19.754  0.00  0.00    +0.000 A 
ATOM     11  N   UNL     1       4.994   3.157  19.706  0.00  0.00    +0.000 NA
ATOM     12  C   UNL     1       3.949   3.798  19.078  0.00  0.00    +0.000 A 
ATOM     13  C   UNL     1       3.774   5.160  18.766  0.00  0.00    +0.000 A 
ATOM     14  H   UNL     1       2.939   0.801  19.103  0.00  0.00    +0.000 HD
BRANCH  10  15
ATOM     15  O   UNL     1       5.392   0.947  20.293  0.00  0.00    +0.000 OA
ATOM     16  H   UNL     1       4.914   0.546  21.033  0.00  0.00    +0.000 HD
ENDBRANCH  10  15
ENDBRANCH   3   5
BRANCH   1  17
ATOM     17  C   UNL     1       1.875   9.318  18.204  0.00  0.00    +0.000 C 
BRANCH  17  18
ATOM     18  O   UNL     1       0.526   9.551  17.800  0.00  0.00    +0.000 OA
BRANCH  18  19
ATOM     19  C   UNL     1      -0.147  10.449  18.558  0.00  0.00    +0.000 C 
ATOM     20  O   UNL     1       0.317  11.035  19.523  0.00  0.00    +0.000 OA
BRANCH  19  24
ATOM     21  C   UNL     1      -4.140  11.144  17.153  0.00  0.00    +0.000 A 
ATOM     22  C   UNL     1      -3.657  11.773  18.302  0.00  0.00    +0.000 A 
ATOM     23  C   UNL     1      -2.354  11.538  18.744  0.00  0.00    +0.000 A 
ATOM     24  C   UNL     1      -1.526  10.653  18.047  0.00  0.00    +0.000 A 
ATOM     25  C   UNL     1      -2.015  10.006  16.904  0.00  0.00    +0.000 A 
ATOM     26  C   UNL     1      -3.321  10.253  16.459  0.00  0.00    +0.000 A 
BRANCH  21  28
ATOM     27  C   UNL     1      -6.026  12.504  17.578  0.00  0.00    +0.000 C 
ATOM     28  O   UNL     1      -5.433  11.449  16.831  0.00  0.00    +0.000 OA
ENDBRANCH  21  28
ENDBRANCH  19  24
ENDBRANCH  18  19
ENDBRANCH  17  18
ENDBRANCH   1  17
TORSDOF 7
ENDMDL
MODEL 6
REMARK VINA RESULT:      -7.2      4.923      7.437
REMARK  Name = 
REMARK  8 active torsions:
REMARK  status: ('A' for Active; 'I' for Inactive)
REMARK    1  A    between atoms: C_1  and  O_2
REMARK    2  A    between atoms: O_2  and  C_3
REMARK    3  A    between atoms: C_6  and  C_7
REMARK    4  A    between atoms: C_7  and  O_9
REMARK    5  A    between atoms: O_9  and  C_10
REMARK    6  A    between atoms: C_10  and  C_11
REMARK    7  A    between atoms: N_13  and  C_14
REMARK    8  A    between atoms: C_19  and  O_20
REMARK                            x       y       z     vdW  Elec       q    Type
REMARK                         _______ _______ _______ _____ _____    ______ ____
ROOT
ATOM      1  C   UNL     1       8.197   8.349  18.242  0.00  0.00    +0.000 C 
ATOM      2  O   UNL     1       7.614   8.946  17.338  0.00  0.00    +0.000 OA
ATOM      3  N   UNL     1       9.087   8.911  19.147  0.00  0.00    +0.000 N 
ATOM      4  H   UNL     1       9.616   8.262  19.734  0.00  0.00    +0.000 HD
ENDROOT
BRANCH   3   5
ATOM      5  C   UNL     1       9.393  10.284  19.278  0.00  0.00    +0.000 A 
ATOM      6  C   UNL     1       9.352  10.946  20.512  0.00  0.00    +0.000 A 
ATOM      7  C   UNL     1       9.626  12.312  20.639  0.00  0.00    +0.000 A 
ATOM      8  C   UNL     1       9.950  12.988  19.470  0.00  0.00    +0.000 A 
ATOM      9  N   UNL     1      10.251  14.304  19.222  0.00  0.00    +0.000 N 
ATOM     10  C   UNL     1      10.500  14.428  17.885  0.00  0.00    +0.000 A 
ATOM     11  N   UNL     1      10.384  13.286  17.256  0.00  0.00    +0.000 NA
ATOM     12  C   UNL     1      10.035  12.373  18.226  0.00  0.00    +0.000 A 
ATOM     13  C   UNL     1       9.768  10.993  18.122  0.00  0.00    +0.000 A 
ATOM     14  H   UNL     1      10.269  15.038  19.911  0.00  0.00    +0.000 HD
BRANCH  10  15
ATOM     15  O   UNL     1      10.825  15.564  17.290  0.00  0.00    +0.000 OA
ATOM     16  H   UNL     1      11.442  15.379  16.566  0.00  0.00    +0.000 HD
ENDBRANCH  10  15
ENDBRANCH   3   5
BRANCH   1  17
ATOM     17  C   UNL     1       7.997   6.840  18.407  0.00  0.00    +0.000 C 
BRANCH  17  18
ATOM     18  O   UNL     1       6.708   6.381  18.002  0.00  0.00    +0.000 OA
BRANCH  18  19
ATOM     19  C   UNL     1       6.676   5.108  17.543  0.00  0.00    +0.000 C 
ATOM     20  O   UNL     1       7.602   4.545  16.980  0.00  0.00    +0.000 OA
BRANCH  19  24
ATOM     21  C   UNL     1       2.915   3.288  18.518  0.00  0.00    +0.000 A 
ATOM     22  C   UNL     1       3.828   3.643  19.513  0.00  0.00    +0.000 A 
ATOM     23  C   UNL     1       5.046   4.237  19.180  0.00  0.00    +0.000 A 
ATOM     24  C   UNL     1       5.371   4.465  17.839  0.00  0.00    +0.000 A 
ATOM     25  C   UNL     1       4.464   4.093  16.837  0.00  0.00    +0.000 A 
ATOM     26  C   UNL     1       3.239   3.506  17.178  0.00  0.00    +0.000 A 
BRANCH  21  28
ATOM     27  C   UNL     1       0.983   3.493  19.864  0.00  0.00    +0.000 C 
ATOM     28  O   UNL     1       1.765   2.707  18.972  0.00  0.00    +0.000 OA
ENDBRANCH  21  28
ENDBRANCH  19  24
ENDBRANCH  18  19
ENDBRANCH  17  18
ENDBRANCH   1  17
TORSDOF 7
ENDMDL
MODEL 7
REMARK VINA RESULT:      -7.1      1.308      1.617
REMARK  Name = 
REMARK  8 active torsions:
REMARK  status: ('A' for Active; 'I' for Inactive)
REMARK    1  A    between atoms: C_1  and  O_2
REMARK    2  A    between atoms: O_2  and  C_3
REMARK    3  A    between atoms: C_6  and  C_7
REMARK    4  A    between atoms: C_7  and  O_9
REMARK    5  A    between atoms: O_9  and  C_10
REMARK    6  A    between atoms: C_10  and  C_11
REMARK    7  A    between atoms: N_13  and  C_14
REMARK    8  A    between atoms: C_19  and  O_20
REMARK                            x       y       z     vdW  Elec       q    Type
REMARK                         _______ _______ _______ _____ _____    ______ ____
ROOT
ATOM      1  C   UNL     1       1.826   5.178  20.146  0.00  0.00    +0.000 C 
ATOM      2  O   UNL     1       0.652   5.107  20.506  0.00  0.00    +0.000 OA
ATOM      3  N   UNL     1       2.478   6.325  19.716  0.00  0.00    +0.000 N 
ATOM      4  H   UNL     1       3.400   6.199  19.293  0.00  0.00    +0.000 HD
ENDROOT
BRANCH   3   5
ATOM      5  C   UNL     1       1.959   7.640  19.731  0.00  0.00    +0.000 A 
ATOM      6  C   UNL     1       1.863   8.419  18.571  0.00  0.00    +0.000 A 
ATOM      7  C   UNL     1       1.377   9.731  18.588  0.00  0.00    +0.000 A 
ATOM      8  C   UNL     1       0.983  10.227  19.824  0.00  0.00    +0.000 A 
ATOM      9  N   UNL     1       0.489  11.448  20.209  0.00  0.00    +0.000 N 
ATOM     10  C   UNL     1       0.259  11.398  21.554  0.00  0.00    +0.000 A 
ATOM     11  N   UNL     1       0.569  10.231  22.062  0.00  0.00    +0.000 NA
ATOM     12  C   UNL     1       1.029   9.486  20.999  0.00  0.00    +0.000 A 
ATOM     13  C   UNL     1       1.510   8.162  20.957  0.00  0.00    +0.000 A 
ATOM     14  H   UNL     1       0.338  12.236  19.599  0.00  0.00    +0.000 HD
BRANCH  10  15
ATOM     15  O   UNL     1      -0.221  12.403  22.267  0.00  0.00    +0.000 OA
ATOM     16  H   UNL     1      -1.161  12.247  22.445  0.00  0.00    +0.000 HD
ENDBRANCH  10  15
ENDBRANCH   3   5
BRANCH   1  17
ATOM     17  C   UNL     1       2.684   3.911  20.102  0.00  0.00    +0.000 C 
BRANCH  17  18
ATOM     18  O   UNL     1       3.460   3.781  18.912  0.00  0.00    +0.000 OA
BRANCH  18  19
ATOM     19  C   UNL     1       4.796   3.685  19.112  0.00  0.00    +0.000 C 
ATOM     20  O   UNL     1       5.350   2.771  19.701  0.00  0.00    +0.000 OA
BRANCH  19  24
ATOM     21  C   UNL     1       6.973   6.955  17.389  0.00  0.00    +0.000 A 
ATOM     22  C   UNL     1       7.440   6.294  18.527  0.00  0.00    +0.000 A 
ATOM     23  C   UNL     1       6.721   5.230  19.073  0.00  0.00    +0.000 A 
ATOM     24  C   UNL     1       5.513   4.828  18.493  0.00  0.00    +0.000 A 
ATOM     25  C   UNL     1       5.034   5.503  17.362  0.00  0.00    +0.000 A 
ATOM     26  C   UNL     1       5.764   6.564  16.813  0.00  0.00    +0.000 A 
BRANCH  21  28
ATOM     27  C   UNL     1       8.236   8.867  17.969  0.00  0.00    +0.000 C 
ATOM     28  O   UNL     1       7.762   7.985  16.959  0.00  0.00    +0.000 OA
ENDBRANCH  21  28
ENDBRANCH  19  24
ENDBRANCH  18  19
ENDBRANCH  17  18
ENDBRANCH   1  17
TORSDOF 7
ENDMDL
MODEL 8
REMARK VINA RESULT:      -7.1      5.166      7.729
REMARK  Name = 
REMARK  8 active torsions:
REMARK  status: ('A' for Active; 'I' for Inactive)
REMARK    1  A    between atoms: C_1  and  O_2
REMARK    2  A    between atoms: O_2  and  C_3
REMARK    3  A    between atoms: C_6  and  C_7
REMARK    4  A    between atoms: C_7  and  O_9
REMARK    5  A    between atoms: O_9  and  C_10
REMARK    6  A    between atoms: C_10  and  C_11
REMARK    7  A    between atoms: N_13  and  C_14
REMARK    8  A    between atoms: C_19  and  O_20
REMARK                            x       y       z     vdW  Elec       q    Type
REMARK                         _______ _______ _______ _____ _____    ______ ____
ROOT
ATOM      1  C   UNL     1       8.270   8.627  18.307  0.00  0.00    +0.000 C 
ATOM      2  O   UNL     1       7.579   9.149  17.434  0.00  0.00    +0.000 OA
ATOM      3  N   UNL     1       9.256   9.258  19.052  0.00  0.00    +0.000 N 
ATOM      4  H   UNL     1       9.857   8.658  19.622  0.00  0.00    +0.000 HD
ENDROOT
BRANCH   3   5
ATOM      5  C   UNL     1       9.565  10.637  19.036  0.00  0.00    +0.000 A 
ATOM      6  C   UNL     1       9.305  11.474  20.128  0.00  0.00    +0.000 A 
ATOM      7  C   UNL     1       9.582  12.846  20.103  0.00  0.00    +0.000 A 
ATOM      8  C   UNL     1      10.139  13.341  18.932  0.00  0.00    +0.000 A 
ATOM      9  N   UNL     1      10.512  14.607  18.556  0.00  0.00    +0.000 N 
ATOM     10  C   UNL     1      11.015  14.533  17.288  0.00  0.00    +0.000 A 
ATOM     11  N   UNL     1      10.994  13.309  16.823  0.00  0.00    +0.000 NA
ATOM     12  C   UNL     1      10.445  12.549  17.831  0.00  0.00    +0.000 A 
ATOM     13  C   UNL     1      10.170  11.168  17.882  0.00  0.00    +0.000 A 
ATOM     14  H   UNL     1      10.416  15.436  19.120  0.00  0.00    +0.000 HD
BRANCH  10  15
ATOM     15  O   UNL     1      11.475  15.569  16.606  0.00  0.00    +0.000 OA
ATOM     16  H   UNL     1      10.889  15.739  15.853  0.00  0.00    +0.000 HD
ENDBRANCH  10  15
ENDBRANCH   3   5
BRANCH   1  17
ATOM     17  C   UNL     1       8.104   7.136  18.614  0.00  0.00    +0.000 C 
BRANCH  17  18
ATOM     18  O   UNL     1       6.932   6.556  18.041  0.00  0.00    +0.000 OA
BRANCH  18  19
ATOM     19  C   UNL     1       6.804   5.223  18.238  0.00  0.00    +0.000 C 
ATOM     20  O   UNL     1       7.733   4.434  18.309  0.00  0.00    +0.000 OA
BRANCH  19  24
ATOM     21  C   UNL     1       2.653   4.189  18.564  0.00  0.00    +0.000 A 
ATOM     22  C   UNL     1       3.065   5.312  17.844  0.00  0.00    +0.000 A 
ATOM     23  C   UNL     1       4.420   5.632  17.745  0.00  0.00    +0.000 A 
ATOM     24  C   UNL     1       5.377   4.838  18.385  0.00  0.00    +0.000 A 
ATOM     25  C   UNL     1       4.964   3.722  19.123  0.00  0.00    +0.000 A 
ATOM     26  C   UNL     1       3.604   3.399  19.212  0.00  0.00    +0.000 A 
BRANCH  21  28
ATOM     27  C   UNL     1       0.827   3.105  19.602  0.00  0.00    +0.000 C 
ATOM     28  O   UNL     1       1.302   3.989  18.594  0.00  0.00    +0.000 OA
ENDBRANCH  21  28
ENDBRANCH  19  24
ENDBRANCH  18  19
ENDBRANCH  17  18
ENDBRANCH   1  17
TORSDOF 7
ENDMDL
MODEL 9
REMARK VINA RESULT:      -7.1      2.783      6.196
REMARK  Name = 
REMARK  8 active torsions:
REMARK  status: ('A' for Active; 'I' for Inactive)
REMARK    1  A    between atoms: C_1  and  O_2
REMARK    2  A    between atoms: O_2  and  C_3
REMARK    3  A    between atoms: C_6  and  C_7
REMARK    4  A    between atoms: C_7  and  O_9
REMARK    5  A    between atoms: O_9  and  C_10
REMARK    6  A    between atoms: C_10  and  C_11
REMARK    7  A    between atoms: N_13  and  C_14
REMARK    8  A    between atoms: C_19  and  O_20
REMARK                            x       y       z     vdW  Elec       q    Type
REMARK                         _______ _______ _______ _____ _____    ______ ____
ROOT
ATOM      1  C   UNL     1       4.007   2.568  19.522  0.00  0.00    +0.000 C 
ATOM      2  O   UNL     1       4.147   1.594  18.786  0.00  0.00    +0.000 OA
ATOM      3  N   UNL     1       4.651   3.790  19.387  0.00  0.00    +0.000 N 
ATOM      4  H   UNL     1       4.561   4.446  20.166  0.00  0.00    +0.000 HD
ENDROOT
BRANCH   3   5
ATOM      5  C   UNL     1       5.484   4.184  18.316  0.00  0.00    +0.000 A 
ATOM      6  C   UNL     1       6.630   4.967  18.508  0.00  0.00    +0.000 A 
ATOM      7  C   UNL     1       7.440   5.383  17.445  0.00  0.00    +0.000 A 
ATOM      8  C   UNL     1       7.052   4.972  16.176  0.00  0.00    +0.000 A 
ATOM      9  N   UNL     1       7.584   5.204  14.933  0.00  0.00    +0.000 N 
ATOM     10  C   UNL     1       6.805   4.553  14.020  0.00  0.00    +0.000 A 
ATOM     11  N   UNL     1       5.810   3.917  14.588  0.00  0.00    +0.000 NA
ATOM     12  C   UNL     1       5.942   4.170  15.935  0.00  0.00    +0.000 A 
ATOM     13  C   UNL     1       5.148   3.752  17.020  0.00  0.00    +0.000 A 
ATOM     14  H   UNL     1       8.398   5.766  14.741  0.00  0.00    +0.000 HD
BRANCH  10  15
ATOM     15  O   UNL     1       7.023   4.556  12.715  0.00  0.00    +0.000 OA
ATOM     16  H   UNL     1       7.856   5.016  12.533  0.00  0.00    +0.000 HD
ENDBRANCH  10  15
ENDBRANCH   3   5
BRANCH   1  17
ATOM     17  C   UNL     1       3.088   2.471  20.743  0.00  0.00    +0.000 C 
BRANCH  17  18
ATOM     18  O   UNL     1       2.589   3.731  21.192  0.00  0.00    +0.000 OA
BRANCH  18  19
ATOM     19  C   UNL     1       1.508   4.187  20.518  0.00  0.00    +0.000 C 
ATOM     20  O   UNL     1       0.450   3.588  20.407  0.00  0.00    +0.000 OA
BRANCH  19  24
ATOM     21  C   UNL     1       2.232   8.028  18.751  0.00  0.00    +0.000 A 
ATOM     22  C   UNL     1       2.354   6.854  18.006  0.00  0.00    +0.000 A 
ATOM     23  C   UNL     1       2.112   5.612  18.595  0.00  0.00    +0.000 A 
ATOM     24  C   UNL     1       1.762   5.534  19.947  0.00  0.00    +0.000 A 
ATOM     25  C   UNL     1       1.657   6.710  20.701  0.00  0.00    +0.000 A 
ATOM     26  C   UNL     1       1.892   7.954  20.102  0.00  0.00    +0.000 A 
BRANCH  21  28
ATOM     27  C   UNL     1       1.412  10.073  17.894  0.00  0.00    +0.000 C 
ATOM     28  O   UNL     1       2.504   9.177  18.063  0.00  0.00    +0.000 OA
ENDBRANCH  21  28
ENDBRANCH  19  24
ENDBRANCH  18  19
ENDBRANCH  17  18
ENDBRANCH   1  17
TORSDOF 7
ENDMDL
