MODEL 1
REMARK VINA RESULT:      -7.8      0.000      0.000
REMARK  Name = 
REMARK  1 active torsions:
REMARK  status: ('A' for Active; 'I' for Inactive)
REMARK    1  A    between atoms: C_4  and  C_5
REMARK                            x       y       z     vdW  Elec       q    Type
REMARK                         _______ _______ _______ _____ _____    ______ ____
ROOT
ATOM      1  O   UNL     1       8.715   4.124  18.080  0.00  0.00    +0.000 OA
ATOM      2  C   UNL     1       7.639   4.716  18.094  0.00  0.00    +0.000 C 
ATOM      3  C   UNL     1       7.496   6.136  17.607  0.00  0.00    +0.000 C 
ATOM      4  C   UNL     1       6.202   6.260  16.798  0.00  0.00    +0.000 C 
ATOM      5  C   UNL     1       5.123   6.028  17.845  0.00  0.00    +0.000 A 
ATOM      6  C   UNL     1       5.297   4.893  18.654  0.00  0.00    +0.000 A 
ATOM      7  C   UNL     1       4.334   4.482  19.562  0.00  0.00    +0.000 A 
ATOM      8  C   UNL     1       3.199   5.265  19.736  0.00  0.00    +0.000 A 
ATOM      9  C   UNL     1       3.033   6.460  19.020  0.00  0.00    +0.000 A 
ATOM     10  C   UNL     1       1.921   7.282  19.281  0.00  0.00    +0.000 A 
ATOM     11  C   UNL     1       1.753   8.489  18.606  0.00  0.00    +0.000 A 
ATOM     12 BR   UNL     1       0.286   9.605  19.022  0.00  0.00    +0.000 Br
ATOM     13  C   UNL     1       2.668   8.886  17.641  0.00  0.00    +0.000 A 
ATOM     14  C   UNL     1       3.766   8.072  17.354  0.00  0.00    +0.000 A 
ATOM     15  C   UNL     1       3.991   6.856  18.045  0.00  0.00    +0.000 A 
ATOM     16  O   UNL     1       6.482   4.133  18.591  0.00  0.00    +0.000 OA
ENDROOT
BRANCH   4  17
ATOM     17  C   UNL     1       6.094   5.298  15.601  0.00  0.00    +0.000 A 
ATOM     18  C   UNL     1       7.136   5.199  14.658  0.00  0.00    +0.000 A 
ATOM     19  C   UNL     1       6.985   4.444  13.490  0.00  0.00    +0.000 A 
ATOM     20  C   UNL     1       5.803   3.749  13.263  0.00  0.00    +0.000 A 
ATOM     21 CL   UNL     1       5.588   2.876  11.798  0.00  0.00    +0.000 Cl
ATOM     22  C   UNL     1       4.789   3.768  14.214  0.00  0.00    +0.000 A 
ATOM     23  C   UNL     1       4.942   4.521  15.383  0.00  0.00    +0.000 A 
ENDBRANCH   4  17
TORSDOF 1
ENDMDL
MODEL 2
REMARK VINA RESULT:      -7.7      0.204      1.025
REMARK  Name = 
REMARK  1 active torsions:
REMARK  status: ('A' for Active; 'I' for Inactive)
REMARK    1  A    between atoms: C_4  and  C_5
REMARK                            x       y       z     vdW  Elec       q    Type
REMARK                         _______ _______ _______ _____ _____    ______ ____
ROOT
ATOM      1  O   UNL     1       8.628   4.076  17.897  0.00  0.00    +0.000 OA
ATOM      2  C   UNL     1       7.560   4.680  17.949  0.00  0.00    +0.000 C 
ATOM      3  C   UNL     1       7.445   6.141  17.592  0.00  0.00    +0.000 C 
ATOM      4  C   UNL     1       6.167   6.358  16.776  0.00  0.00    +0.000 C 
ATOM      5  C   UNL     1       5.066   6.047  17.780  0.00  0.00    +0.000 A 
ATOM      6  C   UNL     1       5.211   4.841  18.484  0.00  0.00    +0.000 A 
ATOM      7  C   UNL     1       4.227   4.362  19.335  0.00  0.00    +0.000 A 
ATOM      8  C   UNL     1       3.100   5.143  19.562  0.00  0.00    +0.000 A 
ATOM      9  C   UNL     1       2.963   6.401  18.955  0.00  0.00    +0.000 A 
ATOM     10  C   UNL     1       1.857   7.213  19.273  0.00  0.00    +0.000 A 
ATOM     11  C   UNL     1       1.717   8.478  18.709  0.00  0.00    +0.000 A 
ATOM     12 BR   UNL     1       0.258   9.574  19.202  0.00  0.00    +0.000 Br
ATOM     13  C   UNL     1       2.654   8.949  17.799  0.00  0.00    +0.000 A 
ATOM     14  C   UNL     1       3.746   8.147  17.457  0.00  0.00    +0.000 A 
ATOM     15  C   UNL     1       3.943   6.871  18.037  0.00  0.00    +0.000 A 
ATOM     16  O   UNL     1       6.386   4.072  18.370  0.00  0.00    +0.000 OA
ENDROOT
BRANCH   4  17
ATOM     17  C   UNL     1       6.066   5.511  15.495  0.00  0.00    +0.000 A 
ATOM     18  C   UNL     1       4.925   4.726  15.236  0.00  0.00    +0.000 A 
ATOM     19  C   UNL     1       4.886   3.840  14.155  0.00  0.00    +0.000 A 
ATOM     20  C   UNL     1       5.975   3.750  13.295  0.00  0.00    +0.000 A 
ATOM     21 CL   UNL     1       5.958   2.613  12.005  0.00  0.00    +0.000 Cl
ATOM     22  C   UNL     1       7.082   4.569  13.483  0.00  0.00    +0.000 A 
ATOM     23  C   UNL     1       7.118   5.457  14.563  0.00  0.00    +0.000 A 
ENDBRANCH   4  17
TORSDOF 1
ENDMDL
MODEL 3
REMARK VINA RESULT:      -7.3      3.645      6.174
REMARK  Name = 
REMARK  1 active torsions:
REMARK  status: ('A' for Active; 'I' for Inactive)
REMARK    1  A    between atoms: C_4  and  C_5
REMARK                            x       y       z     vdW  Elec       q    Type
REMARK                         _______ _______ _______ _____ _____    ______ ____
ROOT
ATOM      1  O   UNL     1       3.769   2.448  21.194  0.00  0.00    +0.000 OA
ATOM      2  C   UNL     1       4.185   2.884  20.124  0.00  0.00    +0.000 C 
ATOM      3  C   UNL     1       3.504   2.581  18.813  0.00  0.00    +0.000 C 
ATOM      4  C   UNL     1       3.471   3.852  17.960  0.00  0.00    +0.000 C 
ATOM      5  C   UNL     1       4.943   4.099  17.661  0.00  0.00    +0.000 A 
ATOM      6  C   UNL     1       5.801   4.064  18.771  0.00  0.00    +0.000 A 
ATOM      7  C   UNL     1       7.144   4.395  18.675  0.00  0.00    +0.000 A 
ATOM      8  C   UNL     1       7.673   4.690  17.425  0.00  0.00    +0.000 A 
ATOM      9  C   UNL     1       6.871   4.639  16.274  0.00  0.00    +0.000 A 
ATOM     10  C   UNL     1       7.451   4.850  15.009  0.00  0.00    +0.000 A 
ATOM     11  C   UNL     1       6.681   4.771  13.851  0.00  0.00    +0.000 A 
ATOM     12 BR   UNL     1       7.496   4.995  12.161  0.00  0.00    +0.000 Br
ATOM     13  C   UNL     1       5.320   4.511  13.929  0.00  0.00    +0.000 A 
ATOM     14  C   UNL     1       4.725   4.319  15.179  0.00  0.00    +0.000 A 
ATOM     15  C   UNL     1       5.480   4.355  16.375  0.00  0.00    +0.000 A 
ATOM     16  O   UNL     1       5.332   3.662  20.038  0.00  0.00    +0.000 OA
ENDROOT
BRANCH   4  17
ATOM     17  C   UNL     1       2.784   5.059  18.623  0.00  0.00    +0.000 A 
ATOM     18  C   UNL     1       2.954   6.360  18.109  0.00  0.00    +0.000 A 
ATOM     19  C   UNL     1       2.460   7.477  18.789  0.00  0.00    +0.000 A 
ATOM     20  C   UNL     1       1.757   7.310  19.976  0.00  0.00    +0.000 A 
ATOM     21 CL   UNL     1       1.207   8.685  20.850  0.00  0.00    +0.000 Cl
ATOM     22  C   UNL     1       1.509   6.032  20.465  0.00  0.00    +0.000 A 
ATOM     23  C   UNL     1       2.002   4.915  19.783  0.00  0.00    +0.000 A 
ENDBRANCH   4  17
TORSDOF 1
ENDMDL
MODEL 4
REMARK VINA RESULT:      -7.2      6.299      9.458
REMARK  Name = 
REMARK  1 active torsions:
REMARK  status: ('A' for Active; 'I' for Inactive)
REMARK    1  A    between atoms: C_4  and  C_5
REMARK                            x       y       z     vdW  Elec       q    Type
REMARK                         _______ _______ _______ _____ _____    ______ ____
ROOT
ATOM      1  O   UNL     1      -2.950  12.933  20.334  0.00  0.00    +0.000 OA
ATOM      2  C   UNL     1      -2.043  12.137  20.105  0.00  0.00    +0.000 C 
ATOM      3  C   UNL     1      -1.679  11.716  18.703  0.00  0.00    +0.000 C 
ATOM      4  C   UNL     1      -0.154  11.664  18.576  0.00  0.00    +0.000 C 
ATOM      5  C   UNL     1       0.226  10.522  19.506  0.00  0.00    +0.000 A 
ATOM      6  C   UNL     1      -0.334  10.576  20.793  0.00  0.00    +0.000 A 
ATOM      7  C   UNL     1       0.020   9.679  21.788  0.00  0.00    +0.000 A 
ATOM      8  C   UNL     1       0.893   8.643  21.478  0.00  0.00    +0.000 A 
ATOM      9  C   UNL     1       1.397   8.494  20.176  0.00  0.00    +0.000 A 
ATOM     10  C   UNL     1       2.205   7.385  19.864  0.00  0.00    +0.000 A 
ATOM     11  C   UNL     1       2.690   7.198  18.571  0.00  0.00    +0.000 A 
ATOM     12 BR   UNL     1       3.718   5.666  18.162  0.00  0.00    +0.000 Br
ATOM     13  C   UNL     1       2.407   8.122  17.576  0.00  0.00    +0.000 A 
ATOM     14  C   UNL     1       1.623   9.240  17.874  0.00  0.00    +0.000 A 
ATOM     15  C   UNL     1       1.082   9.446  19.166  0.00  0.00    +0.000 A 
ATOM     16  O   UNL     1      -1.307  11.541  21.119  0.00  0.00    +0.000 OA
ENDROOT
BRANCH   4  17
ATOM     17  C   UNL     1       0.568  12.980  18.915  0.00  0.00    +0.000 A 
ATOM     18  C   UNL     1      -0.042  14.225  18.662  0.00  0.00    +0.000 A 
ATOM     19  C   UNL     1       0.662  15.422  18.825  0.00  0.00    +0.000 A 
ATOM     20  C   UNL     1       1.976  15.396  19.277  0.00  0.00    +0.000 A 
ATOM     21 CL   UNL     1       2.866  16.861  19.415  0.00  0.00    +0.000 Cl
ATOM     22  C   UNL     1       2.576  14.186  19.608  0.00  0.00    +0.000 A 
ATOM     23  C   UNL     1       1.870  12.990  19.447  0.00  0.00    +0.000 A 
ENDBRANCH   4  17
TORSDOF 1
ENDMDL
MODEL 5
REMARK VINA RESULT:      -7.1      6.360      9.474
REMARK  Name = 
REMARK  1 active torsions:
REMARK  status: ('A' for Active; 'I' for Inactive)
REMARK    1  A    between atoms: C_4  and  C_5
REMARK                            x       y       z     vdW  Elec       q    Type
REMARK                         _______ _______ _______ _____ _____    ______ ____
ROOT
ATOM      1  O   UNL     1      -2.904  12.923  20.420  0.00  0.00    +0.000 OA
ATOM      2  C   UNL     1      -2.010  12.110  20.200  0.00  0.00    +0.000 C 
ATOM      3  C   UNL     1      -1.659  11.658  18.805  0.00  0.00    +0.000 C 
ATOM      4  C   UNL     1      -0.136  11.582  18.670  0.00  0.00    +0.000 C 
ATOM      5  C   UNL     1       0.233  10.452  19.619  0.00  0.00    +0.000 A 
ATOM      6  C   UNL     1      -0.318  10.538  20.907  0.00  0.00    +0.000 A 
ATOM      7  C   UNL     1       0.029   9.655  21.917  0.00  0.00    +0.000 A 
ATOM      8  C   UNL     1       0.885   8.601  21.621  0.00  0.00    +0.000 A 
ATOM      9  C   UNL     1       1.380   8.421  20.320  0.00  0.00    +0.000 A 
ATOM     10  C   UNL     1       2.170   7.294  20.024  0.00  0.00    +0.000 A 
ATOM     11  C   UNL     1       2.645   7.078  18.732  0.00  0.00    +0.000 A 
ATOM     12 BR   UNL     1       3.649   5.524  18.346  0.00  0.00    +0.000 Br
ATOM     13  C   UNL     1       2.369   7.987  17.721  0.00  0.00    +0.000 A 
ATOM     14  C   UNL     1       1.603   9.121  18.003  0.00  0.00    +0.000 A 
ATOM     15  C   UNL     1       1.072   9.358  19.294  0.00  0.00    +0.000 A 
ATOM     16  O   UNL     1      -1.276  11.523  21.221  0.00  0.00    +0.000 OA
ENDROOT
BRANCH   4  17
ATOM     17  C   UNL     1       0.607  12.894  18.981  0.00  0.00    +0.000 A 
ATOM     18  C   UNL     1       1.853  12.879  19.639  0.00  0.00    +0.000 A 
ATOM     19  C   UNL     1       2.463  14.065  20.060  0.00  0.00    +0.000 A 
ATOM     20  C   UNL     1       1.853  15.287  19.800  0.00  0.00    +0.000 A 
ATOM     21 CL   UNL     1       2.566  16.742  20.376  0.00  0.00    +0.000 Cl
ATOM     22  C   UNL     1       0.662  15.333  19.086  0.00  0.00    +0.000 A 
ATOM     23  C   UNL     1       0.054  14.147  18.663  0.00  0.00    +0.000 A 
ENDBRANCH   4  17
TORSDOF 1
ENDMDL
MODEL 6
REMARK VINA RESULT:      -6.6      7.732     10.006
REMARK  Name = 
REMARK  1 active torsions:
REMARK  status: ('A' for Active; 'I' for Inactive)
REMARK    1  A    between atoms: C_4  and  C_5
REMARK                            x       y       z     vdW  Elec       q    Type
REMARK                         _______ _______ _______ _____ _____    ______ ____
ROOT
ATOM      1  O   UNL     1       1.491   8.994  19.915  0.00  0.00    +0.000 OA
ATOM      2  C   UNL     1       0.452   9.597  19.660  0.00  0.00    +0.000 C 
ATOM      3  C   UNL     1      -0.424  10.180  20.740  0.00  0.00    +0.000 C 
ATOM      4  C   UNL     1      -0.912  11.563  20.298  0.00  0.00    +0.000 C 
ATOM      5  C   UNL     1      -1.808  11.243  19.111  0.00  0.00    +0.000 A 
ATOM      6  C   UNL     1      -1.251  10.392  18.143  0.00  0.00    +0.000 A 
ATOM      7  C   UNL     1      -1.895  10.114  16.947  0.00  0.00    +0.000 A 
ATOM      8  C   UNL     1      -3.169  10.627  16.738  0.00  0.00    +0.000 A 
ATOM      9  C   UNL     1      -3.803  11.401  17.722  0.00  0.00    +0.000 A 
ATOM     10  C   UNL     1      -5.129  11.831  17.526  0.00  0.00    +0.000 A 
ATOM     11  C   UNL     1      -5.790  12.571  18.503  0.00  0.00    +0.000 A 
ATOM     12 BR   UNL     1      -7.591  13.081  18.241  0.00  0.00    +0.000 Br
ATOM     13  C   UNL     1      -5.140  12.922  19.678  0.00  0.00    +0.000 A 
ATOM     14  C   UNL     1      -3.817  12.520  19.880  0.00  0.00    +0.000 A 
ATOM     15  C   UNL     1      -3.123  11.736  18.927  0.00  0.00    +0.000 A 
ATOM     16  O   UNL     1      -0.010   9.760  18.362  0.00  0.00    +0.000 OA
ENDROOT
BRANCH   4  17
ATOM     17  C   UNL     1       0.205  12.563  19.954  0.00  0.00    +0.000 A 
ATOM     18  C   UNL     1       1.370  12.645  20.744  0.00  0.00    +0.000 A 
ATOM     19  C   UNL     1       2.319  13.649  20.531  0.00  0.00    +0.000 A 
ATOM     20  C   UNL     1       2.137  14.567  19.504  0.00  0.00    +0.000 A 
ATOM     21 CL   UNL     1       3.267  15.844  19.283  0.00  0.00    +0.000 Cl
ATOM     22  C   UNL     1       1.036  14.462  18.662  0.00  0.00    +0.000 A 
ATOM     23  C   UNL     1       0.088  13.456  18.874  0.00  0.00    +0.000 A 
ENDBRANCH   4  17
TORSDOF 1
ENDMDL
MODEL 7
REMARK VINA RESULT:      -6.5      7.685      9.884
REMARK  Name = 
REMARK  1 active torsions:
REMARK  status: ('A' for Active; 'I' for Inactive)
REMARK    1  A    between atoms: C_4  and  C_5
REMARK                            x       y       z     vdW  Elec       q    Type
REMARK                         _______ _______ _______ _____ _____    ______ ____
ROOT
ATOM      1  O   UNL     1       1.476   8.989  20.043  0.00  0.00    +0.000 OA
ATOM      2  C   UNL     1       0.443   9.592  19.762  0.00  0.00    +0.000 C 
ATOM      3  C   UNL     1      -0.452  10.189  20.819  0.00  0.00    +0.000 C 
ATOM      4  C   UNL     1      -0.928  11.567  20.353  0.00  0.00    +0.000 C 
ATOM      5  C   UNL     1      -1.802  11.236  19.152  0.00  0.00    +0.000 A 
ATOM      6  C   UNL     1      -1.229  10.373  18.204  0.00  0.00    +0.000 A 
ATOM      7  C   UNL     1      -1.851  10.083  17.000  0.00  0.00    +0.000 A 
ATOM      8  C   UNL     1      -3.120  10.596  16.761  0.00  0.00    +0.000 A 
ATOM      9  C   UNL     1      -3.771  11.382  17.725  0.00  0.00    +0.000 A 
ATOM     10  C   UNL     1      -5.091  11.813  17.498  0.00  0.00    +0.000 A 
ATOM     11  C   UNL     1      -5.769  12.565  18.454  0.00  0.00    +0.000 A 
ATOM     12 BR   UNL     1      -7.564  13.076  18.153  0.00  0.00    +0.000 Br
ATOM     13  C   UNL     1      -5.140  12.928  19.637  0.00  0.00    +0.000 A 
ATOM     14  C   UNL     1      -3.822  12.525  19.869  0.00  0.00    +0.000 A 
ATOM     15  C   UNL     1      -3.113  11.729  18.938  0.00  0.00    +0.000 A 
ATOM     16  O   UNL     1       0.006   9.740  18.454  0.00  0.00    +0.000 OA
ENDROOT
BRANCH   4  17
ATOM     17  C   UNL     1       0.198  12.561  20.018  0.00  0.00    +0.000 A 
ATOM     18  C   UNL     1       0.133  13.363  18.861  0.00  0.00    +0.000 A 
ATOM     19  C   UNL     1       1.216  14.157  18.470  0.00  0.00    +0.000 A 
ATOM     20  C   UNL     1       2.367  14.188  19.247  0.00  0.00    +0.000 A 
ATOM     21 CL   UNL     1       3.725  15.110  18.733  0.00  0.00    +0.000 Cl
ATOM     22  C   UNL     1       2.428  13.467  20.434  0.00  0.00    +0.000 A 
ATOM     23  C   UNL     1       1.343  12.675  20.826  0.00  0.00    +0.000 A 
ENDBRANCH   4  17
TORSDOF 1
ENDMDL
MODEL 8
REMARK VINA RESULT:      -6.5      5.815      8.748
REMARK  Name = 
REMARK  1 active torsions:
REMARK  status: ('A' for Active; 'I' for Inactive)
REMARK    1  A    between atoms: C_4  and  C_5
REMARK                            x       y       z     vdW  Elec       q    Type
REMARK                         _______ _______ _______ _____ _____    ______ ____
ROOT
ATOM      1  O   UNL     1       1.223  13.785  19.309  0.00  0.00    +0.000 OA
ATOM      2  C   UNL     1       1.288  12.561  19.382  0.00  0.00    +0.000 C 
ATOM      3  C   UNL     1       1.049  11.819  20.673  0.00  0.00    +0.000 C 
ATOM      4  C   UNL     1       0.211  10.570  20.386  0.00  0.00    +0.000 C 
ATOM      5  C   UNL     1       1.147   9.720  19.540  0.00  0.00    +0.000 A 
ATOM      6  C   UNL     1       1.753  10.379  18.459  0.00  0.00    +0.000 A 
ATOM      7  C   UNL     1       2.528   9.706  17.526  0.00  0.00    +0.000 A 
ATOM      8  C   UNL     1       2.780   8.352  17.717  0.00  0.00    +0.000 A 
ATOM      9  C   UNL     1       2.275   7.678  18.839  0.00  0.00    +0.000 A 
ATOM     10  C   UNL     1       2.620   6.331  19.058  0.00  0.00    +0.000 A 
ATOM     11  C   UNL     1       2.158   5.651  20.182  0.00  0.00    +0.000 A 
ATOM     12 BR   UNL     1       2.689   3.863  20.487  0.00  0.00    +0.000 Br
ATOM     13  C   UNL     1       1.323   6.285  21.092  0.00  0.00    +0.000 A 
ATOM     14  C   UNL     1       0.954   7.615  20.878  0.00  0.00    +0.000 A 
ATOM     15  C   UNL     1       1.432   8.351  19.768  0.00  0.00    +0.000 A 
ATOM     16  O   UNL     1       1.617  11.771  18.290  0.00  0.00    +0.000 OA
ENDROOT
BRANCH   4  17
ATOM     17  C   UNL     1      -1.139  10.842  19.698  0.00  0.00    +0.000 A 
ATOM     18  C   UNL     1      -1.559  10.064  18.600  0.00  0.00    +0.000 A 
ATOM     19  C   UNL     1      -2.707  10.397  17.875  0.00  0.00    +0.000 A 
ATOM     20  C   UNL     1      -3.474  11.492  18.257  0.00  0.00    +0.000 A 
ATOM     21 CL   UNL     1      -4.848  11.944  17.328  0.00  0.00    +0.000 Cl
ATOM     22  C   UNL     1      -3.124  12.229  19.383  0.00  0.00    +0.000 A 
ATOM     23  C   UNL     1      -1.977  11.894  20.109  0.00  0.00    +0.000 A 
ENDBRANCH   4  17
TORSDOF 1
ENDMDL
MODEL 9
REMARK VINA RESULT:      -6.5      6.200      9.072
REMARK  Name = 
REMARK  1 active torsions:
REMARK  status: ('A' for Active; 'I' for Inactive)
REMARK    1  A    between atoms: C_4  and  C_5
REMARK                            x       y       z     vdW  Elec       q    Type
REMARK                         _______ _______ _______ _____ _____    ______ ____
ROOT
ATOM      1  O   UNL     1       3.068  13.468  19.948  0.00  0.00    +0.000 OA
ATOM      2  C   UNL     1       1.868  13.216  20.019  0.00  0.00    +0.000 C 
ATOM      3  C   UNL     1       0.997  13.103  18.794  0.00  0.00    +0.000 C 
ATOM      4  C   UNL     1       0.044  11.916  18.964  0.00  0.00    +0.000 C 
ATOM      5  C   UNL     1      -0.847  12.357  20.115  0.00  0.00    +0.000 A 
ATOM      6  C   UNL     1      -0.176  12.840  21.250  0.00  0.00    +0.000 A 
ATOM      7  C   UNL     1      -0.844  13.157  22.422  0.00  0.00    +0.000 A 
ATOM      8  C   UNL     1      -2.231  13.073  22.446  0.00  0.00    +0.000 A 
ATOM      9  C   UNL     1      -2.948  12.690  21.302  0.00  0.00    +0.000 A 
ATOM     10  C   UNL     1      -4.355  12.702  21.323  0.00  0.00    +0.000 A 
ATOM     11  C   UNL     1      -5.087  12.357  20.189  0.00  0.00    +0.000 A 
ATOM     12 BR   UNL     1      -6.975  12.445  20.224  0.00  0.00    +0.000 Br
ATOM     13  C   UNL     1      -4.438  11.968  19.026  0.00  0.00    +0.000 A 
ATOM     14  C   UNL     1      -3.042  11.931  18.994  0.00  0.00    +0.000 A 
ATOM     15  C   UNL     1      -2.262  12.308  20.114  0.00  0.00    +0.000 A 
ATOM     16  O   UNL     1       1.218  13.048  21.234  0.00  0.00    +0.000 OA
ENDROOT
BRANCH   4  17
ATOM     17  C   UNL     1       0.735  10.565  19.222  0.00  0.00    +0.000 A 
ATOM     18  C   UNL     1       1.544   9.967  18.235  0.00  0.00    +0.000 A 
ATOM     19  C   UNL     1       2.052   8.675  18.402  0.00  0.00    +0.000 A 
ATOM     20  C   UNL     1       1.787   7.973  19.572  0.00  0.00    +0.000 A 
ATOM     21 CL   UNL     1       2.353   6.359  19.751  0.00  0.00    +0.000 Cl
ATOM     22  C   UNL     1       1.057   8.569  20.593  0.00  0.00    +0.000 A 
ATOM     23  C   UNL     1       0.552   9.863  20.427  0.00  0.00    +0.000 A 
ENDBRANCH   4  17
TORSDOF 1
ENDMDL
