MODEL 1
REMARK VINA RESULT:      -6.3      0.000      0.000
REMARK  Name = 
REMARK  4 active torsions:
REMARK  status: ('A' for Active; 'I' for Inactive)
REMARK    1  A    between atoms: C_2  and  C_3
REMARK    2  A    between atoms: C_3  and  C_4
REMARK    3  A    between atoms: C_4  and  C_5
REMARK    4  A    between atoms: C_7  and  C_8
REMARK                            x       y       z     vdW  Elec       q    Type
REMARK                         _______ _______ _______ _____ _____    ______ ____
ROOT
ATOM      1  C   UNL     1       6.090   4.811  14.972  0.00  0.00    +0.000 A 
ATOM      2  N   UNL     1       5.600   4.005  15.882  0.00  0.00    +0.000 NA
ATOM      3  C   UNL     1       4.835   4.854  16.651  0.00  0.00    +0.000 A 
ATOM      4  N   UNL     1       4.879   6.135  16.250  0.00  0.00    +0.000 NA
ATOM      5  O   UNL     1       5.709   6.108  15.133  0.00  0.00    +0.000 OA
ENDROOT
BRANCH   3   6
ATOM      6  C   UNL     1       4.019   4.368  17.756  0.00  0.00    +0.000 A 
ATOM      7  C   UNL     1       2.673   4.753  17.861  0.00  0.00    +0.000 A 
ATOM      8  C   UNL     1       1.883   4.303  18.922  0.00  0.00    +0.000 A 
ATOM      9  C   UNL     1       2.440   3.465  19.887  0.00  0.00    +0.000 A 
ATOM     10 BR   UNL     1       1.373   2.850  21.320  0.00  0.00    +0.000 Br
ATOM     11  C   UNL     1       3.774   3.078  19.803  0.00  0.00    +0.000 A 
ATOM     12  C   UNL     1       4.562   3.527  18.739  0.00  0.00    +0.000 A 
ENDBRANCH   3   6
BRANCH   1  13
ATOM     13  C   UNL     1       6.833   4.476  13.736  0.00  0.00    +0.000 C 
BRANCH  13  14
ATOM     14  C   UNL     1       6.003   3.553  12.838  0.00  0.00    +0.000 C 
BRANCH  14  16
ATOM     15 BR   UNL     1       6.265   1.220  11.224  0.00  0.00    +0.000 Br
ATOM     16  C   UNL     1       6.798   3.044  11.642  0.00  0.00    +0.000 C 
ENDBRANCH  14  16
ENDBRANCH  13  14
ENDBRANCH   1  13
TORSDOF 4
ENDMDL
MODEL 2
REMARK VINA RESULT:      -6.3      1.412      1.657
REMARK  Name = 
REMARK  4 active torsions:
REMARK  status: ('A' for Active; 'I' for Inactive)
REMARK    1  A    between atoms: C_2  and  C_3
REMARK    2  A    between atoms: C_3  and  C_4
REMARK    3  A    between atoms: C_4  and  C_5
REMARK    4  A    between atoms: C_7  and  C_8
REMARK                            x       y       z     vdW  Elec       q    Type
REMARK                         _______ _______ _______ _____ _____    ______ ____
ROOT
ATOM      1  C   UNL     1       6.306   4.350  13.964  0.00  0.00    +0.000 A 
ATOM      2  N   UNL     1       5.371   4.012  14.819  0.00  0.00    +0.000 NA
ATOM      3  C   UNL     1       5.530   4.948  15.817  0.00  0.00    +0.000 A 
ATOM      4  N   UNL     1       6.541   5.805  15.601  0.00  0.00    +0.000 NA
ATOM      5  O   UNL     1       7.056   5.412  14.369  0.00  0.00    +0.000 OA
ENDROOT
BRANCH   3   6
ATOM      6  C   UNL     1       4.630   5.012  16.961  0.00  0.00    +0.000 A 
ATOM      7  C   UNL     1       4.222   6.256  17.470  0.00  0.00    +0.000 A 
ATOM      8  C   UNL     1       3.370   6.331  18.573  0.00  0.00    +0.000 A 
ATOM      9  C   UNL     1       2.922   5.157  19.178  0.00  0.00    +0.000 A 
ATOM     10 BR   UNL     1       1.765   5.255  20.668  0.00  0.00    +0.000 Br
ATOM     11  C   UNL     1       3.322   3.915  18.693  0.00  0.00    +0.000 A 
ATOM     12  C   UNL     1       4.172   3.842  17.586  0.00  0.00    +0.000 A 
ENDBRANCH   3   6
BRANCH   1  13
ATOM     13  C   UNL     1       6.528   3.855  12.586  0.00  0.00    +0.000 C 
BRANCH  13  14
ATOM     14  C   UNL     1       5.236   3.276  12.002  0.00  0.00    +0.000 C 
BRANCH  14  16
ATOM     15 BR   UNL     1       7.356   1.670  10.982  0.00  0.00    +0.000 Br
ATOM     16  C   UNL     1       5.459   1.927  11.331  0.00  0.00    +0.000 C 
ENDBRANCH  14  16
ENDBRANCH  13  14
ENDBRANCH   1  13
TORSDOF 4
ENDMDL
MODEL 3
REMARK VINA RESULT:      -6.3      0.672      1.039
REMARK  Name = 
REMARK  4 active torsions:
REMARK  status: ('A' for Active; 'I' for Inactive)
REMARK    1  A    between atoms: C_2  and  C_3
REMARK    2  A    between atoms: C_3  and  C_4
REMARK    3  A    between atoms: C_4  and  C_5
REMARK    4  A    between atoms: C_7  and  C_8
REMARK                            x       y       z     vdW  Elec       q    Type
REMARK                         _______ _______ _______ _____ _____    ______ ____
ROOT
ATOM      1  C   UNL     1       6.043   4.939  15.093  0.00  0.00    +0.000 A 
ATOM      2  N   UNL     1       5.605   4.114  16.013  0.00  0.00    +0.000 NA
ATOM      3  C   UNL     1       4.825   4.933  16.799  0.00  0.00    +0.000 A 
ATOM      4  N   UNL     1       4.809   6.215  16.398  0.00  0.00    +0.000 NA
ATOM      5  O   UNL     1       5.616   6.220  15.263  0.00  0.00    +0.000 OA
ENDROOT
BRANCH   3   6
ATOM      6  C   UNL     1       4.053   4.415  17.921  0.00  0.00    +0.000 A 
ATOM      7  C   UNL     1       3.801   3.038  18.029  0.00  0.00    +0.000 A 
ATOM      8  C   UNL     1       3.053   2.530  19.093  0.00  0.00    +0.000 A 
ATOM      9  C   UNL     1       2.549   3.402  20.057  0.00  0.00    +0.000 A 
ATOM     10 BR   UNL     1       1.540   2.718  21.501  0.00  0.00    +0.000 Br
ATOM     11  C   UNL     1       2.782   4.771  19.963  0.00  0.00    +0.000 A 
ATOM     12  C   UNL     1       3.534   5.277  18.899  0.00  0.00    +0.000 A 
ENDBRANCH   3   6
BRANCH   1  13
ATOM     13  C   UNL     1       6.770   4.632  13.840  0.00  0.00    +0.000 C 
BRANCH  13  14
ATOM     14  C   UNL     1       6.014   3.585  13.016  0.00  0.00    +0.000 C 
BRANCH  14  16
ATOM     15 BR   UNL     1       6.320   1.369  11.252  0.00  0.00    +0.000 Br
ATOM     16  C   UNL     1       6.766   3.196  11.749  0.00  0.00    +0.000 C 
ENDBRANCH  14  16
ENDBRANCH  13  14
ENDBRANCH   1  13
TORSDOF 4
ENDMDL
MODEL 4
REMARK VINA RESULT:      -6.2      1.611      1.901
REMARK  Name = 
REMARK  4 active torsions:
REMARK  status: ('A' for Active; 'I' for Inactive)
REMARK    1  A    between atoms: C_2  and  C_3
REMARK    2  A    between atoms: C_3  and  C_4
REMARK    3  A    between atoms: C_4  and  C_5
REMARK    4  A    between atoms: C_7  and  C_8
REMARK                            x       y       z     vdW  Elec       q    Type
REMARK                         _______ _______ _______ _____ _____    ______ ____
ROOT
ATOM      1  C   UNL     1       6.467   4.250  13.966  0.00  0.00    +0.000 A 
ATOM      2  N   UNL     1       5.413   4.076  14.727  0.00  0.00    +0.000 NA
ATOM      3  C   UNL     1       5.897   4.383  15.980  0.00  0.00    +0.000 A 
ATOM      4  N   UNL     1       7.201   4.703  15.994  0.00  0.00    +0.000 NA
ATOM      5  O   UNL     1       7.581   4.618  14.657  0.00  0.00    +0.000 OA
ENDROOT
BRANCH   3   6
ATOM      6  C   UNL     1       5.033   4.408  17.153  0.00  0.00    +0.000 A 
ATOM      7  C   UNL     1       4.102   3.378  17.366  0.00  0.00    +0.000 A 
ATOM      8  C   UNL     1       3.261   3.396  18.481  0.00  0.00    +0.000 A 
ATOM      9  C   UNL     1       3.345   4.450  19.389  0.00  0.00    +0.000 A 
ATOM     10 BR   UNL     1       2.212   4.475  20.900  0.00  0.00    +0.000 Br
ATOM     11  C   UNL     1       4.256   5.484  19.190  0.00  0.00    +0.000 A 
ATOM     12  C   UNL     1       5.100   5.462  18.076  0.00  0.00    +0.000 A 
ENDBRANCH   3   6
BRANCH   1  13
ATOM     13  C   UNL     1       6.553   4.271  12.489  0.00  0.00    +0.000 C 
BRANCH  13  14
ATOM     14  C   UNL     1       6.877   2.877  11.944  0.00  0.00    +0.000 C 
BRANCH  14  16
ATOM     15 BR   UNL     1       4.164   3.314  11.193  0.00  0.00    +0.000 Br
ATOM     16  C   UNL     1       5.621   2.089  11.593  0.00  0.00    +0.000 C 
ENDBRANCH  14  16
ENDBRANCH  13  14
ENDBRANCH   1  13
TORSDOF 4
ENDMDL
MODEL 5
REMARK VINA RESULT:      -6.2      0.790      1.385
REMARK  Name = 
REMARK  4 active torsions:
REMARK  status: ('A' for Active; 'I' for Inactive)
REMARK    1  A    between atoms: C_2  and  C_3
REMARK    2  A    between atoms: C_3  and  C_4
REMARK    3  A    between atoms: C_4  and  C_5
REMARK    4  A    between atoms: C_7  and  C_8
REMARK                            x       y       z     vdW  Elec       q    Type
REMARK                         _______ _______ _______ _____ _____    ______ ____
ROOT
ATOM      1  C   UNL     1       6.015   4.291  14.468  0.00  0.00    +0.000 A 
ATOM      2  N   UNL     1       5.389   3.552  15.352  0.00  0.00    +0.000 NA
ATOM      3  C   UNL     1       4.977   4.484  16.279  0.00  0.00    +0.000 A 
ATOM      4  N   UNL     1       5.360   5.740  15.994  0.00  0.00    +0.000 NA
ATOM      5  O   UNL     1       6.047   5.614  14.789  0.00  0.00    +0.000 OA
ENDROOT
BRANCH   3   6
ATOM      6  C   UNL     1       4.151   4.119  17.423  0.00  0.00    +0.000 A 
ATOM      7  C   UNL     1       4.744   3.877  18.673  0.00  0.00    +0.000 A 
ATOM      8  C   UNL     1       3.965   3.515  19.774  0.00  0.00    +0.000 A 
ATOM      9  C   UNL     1       2.584   3.389  19.628  0.00  0.00    +0.000 A 
ATOM     10 BR   UNL     1       1.527   2.904  21.117  0.00  0.00    +0.000 Br
ATOM     11  C   UNL     1       1.980   3.617  18.395  0.00  0.00    +0.000 A 
ATOM     12  C   UNL     1       2.760   3.983  17.295  0.00  0.00    +0.000 A 
ENDBRANCH   3   6
BRANCH   1  13
ATOM     13  C   UNL     1       6.517   3.911  13.128  0.00  0.00    +0.000 C 
BRANCH  13  14
ATOM     14  C   UNL     1       5.354   3.602  12.180  0.00  0.00    +0.000 C 
BRANCH  14  16
ATOM     15 BR   UNL     1       7.252   1.821  11.022  0.00  0.00    +0.000 Br
ATOM     16  C   UNL     1       5.434   2.193  11.608  0.00  0.00    +0.000 C 
ENDBRANCH  14  16
ENDBRANCH  13  14
ENDBRANCH   1  13
TORSDOF 4
ENDMDL
MODEL 6
REMARK VINA RESULT:      -6.1      1.698      2.007
REMARK  Name = 
REMARK  4 active torsions:
REMARK  status: ('A' for Active; 'I' for Inactive)
REMARK    1  A    between atoms: C_2  and  C_3
REMARK    2  A    between atoms: C_3  and  C_4
REMARK    3  A    between atoms: C_4  and  C_5
REMARK    4  A    between atoms: C_7  and  C_8
REMARK                            x       y       z     vdW  Elec       q    Type
REMARK                         _______ _______ _______ _____ _____    ______ ____
ROOT
ATOM      1  C   UNL     1       6.678   4.543  13.934  0.00  0.00    +0.000 A 
ATOM      2  N   UNL     1       5.642   4.280  14.694  0.00  0.00    +0.000 NA
ATOM      3  C   UNL     1       5.921   4.999  15.836  0.00  0.00    +0.000 A 
ATOM      4  N   UNL     1       7.094   5.652  15.792  0.00  0.00    +0.000 NA
ATOM      5  O   UNL     1       7.597   5.353  14.529  0.00  0.00    +0.000 OA
ENDROOT
BRANCH   3   6
ATOM      6  C   UNL     1       4.982   5.073  16.947  0.00  0.00    +0.000 A 
ATOM      7  C   UNL     1       4.290   6.267  17.209  0.00  0.00    +0.000 A 
ATOM      8  C   UNL     1       3.396   6.354  18.278  0.00  0.00    +0.000 A 
ATOM      9  C   UNL     1       3.191   5.243  19.096  0.00  0.00    +0.000 A 
ATOM     10 BR   UNL     1       1.979   5.356  20.540  0.00  0.00    +0.000 Br
ATOM     11  C   UNL     1       3.874   4.054  18.857  0.00  0.00    +0.000 A 
ATOM     12  C   UNL     1       4.765   3.967  17.784  0.00  0.00    +0.000 A 
ENDBRANCH   3   6
BRANCH   1  13
ATOM     13  C   UNL     1       6.884   4.229  12.503  0.00  0.00    +0.000 C 
BRANCH  13  14
ATOM     14  C   UNL     1       5.955   3.095  12.056  0.00  0.00    +0.000 C 
BRANCH  14  16
ATOM     15 BR   UNL     1       3.681   3.503  10.390  0.00  0.00    +0.000 Br
ATOM     16  C   UNL     1       4.485   3.479  12.162  0.00  0.00    +0.000 C 
ENDBRANCH  14  16
ENDBRANCH  13  14
ENDBRANCH   1  13
TORSDOF 4
ENDMDL
MODEL 7
REMARK VINA RESULT:      -6.1      4.414      5.508
REMARK  Name = 
REMARK  4 active torsions:
REMARK  status: ('A' for Active; 'I' for Inactive)
REMARK    1  A    between atoms: C_2  and  C_3
REMARK    2  A    between atoms: C_3  and  C_4
REMARK    3  A    between atoms: C_4  and  C_5
REMARK    4  A    between atoms: C_7  and  C_8
REMARK                            x       y       z     vdW  Elec       q    Type
REMARK                         _______ _______ _______ _____ _____    ______ ____
ROOT
ATOM      1  C   UNL     1       7.383   6.958  17.836  0.00  0.00    +0.000 A 
ATOM      2  N   UNL     1       6.144   6.598  17.600  0.00  0.00    +0.000 NA
ATOM      3  C   UNL     1       6.006   5.474  18.384  0.00  0.00    +0.000 A 
ATOM      4  N   UNL     1       7.123   5.137  19.050  0.00  0.00    +0.000 NA
ATOM      5  O   UNL     1       8.038   6.124  18.690  0.00  0.00    +0.000 OA
ENDROOT
BRANCH   3   6
ATOM      6  C   UNL     1       4.736   4.771  18.505  0.00  0.00    +0.000 A 
ATOM      7  C   UNL     1       4.558   3.801  19.505  0.00  0.00    +0.000 A 
ATOM      8  C   UNL     1       3.349   3.112  19.624  0.00  0.00    +0.000 A 
ATOM      9  C   UNL     1       2.310   3.388  18.737  0.00  0.00    +0.000 A 
ATOM     10 BR   UNL     1       0.672   2.460  18.897  0.00  0.00    +0.000 Br
ATOM     11  C   UNL     1       2.471   4.339  17.733  0.00  0.00    +0.000 A 
ATOM     12  C   UNL     1       3.680   5.031  17.618  0.00  0.00    +0.000 A 
ENDBRANCH   3   6
BRANCH   1  13
ATOM     13  C   UNL     1       8.078   8.206  17.448  0.00  0.00    +0.000 C 
BRANCH  13  14
ATOM     14  C   UNL     1       8.595   8.947  18.686  0.00  0.00    +0.000 C 
BRANCH  14  16
ATOM     15 BR   UNL     1       9.706  11.238  19.963  0.00  0.00    +0.000 Br
ATOM     16  C   UNL     1       8.918  10.406  18.391  0.00  0.00    +0.000 C 
ENDBRANCH  14  16
ENDBRANCH  13  14
ENDBRANCH   1  13
TORSDOF 4
ENDMDL
MODEL 8
REMARK VINA RESULT:      -6.1      1.053      1.602
REMARK  Name = 
REMARK  4 active torsions:
REMARK  status: ('A' for Active; 'I' for Inactive)
REMARK    1  A    between atoms: C_2  and  C_3
REMARK    2  A    between atoms: C_3  and  C_4
REMARK    3  A    between atoms: C_4  and  C_5
REMARK    4  A    between atoms: C_7  and  C_8
REMARK                            x       y       z     vdW  Elec       q    Type
REMARK                         _______ _______ _______ _____ _____    ______ ____
ROOT
ATOM      1  C   UNL     1       5.928   4.339  14.836  0.00  0.00    +0.000 A 
ATOM      2  N   UNL     1       5.356   3.599  15.756  0.00  0.00    +0.000 NA
ATOM      3  C   UNL     1       4.828   4.542  16.609  0.00  0.00    +0.000 A 
ATOM      4  N   UNL     1       5.091   5.809  16.248  0.00  0.00    +0.000 NA
ATOM      5  O   UNL     1       5.819   5.676  15.068  0.00  0.00    +0.000 OA
ENDROOT
BRANCH   3   6
ATOM      6  C   UNL     1       4.013   4.169  17.758  0.00  0.00    +0.000 A 
ATOM      7  C   UNL     1       4.579   3.443  18.819  0.00  0.00    +0.000 A 
ATOM      8  C   UNL     1       3.806   3.070  19.921  0.00  0.00    +0.000 A 
ATOM      9  C   UNL     1       2.456   3.420  19.964  0.00  0.00    +0.000 A 
ATOM     10 BR   UNL     1       1.409   2.920  21.455  0.00  0.00    +0.000 Br
ATOM     11  C   UNL     1       1.876   4.132  18.919  0.00  0.00    +0.000 A 
ATOM     12  C   UNL     1       2.652   4.508  17.819  0.00  0.00    +0.000 A 
ENDBRANCH   3   6
BRANCH   1  13
ATOM     13  C   UNL     1       6.501   3.926  13.535  0.00  0.00    +0.000 C 
BRANCH  13  14
ATOM     14  C   UNL     1       5.500   4.164  12.401  0.00  0.00    +0.000 C 
BRANCH  14  16
ATOM     15 BR   UNL     1       3.486   3.213  10.623  0.00  0.00    +0.000 Br
ATOM     16  C   UNL     1       5.010   2.861  11.781  0.00  0.00    +0.000 C 
ENDBRANCH  14  16
ENDBRANCH  13  14
ENDBRANCH   1  13
TORSDOF 4
ENDMDL
MODEL 9
REMARK VINA RESULT:      -6.0      5.205      5.958
REMARK  Name = 
REMARK  4 active torsions:
REMARK  status: ('A' for Active; 'I' for Inactive)
REMARK    1  A    between atoms: C_2  and  C_3
REMARK    2  A    between atoms: C_3  and  C_4
REMARK    3  A    between atoms: C_4  and  C_5
REMARK    4  A    between atoms: C_7  and  C_8
REMARK                            x       y       z     vdW  Elec       q    Type
REMARK                         _______ _______ _______ _____ _____    ______ ____
ROOT
ATOM      1  C   UNL     1       7.825   8.107  17.792  0.00  0.00    +0.000 A 
ATOM      2  N   UNL     1       6.769   7.448  17.380  0.00  0.00    +0.000 NA
ATOM      3  C   UNL     1       6.827   6.294  18.130  0.00  0.00    +0.000 A 
ATOM      4  N   UNL     1       7.892   6.232  18.947  0.00  0.00    +0.000 NA
ATOM      5  O   UNL     1       8.554   7.437  18.727  0.00  0.00    +0.000 OA
ENDROOT
BRANCH   3   6
ATOM      6  C   UNL     1       5.784   5.280  18.064  0.00  0.00    +0.000 A 
ATOM      7  C   UNL     1       5.198   4.949  16.831  0.00  0.00    +0.000 A 
ATOM      8  C   UNL     1       4.188   3.987  16.756  0.00  0.00    +0.000 A 
ATOM      9  C   UNL     1       3.757   3.351  17.919  0.00  0.00    +0.000 A 
ATOM     10 BR   UNL     1       2.394   2.045  17.821  0.00  0.00    +0.000 Br
ATOM     11  C   UNL     1       4.320   3.671  19.151  0.00  0.00    +0.000 A 
ATOM     12  C   UNL     1       5.332   4.632  19.224  0.00  0.00    +0.000 A 
ENDBRANCH   3   6
BRANCH   1  13
ATOM     13  C   UNL     1       8.213   9.509  17.514  0.00  0.00    +0.000 C 
BRANCH  13  14
ATOM     14  C   UNL     1       9.090  10.063  18.641  0.00  0.00    +0.000 C 
BRANCH  14  16
ATOM     15 BR   UNL     1      11.286  11.824  18.201  0.00  0.00    +0.000 Br
ATOM     16  C   UNL     1       9.378  11.549  18.469  0.00  0.00    +0.000 C 
ENDBRANCH  14  16
ENDBRANCH  13  14
ENDBRANCH   1  13
TORSDOF 4
ENDMDL
