MODEL 1
REMARK VINA RESULT:      -7.7      0.000      0.000
REMARK  Name = 
REMARK  9 active torsions:
REMARK  status: ('A' for Active; 'I' for Inactive)
REMARK    1  A    between atoms: C_1  and  C_2
REMARK    2  A    between atoms: C_2  and  N_3
REMARK    3  A    between atoms: N_3  and  C_7
REMARK    4  A    between atoms: C_4  and  C_5
REMARK    5  A    between atoms: C_10  and  C_11
REMARK    6  A    between atoms: C_11  and  C_12
REMARK    7  A    between atoms: C_12  and  N_13
REMARK    8  A    between atoms: C_14  and  C_16
REMARK    9  A    between atoms: C_19  and  O_20
REMARK                            x       y       z     vdW  Elec       q    Type
REMARK                         _______ _______ _______ _____ _____    ______ ____
ROOT
ATOM      1  C   UNL     1       1.694   8.271  18.829  0.00  0.00    +0.000 C 
ENDROOT
BRANCH   1   5
ATOM      2  C   UNL     1       4.937   5.695  17.579  0.00  0.00    +0.000 A 
ATOM      3  C   UNL     1       4.095   5.309  18.627  0.00  0.00    +0.000 A 
ATOM      4  C   UNL     1       3.063   6.152  19.051  0.00  0.00    +0.000 A 
ATOM      5  C   UNL     1       2.851   7.387  18.426  0.00  0.00    +0.000 A 
ATOM      6  C   UNL     1       3.725   7.789  17.407  0.00  0.00    +0.000 A 
ATOM      7  C   UNL     1       4.765   6.953  16.993  0.00  0.00    +0.000 A 
BRANCH   2   8
ATOM      8  N   UNL     1       5.932   4.815  17.077  0.00  0.00    +0.000 N 
ATOM      9  C   UNL     1       7.266   4.838  17.476  0.00  0.00    +0.000 C 
ATOM     10  C   UNL     1       7.662   5.654  18.690  0.00  0.00    +0.000 C 
ATOM     11  O   UNL     1       8.132   4.158  16.915  0.00  0.00    +0.000 OA
BRANCH   8  13
ATOM     12  C   UNL     1       5.696   4.414  14.631  0.00  0.00    +0.000 C 
ATOM     13  C   UNL     1       5.531   3.856  16.039  0.00  0.00    +0.000 C 
ENDBRANCH   8  13
ENDBRANCH   2   8
ENDBRANCH   1   5
BRANCH   1  14
ATOM     14  C   UNL     1       1.603   9.543  17.988  0.00  0.00    +0.000 C 
BRANCH  14  15
ATOM     15  N   UNL     1       0.224   9.894  17.685  0.00  0.00    +0.000 N 
ATOM     16  C   UNL     1      -0.525  10.673  18.540  0.00  0.00    +0.000 C 
ATOM     17  O   UNL     1      -0.083  11.136  19.588  0.00  0.00    +0.000 OA
ATOM     18  H   UNL     1      -0.204   9.478  16.868  0.00  0.00    +0.000 HD
BRANCH  16  19
ATOM     19  C   UNL     1      -1.948  10.911  18.165  0.00  0.00    +0.000 A 
ATOM     20  C   UNL     1      -2.451  10.259  17.029  0.00  0.00    +0.000 A 
ATOM     21  C   UNL     1      -3.778  10.443  16.634  0.00  0.00    +0.000 A 
ATOM     22  C   UNL     1      -4.604  11.272  17.384  0.00  0.00    +0.000 A 
ATOM     23  C   UNL     1      -4.124  11.917  18.521  0.00  0.00    +0.000 A 
ATOM     24  C   UNL     1      -2.797  11.735  18.918  0.00  0.00    +0.000 A 
BRANCH  22  25
ATOM     25  O   UNL     1      -5.905  11.480  17.039  0.00  0.00    +0.000 OA
ATOM     26  H   UNL     1      -6.001  11.341  16.082  0.00  0.00    +0.000 HD
ENDBRANCH  22  25
ENDBRANCH  16  19
ENDBRANCH  14  15
ENDBRANCH   1  14
TORSDOF 7
ENDMDL
MODEL 2
REMARK VINA RESULT:      -7.5      3.618      5.098
REMARK  Name = 
REMARK  9 active torsions:
REMARK  status: ('A' for Active; 'I' for Inactive)
REMARK    1  A    between atoms: C_1  and  C_2
REMARK    2  A    between atoms: C_2  and  N_3
REMARK    3  A    between atoms: N_3  and  C_7
REMARK    4  A    between atoms: C_4  and  C_5
REMARK    5  A    between atoms: C_10  and  C_11
REMARK    6  A    between atoms: C_11  and  C_12
REMARK    7  A    between atoms: C_12  and  N_13
REMARK    8  A    between atoms: C_14  and  C_16
REMARK    9  A    between atoms: C_19  and  O_20
REMARK                            x       y       z     vdW  Elec       q    Type
REMARK                         _______ _______ _______ _____ _____    ______ ____
ROOT
ATOM      1  C   UNL     1       2.206   2.196  19.445  0.00  0.00    +0.000 C 
ENDROOT
BRANCH   1   5
ATOM      2  C   UNL     1       5.137   4.500  17.251  0.00  0.00    +0.000 A 
ATOM      3  C   UNL     1       3.926   4.143  16.648  0.00  0.00    +0.000 A 
ATOM      4  C   UNL     1       2.988   3.375  17.345  0.00  0.00    +0.000 A 
ATOM      5  C   UNL     1       3.243   2.963  18.660  0.00  0.00    +0.000 A 
ATOM      6  C   UNL     1       4.475   3.284  19.243  0.00  0.00    +0.000 A 
ATOM      7  C   UNL     1       5.418   4.039  18.541  0.00  0.00    +0.000 A 
BRANCH   2   8
ATOM      8  N   UNL     1       6.060   5.352  16.590  0.00  0.00    +0.000 N 
ATOM      9  C   UNL     1       6.751   5.005  15.432  0.00  0.00    +0.000 C 
ATOM     10  C   UNL     1       6.332   3.768  14.663  0.00  0.00    +0.000 C 
ATOM     11  O   UNL     1       7.651   5.711  14.966  0.00  0.00    +0.000 OA
BRANCH   8  13
ATOM     12  C   UNL     1       7.596   6.656  18.054  0.00  0.00    +0.000 C 
ATOM     13  C   UNL     1       6.334   6.660  17.199  0.00  0.00    +0.000 C 
ENDBRANCH   8  13
ENDBRANCH   2   8
ENDBRANCH   1   5
BRANCH   1  14
ATOM     14  C   UNL     1       1.216   3.111  20.166  0.00  0.00    +0.000 C 
BRANCH  14  15
ATOM     15  N   UNL     1       1.269   4.473  19.658  0.00  0.00    +0.000 N 
ATOM     16  C   UNL     1       1.926   5.472  20.343  0.00  0.00    +0.000 C 
ATOM     17  O   UNL     1       2.522   5.282  21.400  0.00  0.00    +0.000 OA
ATOM     18  H   UNL     1       0.734   4.692  18.828  0.00  0.00    +0.000 HD
BRANCH  16  19
ATOM     19  C   UNL     1       1.856   6.845  19.767  0.00  0.00    +0.000 A 
ATOM     20  C   UNL     1       2.360   7.045  18.472  0.00  0.00    +0.000 A 
ATOM     21  C   UNL     1       2.315   8.310  17.882  0.00  0.00    +0.000 A 
ATOM     22  C   UNL     1       1.758   9.372  18.584  0.00  0.00    +0.000 A 
ATOM     23  C   UNL     1       1.242   9.187  19.864  0.00  0.00    +0.000 A 
ATOM     24  C   UNL     1       1.286   7.923  20.458  0.00  0.00    +0.000 A 
BRANCH  22  25
ATOM     25  O   UNL     1       1.691  10.623  18.049  0.00  0.00    +0.000 OA
ATOM     26  H   UNL     1       0.793  10.972  18.183  0.00  0.00    +0.000 HD
ENDBRANCH  22  25
ENDBRANCH  16  19
ENDBRANCH  14  15
ENDBRANCH   1  14
TORSDOF 7
ENDMDL
MODEL 3
REMARK VINA RESULT:      -7.3      5.391      9.092
REMARK  Name = 
REMARK  9 active torsions:
REMARK  status: ('A' for Active; 'I' for Inactive)
REMARK    1  A    between atoms: C_1  and  C_2
REMARK    2  A    between atoms: C_2  and  N_3
REMARK    3  A    between atoms: N_3  and  C_7
REMARK    4  A    between atoms: C_4  and  C_5
REMARK    5  A    between atoms: C_10  and  C_11
REMARK    6  A    between atoms: C_11  and  C_12
REMARK    7  A    between atoms: C_12  and  N_13
REMARK    8  A    between atoms: C_14  and  C_16
REMARK    9  A    between atoms: C_19  and  O_20
REMARK                            x       y       z     vdW  Elec       q    Type
REMARK                         _______ _______ _______ _____ _____    ______ ____
ROOT
ATOM      1  C   UNL     1       7.562   7.303  17.274  0.00  0.00    +0.000 C 
ENDROOT
BRANCH   1   5
ATOM      2  C   UNL     1       4.019   5.108  18.435  0.00  0.00    +0.000 A 
ATOM      3  C   UNL     1       5.207   4.962  19.160  0.00  0.00    +0.000 A 
ATOM      4  C   UNL     1       6.361   5.649  18.770  0.00  0.00    +0.000 A 
ATOM      5  C   UNL     1       6.341   6.501  17.658  0.00  0.00    +0.000 A 
ATOM      6  C   UNL     1       5.162   6.609  16.910  0.00  0.00    +0.000 A 
ATOM      7  C   UNL     1       4.013   5.911  17.290  0.00  0.00    +0.000 A 
BRANCH   2   8
ATOM      8  N   UNL     1       2.818   4.489  18.868  0.00  0.00    +0.000 N 
ATOM      9  C   UNL     1       1.978   5.015  19.846  0.00  0.00    +0.000 C 
ATOM     10  C   UNL     1       2.186   6.443  20.309  0.00  0.00    +0.000 C 
ATOM     11  O   UNL     1       1.020   4.381  20.301  0.00  0.00    +0.000 OA
BRANCH   8  13
ATOM     12  C   UNL     1       3.701   2.381  17.878  0.00  0.00    +0.000 C 
ATOM     13  C   UNL     1       2.472   3.189  18.278  0.00  0.00    +0.000 C 
ENDBRANCH   8  13
ENDBRANCH   2   8
ENDBRANCH   1   5
BRANCH   1  14
ATOM     14  C   UNL     1       8.076   8.178  18.417  0.00  0.00    +0.000 C 
BRANCH  14  15
ATOM     15  N   UNL     1       8.658   9.419  17.928  0.00  0.00    +0.000 N 
ATOM     16  C   UNL     1       9.242  10.327  18.786  0.00  0.00    +0.000 C 
ATOM     17  O   UNL     1       9.332  10.144  19.997  0.00  0.00    +0.000 OA
ATOM     18  H   UNL     1       8.545   9.644  16.949  0.00  0.00    +0.000 HD
BRANCH  16  19
ATOM     19  C   UNL     1       9.742  11.596  18.187  0.00  0.00    +0.000 A 
ATOM     20  C   UNL     1       8.913  12.728  18.247  0.00  0.00    +0.000 A 
ATOM     21  C   UNL     1       9.334  13.944  17.705  0.00  0.00    +0.000 A 
ATOM     22  C   UNL     1      10.588  14.030  17.112  0.00  0.00    +0.000 A 
ATOM     23  C   UNL     1      11.427  12.920  17.055  0.00  0.00    +0.000 A 
ATOM     24  C   UNL     1      11.009  11.702  17.596  0.00  0.00    +0.000 A 
BRANCH  22  25
ATOM     25  O   UNL     1      11.042  15.195  16.572  0.00  0.00    +0.000 OA
ATOM     26  H   UNL     1      10.555  15.936  16.973  0.00  0.00    +0.000 HD
ENDBRANCH  22  25
ENDBRANCH  16  19
ENDBRANCH  14  15
ENDBRANCH   1  14
TORSDOF 7
ENDMDL
MODEL 4
REMARK VINA RESULT:      -7.2      1.125      1.623
REMARK  Name = 
REMARK  9 active torsions:
REMARK  status: ('A' for Active; 'I' for Inactive)
REMARK    1  A    between atoms: C_1  and  C_2
REMARK    2  A    between atoms: C_2  and  N_3
REMARK    3  A    between atoms: N_3  and  C_7
REMARK    4  A    between atoms: C_4  and  C_5
REMARK    5  A    between atoms: C_10  and  C_11
REMARK    6  A    between atoms: C_11  and  C_12
REMARK    7  A    between atoms: C_12  and  N_13
REMARK    8  A    between atoms: C_14  and  C_16
REMARK    9  A    between atoms: C_19  and  O_20
REMARK                            x       y       z     vdW  Elec       q    Type
REMARK                         _______ _______ _______ _____ _____    ______ ____
ROOT
ATOM      1  C   UNL     1       1.587   7.087  20.281  0.00  0.00    +0.000 C 
ENDROOT
BRANCH   1   5
ATOM      2  C   UNL     1       4.840   5.324  18.041  0.00  0.00    +0.000 A 
ATOM      3  C   UNL     1       4.393   4.725  19.224  0.00  0.00    +0.000 A 
ATOM      4  C   UNL     1       3.360   5.308  19.965  0.00  0.00    +0.000 A 
ATOM      5  C   UNL     1       2.751   6.491  19.527  0.00  0.00    +0.000 A 
ATOM      6  C   UNL     1       3.232   7.110  18.366  0.00  0.00    +0.000 A 
ATOM      7  C   UNL     1       4.274   6.536  17.634  0.00  0.00    +0.000 A 
BRANCH   2   8
ATOM      8  N   UNL     1       5.825   4.699  17.232  0.00  0.00    +0.000 N 
ATOM      9  C   UNL     1       7.196   4.887  17.389  0.00  0.00    +0.000 C 
ATOM     10  C   UNL     1       7.711   5.579  18.635  0.00  0.00    +0.000 C 
ATOM     11  O   UNL     1       8.017   4.444  16.579  0.00  0.00    +0.000 OA
BRANCH   8  13
ATOM     12  C   UNL     1       5.418   4.542  14.781  0.00  0.00    +0.000 C 
ATOM     13  C   UNL     1       5.360   3.843  16.134  0.00  0.00    +0.000 C 
ENDBRANCH   8  13
ENDBRANCH   2   8
ENDBRANCH   1   5
BRANCH   1  14
ATOM     14  C   UNL     1       1.628   8.615  20.319  0.00  0.00    +0.000 C 
BRANCH  14  15
ATOM     15  N   UNL     1       0.367   9.201  19.890  0.00  0.00    +0.000 N 
ATOM     16  C   UNL     1       0.196   9.684  18.610  0.00  0.00    +0.000 C 
ATOM     17  O   UNL     1       1.072   9.634  17.751  0.00  0.00    +0.000 OA
ATOM     18  H   UNL     1      -0.359   9.327  20.583  0.00  0.00    +0.000 HD
BRANCH  16  19
ATOM     19  C   UNL     1      -1.112  10.327  18.301  0.00  0.00    +0.000 A 
ATOM     20  C   UNL     1      -1.598  11.300  19.190  0.00  0.00    +0.000 A 
ATOM     21  C   UNL     1      -2.816  11.937  18.946  0.00  0.00    +0.000 A 
ATOM     22  C   UNL     1      -3.543  11.609  17.808  0.00  0.00    +0.000 A 
ATOM     23  C   UNL     1      -3.069  10.656  16.910  0.00  0.00    +0.000 A 
ATOM     24  C   UNL     1      -1.851  10.016  17.151  0.00  0.00    +0.000 A 
BRANCH  22  25
ATOM     25  O   UNL     1      -4.735  12.206  17.527  0.00  0.00    +0.000 OA
ATOM     26  H   UNL     1      -4.594  12.873  16.834  0.00  0.00    +0.000 HD
ENDBRANCH  22  25
ENDBRANCH  16  19
ENDBRANCH  14  15
ENDBRANCH   1  14
TORSDOF 7
ENDMDL
MODEL 5
REMARK VINA RESULT:      -7.2      3.643      5.071
REMARK  Name = 
REMARK  9 active torsions:
REMARK  status: ('A' for Active; 'I' for Inactive)
REMARK    1  A    between atoms: C_1  and  C_2
REMARK    2  A    between atoms: C_2  and  N_3
REMARK    3  A    between atoms: N_3  and  C_7
REMARK    4  A    between atoms: C_4  and  C_5
REMARK    5  A    between atoms: C_10  and  C_11
REMARK    6  A    between atoms: C_11  and  C_12
REMARK    7  A    between atoms: C_12  and  N_13
REMARK    8  A    between atoms: C_14  and  C_16
REMARK    9  A    between atoms: C_19  and  O_20
REMARK                            x       y       z     vdW  Elec       q    Type
REMARK                         _______ _______ _______ _____ _____    ______ ____
ROOT
ATOM      1  C   UNL     1       2.748   2.236  19.291  0.00  0.00    +0.000 C 
ENDROOT
BRANCH   1   5
ATOM      2  C   UNL     1       5.645   4.623  17.141  0.00  0.00    +0.000 A 
ATOM      3  C   UNL     1       5.872   4.275  18.477  0.00  0.00    +0.000 A 
ATOM      4  C   UNL     1       4.924   3.527  19.182  0.00  0.00    +0.000 A 
ATOM      5  C   UNL     1       3.742   3.106  18.559  0.00  0.00    +0.000 A 
ATOM      6  C   UNL     1       3.500   3.495  17.235  0.00  0.00    +0.000 A 
ATOM      7  C   UNL     1       4.440   4.255  16.535  0.00  0.00    +0.000 A 
BRANCH   2   8
ATOM      8  N   UNL     1       6.634   5.305  16.385  0.00  0.00    +0.000 N 
ATOM      9  C   UNL     1       7.026   4.936  15.100  0.00  0.00    +0.000 C 
ATOM     10  C   UNL     1       6.198   3.921  14.337  0.00  0.00    +0.000 C 
ATOM     11  O   UNL     1       7.989   5.459  14.530  0.00  0.00    +0.000 OA
BRANCH   8  13
ATOM     12  C   UNL     1       6.370   7.592  17.334  0.00  0.00    +0.000 C 
ATOM     13  C   UNL     1       7.316   6.439  17.022  0.00  0.00    +0.000 C 
ENDBRANCH   8  13
ENDBRANCH   2   8
ENDBRANCH   1   5
BRANCH   1  14
ATOM     14  C   UNL     1       1.564   3.030  19.842  0.00  0.00    +0.000 C 
BRANCH  14  15
ATOM     15  N   UNL     1       1.573   4.408  19.378  0.00  0.00    +0.000 N 
ATOM     16  C   UNL     1       2.027   5.435  20.178  0.00  0.00    +0.000 C 
ATOM     17  O   UNL     1       2.469   5.259  21.310  0.00  0.00    +0.000 OA
ATOM     18  H   UNL     1       1.153   4.610  18.480  0.00  0.00    +0.000 HD
BRANCH  16  19
ATOM     19  C   UNL     1       1.924   6.816  19.627  0.00  0.00    +0.000 A 
ATOM     20  C   UNL     1       2.392   7.045  18.323  0.00  0.00    +0.000 A 
ATOM     21  C   UNL     1       2.316   8.319  17.756  0.00  0.00    +0.000 A 
ATOM     22  C   UNL     1       1.762   9.361  18.491  0.00  0.00    +0.000 A 
ATOM     23  C   UNL     1       1.282   9.148  19.781  0.00  0.00    +0.000 A 
ATOM     24  C   UNL     1       1.357   7.874  20.351  0.00  0.00    +0.000 A 
BRANCH  22  25
ATOM     25  O   UNL     1       1.665  10.620  17.979  0.00  0.00    +0.000 OA
ATOM     26  H   UNL     1       1.144  10.583  17.159  0.00  0.00    +0.000 HD
ENDBRANCH  22  25
ENDBRANCH  16  19
ENDBRANCH  14  15
ENDBRANCH   1  14
TORSDOF 7
ENDMDL
MODEL 6
REMARK VINA RESULT:      -7.2      0.492      1.171
REMARK  Name = 
REMARK  9 active torsions:
REMARK  status: ('A' for Active; 'I' for Inactive)
REMARK    1  A    between atoms: C_1  and  C_2
REMARK    2  A    between atoms: C_2  and  N_3
REMARK    3  A    between atoms: N_3  and  C_7
REMARK    4  A    between atoms: C_4  and  C_5
REMARK    5  A    between atoms: C_10  and  C_11
REMARK    6  A    between atoms: C_11  and  C_12
REMARK    7  A    between atoms: C_12  and  N_13
REMARK    8  A    between atoms: C_14  and  C_16
REMARK    9  A    between atoms: C_19  and  O_20
REMARK                            x       y       z     vdW  Elec       q    Type
REMARK                         _______ _______ _______ _____ _____    ______ ____
ROOT
ATOM      1  C   UNL     1       1.824   8.417  19.069  0.00  0.00    +0.000 C 
ENDROOT
BRANCH   1   5
ATOM      2  C   UNL     1       4.842   5.616  17.741  0.00  0.00    +0.000 A 
ATOM      3  C   UNL     1       4.544   6.747  16.973  0.00  0.00    +0.000 A 
ATOM      4  C   UNL     1       3.549   7.640  17.386  0.00  0.00    +0.000 A 
ATOM      5  C   UNL     1       2.848   7.421  18.579  0.00  0.00    +0.000 A 
ATOM      6  C   UNL     1       3.118   6.264  19.320  0.00  0.00    +0.000 A 
ATOM      7  C   UNL     1       4.102   5.365  18.900  0.00  0.00    +0.000 A 
BRANCH   2   8
ATOM      8  N   UNL     1       5.907   4.749  17.383  0.00  0.00    +0.000 N 
ATOM      9  C   UNL     1       7.226   4.922  17.797  0.00  0.00    +0.000 C 
ATOM     10  C   UNL     1       7.532   5.924  18.892  0.00  0.00    +0.000 C 
ATOM     11  O   UNL     1       8.151   4.236  17.350  0.00  0.00    +0.000 OA
BRANCH   8  13
ATOM     12  C   UNL     1       4.197   3.076  16.693  0.00  0.00    +0.000 C 
ATOM     13  C   UNL     1       5.601   3.631  16.482  0.00  0.00    +0.000 C 
ENDBRANCH   8  13
ENDBRANCH   2   8
ENDBRANCH   1   5
BRANCH   1  14
ATOM     14  C   UNL     1       1.748   9.665  18.190  0.00  0.00    +0.000 C 
BRANCH  14  15
ATOM     15  N   UNL     1       0.379   9.976  17.808  0.00  0.00    +0.000 N 
ATOM     16  C   UNL     1      -0.426  10.771  18.596  0.00  0.00    +0.000 C 
ATOM     17  O   UNL     1      -0.043  11.282  19.645  0.00  0.00    +0.000 OA
ATOM     18  H   UNL     1      -0.001   9.521  16.989  0.00  0.00    +0.000 HD
BRANCH  16  19
ATOM     19  C   UNL     1      -1.832  10.966  18.144  0.00  0.00    +0.000 A 
ATOM     20  C   UNL     1      -2.232  10.358  16.944  0.00  0.00    +0.000 A 
ATOM     21  C   UNL     1      -3.540  10.504  16.476  0.00  0.00    +0.000 A 
ATOM     22  C   UNL     1      -4.450  11.250  17.215  0.00  0.00    +0.000 A 
ATOM     23  C   UNL     1      -4.073  11.849  18.415  0.00  0.00    +0.000 A 
ATOM     24  C   UNL     1      -2.765  11.705  18.885  0.00  0.00    +0.000 A 
BRANCH  22  25
ATOM     25  O   UNL     1      -5.736  11.418  16.800  0.00  0.00    +0.000 OA
ATOM     26  H   UNL     1      -5.867  12.351  16.559  0.00  0.00    +0.000 HD
ENDBRANCH  22  25
ENDBRANCH  16  19
ENDBRANCH  14  15
ENDBRANCH   1  14
TORSDOF 7
ENDMDL
MODEL 7
REMARK VINA RESULT:      -7.1      3.620      5.141
REMARK  Name = 
REMARK  9 active torsions:
REMARK  status: ('A' for Active; 'I' for Inactive)
REMARK    1  A    between atoms: C_1  and  C_2
REMARK    2  A    between atoms: C_2  and  N_3
REMARK    3  A    between atoms: N_3  and  C_7
REMARK    4  A    between atoms: C_4  and  C_5
REMARK    5  A    between atoms: C_10  and  C_11
REMARK    6  A    between atoms: C_11  and  C_12
REMARK    7  A    between atoms: C_12  and  N_13
REMARK    8  A    between atoms: C_14  and  C_16
REMARK    9  A    between atoms: C_19  and  O_20
REMARK                            x       y       z     vdW  Elec       q    Type
REMARK                         _______ _______ _______ _____ _____    ______ ____
ROOT
ATOM      1  C   UNL     1       2.520   2.198  19.319  0.00  0.00    +0.000 C 
ENDROOT
BRANCH   1   5
ATOM      2  C   UNL     1       5.559   4.497  17.271  0.00  0.00    +0.000 A 
ATOM      3  C   UNL     1       5.720   4.159  18.619  0.00  0.00    +0.000 A 
ATOM      4  C   UNL     1       4.727   3.440  19.291  0.00  0.00    +0.000 A 
ATOM      5  C   UNL     1       3.564   3.037  18.621  0.00  0.00    +0.000 A 
ATOM      6  C   UNL     1       3.387   3.417  17.284  0.00  0.00    +0.000 A 
ATOM      7  C   UNL     1       4.373   4.148  16.618  0.00  0.00    +0.000 A 
BRANCH   2   8
ATOM      8  N   UNL     1       6.594   5.149  16.551  0.00  0.00    +0.000 N 
ATOM      9  C   UNL     1       6.889   4.901  15.213  0.00  0.00    +0.000 C 
ATOM     10  C   UNL     1       5.914   4.095  14.378  0.00  0.00    +0.000 C 
ATOM     11  O   UNL     1       7.886   5.377  14.660  0.00  0.00    +0.000 OA
BRANCH   8  13
ATOM     12  C   UNL     1       6.846   7.511  17.296  0.00  0.00    +0.000 C 
ATOM     13  C   UNL     1       7.434   6.106  17.284  0.00  0.00    +0.000 C 
ENDBRANCH   8  13
ENDBRANCH   2   8
ENDBRANCH   1   5
BRANCH   1  14
ATOM     14  C   UNL     1       1.379   3.035  19.895  0.00  0.00    +0.000 C 
BRANCH  14  15
ATOM     15  N   UNL     1       1.416   4.407  19.413  0.00  0.00    +0.000 N 
ATOM     16  C   UNL     1       1.948   5.424  20.175  0.00  0.00    +0.000 C 
ATOM     17  O   UNL     1       2.441   5.244  21.286  0.00  0.00    +0.000 OA
ATOM     18  H   UNL     1       0.959   4.615  18.534  0.00  0.00    +0.000 HD
BRANCH  16  19
ATOM     19  C   UNL     1       1.870   6.802  19.612  0.00  0.00    +0.000 A 
ATOM     20  C   UNL     1       1.331   7.817  20.419  0.00  0.00    +0.000 A 
ATOM     21  C   UNL     1       1.239   9.126  19.943  0.00  0.00    +0.000 A 
ATOM     22  C   UNL     1       1.694   9.422  18.663  0.00  0.00    +0.000 A 
ATOM     23  C   UNL     1       2.243   8.429  17.855  0.00  0.00    +0.000 A 
ATOM     24  C   UNL     1       2.337   7.118  18.329  0.00  0.00    +0.000 A 
BRANCH  22  25
ATOM     25  O   UNL     1       1.626  10.684  18.157  0.00  0.00    +0.000 OA
ATOM     26  H   UNL     1       1.502  11.309  18.892  0.00  0.00    +0.000 HD
ENDBRANCH  22  25
ENDBRANCH  16  19
ENDBRANCH  14  15
ENDBRANCH   1  14
TORSDOF 7
ENDMDL
MODEL 8
REMARK VINA RESULT:      -7.1      6.190      9.333
REMARK  Name = 
REMARK  9 active torsions:
REMARK  status: ('A' for Active; 'I' for Inactive)
REMARK    1  A    between atoms: C_1  and  C_2
REMARK    2  A    between atoms: C_2  and  N_3
REMARK    3  A    between atoms: N_3  and  C_7
REMARK    4  A    between atoms: C_4  and  C_5
REMARK    5  A    between atoms: C_10  and  C_11
REMARK    6  A    between atoms: C_11  and  C_12
REMARK    7  A    between atoms: C_12  and  N_13
REMARK    8  A    between atoms: C_14  and  C_16
REMARK    9  A    between atoms: C_19  and  O_20
REMARK                            x       y       z     vdW  Elec       q    Type
REMARK                         _______ _______ _______ _____ _____    ______ ____
ROOT
ATOM      1  C   UNL     1       8.508   8.573  18.690  0.00  0.00    +0.000 C 
ENDROOT
BRANCH   1   5
ATOM      2  C   UNL     1       9.664  12.735  18.927  0.00  0.00    +0.000 A 
ATOM      3  C   UNL     1       8.924  12.271  17.834  0.00  0.00    +0.000 A 
ATOM      4  C   UNL     1       8.573  10.920  17.741  0.00  0.00    +0.000 A 
ATOM      5  C   UNL     1       8.945  10.018  18.746  0.00  0.00    +0.000 A 
ATOM      6  C   UNL     1       9.724  10.479  19.815  0.00  0.00    +0.000 A 
ATOM      7  C   UNL     1      10.088  11.825  19.900  0.00  0.00    +0.000 A 
BRANCH   2   8
ATOM      8  N   UNL     1       9.952  14.116  19.080  0.00  0.00    +0.000 N 
ATOM      9  C   UNL     1      11.057  14.750  18.517  0.00  0.00    +0.000 C 
ATOM     10  C   UNL     1      11.874  14.020  17.470  0.00  0.00    +0.000 C 
ATOM     11  O   UNL     1      11.356  15.917  18.790  0.00  0.00    +0.000 OA
BRANCH   8  13
ATOM     12  C   UNL     1       7.900  15.525  19.141  0.00  0.00    +0.000 C 
ATOM     13  C   UNL     1       9.051  14.909  19.927  0.00  0.00    +0.000 C 
ENDBRANCH   8  13
ENDBRANCH   2   8
ENDBRANCH   1   5
BRANCH   1  14
ATOM     14  C   UNL     1       7.832   8.212  17.368  0.00  0.00    +0.000 C 
BRANCH  14  15
ATOM     15  N   UNL     1       6.635   7.410  17.573  0.00  0.00    +0.000 N 
ATOM     16  C   UNL     1       6.410   6.257  16.851  0.00  0.00    +0.000 C 
ATOM     17  O   UNL     1       7.198   5.822  16.016  0.00  0.00    +0.000 OA
ATOM     18  H   UNL     1       5.926   7.765  18.199  0.00  0.00    +0.000 HD
BRANCH  16  19
ATOM     19  C   UNL     1       5.119   5.552  17.092  0.00  0.00    +0.000 A 
ATOM     20  C   UNL     1       4.072   6.273  17.687  0.00  0.00    +0.000 A 
ATOM     21  C   UNL     1       2.840   5.663  17.931  0.00  0.00    +0.000 A 
ATOM     22  C   UNL     1       2.653   4.334  17.571  0.00  0.00    +0.000 A 
ATOM     23  C   UNL     1       3.677   3.608  16.968  0.00  0.00    +0.000 A 
ATOM     24  C   UNL     1       4.911   4.216  16.723  0.00  0.00    +0.000 A 
BRANCH  22  25
ATOM     25  O   UNL     1       1.468   3.697  17.787  0.00  0.00    +0.000 OA
ATOM     26  H   UNL     1       1.492   2.833  17.341  0.00  0.00    +0.000 HD
ENDBRANCH  22  25
ENDBRANCH  16  19
ENDBRANCH  14  15
ENDBRANCH   1  14
TORSDOF 7
ENDMDL
MODEL 9
REMARK VINA RESULT:      -7.0      1.422      2.013
REMARK  Name = 
REMARK  9 active torsions:
REMARK  status: ('A' for Active; 'I' for Inactive)
REMARK    1  A    between atoms: C_1  and  C_2
REMARK    2  A    between atoms: C_2  and  N_3
REMARK    3  A    between atoms: N_3  and  C_7
REMARK    4  A    between atoms: C_4  and  C_5
REMARK    5  A    between atoms: C_10  and  C_11
REMARK    6  A    between atoms: C_11  and  C_12
REMARK    7  A    between atoms: C_12  and  N_13
REMARK    8  A    between atoms: C_14  and  C_16
REMARK    9  A    between atoms: C_19  and  O_20
REMARK                            x       y       z     vdW  Elec       q    Type
REMARK                         _______ _______ _______ _____ _____    ______ ____
ROOT
ATOM      1  C   UNL     1       1.687   6.488  20.585  0.00  0.00    +0.000 C 
ENDROOT
BRANCH   1   5
ATOM      2  C   UNL     1       4.739   4.940  17.938  0.00  0.00    +0.000 A 
ATOM      3  C   UNL     1       4.169   6.195  17.698  0.00  0.00    +0.000 A 
ATOM      4  C   UNL     1       3.162   6.686  18.537  0.00  0.00    +0.000 A 
ATOM      5  C   UNL     1       2.721   5.934  19.633  0.00  0.00    +0.000 A 
ATOM      6  C   UNL     1       3.263   4.660  19.843  0.00  0.00    +0.000 A 
ATOM      7  C   UNL     1       4.258   4.164  18.997  0.00  0.00    +0.000 A 
BRANCH   2   8
ATOM      8  N   UNL     1       5.821   4.466  17.152  0.00  0.00    +0.000 N 
ATOM      9  C   UNL     1       7.158   4.766  17.403  0.00  0.00    +0.000 C 
ATOM     10  C   UNL     1       7.536   5.412  18.721  0.00  0.00    +0.000 C 
ATOM     11  O   UNL     1       8.060   4.458  16.617  0.00  0.00    +0.000 OA
BRANCH   8  13
ATOM     12  C   UNL     1       5.483   4.463  14.685  0.00  0.00    +0.000 C 
ATOM     13  C   UNL     1       5.500   3.650  15.973  0.00  0.00    +0.000 C 
ENDBRANCH   8  13
ENDBRANCH   2   8
ENDBRANCH   1   5
BRANCH   1  14
ATOM     14  C   UNL     1       1.819   7.997  20.787  0.00  0.00    +0.000 C 
BRANCH  14  15
ATOM     15  N   UNL     1       0.772   8.730  20.090  0.00  0.00    +0.000 N 
ATOM     16  C   UNL     1       0.384   9.989  20.495  0.00  0.00    +0.000 C 
ATOM     17  O   UNL     1       0.900  10.580  21.440  0.00  0.00    +0.000 OA
ATOM     18  H   UNL     1       0.272   8.256  19.351  0.00  0.00    +0.000 HD
BRANCH  16  19
ATOM     19  C   UNL     1      -0.746  10.618  19.753  0.00  0.00    +0.000 A 
ATOM     20  C   UNL     1      -1.131  10.049  18.529  0.00  0.00    +0.000 A 
ATOM     21  C   UNL     1      -2.186  10.595  17.795  0.00  0.00    +0.000 A 
ATOM     22  C   UNL     1      -2.862  11.704  18.291  0.00  0.00    +0.000 A 
ATOM     23  C   UNL     1      -2.500  12.272  19.510  0.00  0.00    +0.000 A 
ATOM     24  C   UNL     1      -1.444  11.728  20.247  0.00  0.00    +0.000 A 
BRANCH  22  25
ATOM     25  O   UNL     1      -3.898  12.270  17.612  0.00  0.00    +0.000 OA
ATOM     26  H   UNL     1      -4.572  12.555  18.252  0.00  0.00    +0.000 HD
ENDBRANCH  22  25
ENDBRANCH  16  19
ENDBRANCH  14  15
ENDBRANCH   1  14
TORSDOF 7
ENDMDL
