MODEL 1
REMARK VINA RESULT:      -6.9      0.000      0.000
REMARK  Name = 
REMARK  12 active torsions:
REMARK  status: ('A' for Active; 'I' for Inactive)
REMARK    1  A    between atoms: C_1  and  C_2
REMARK    2  A    between atoms: C_2  and  N_3
REMARK    3  A    between atoms: N_3  and  C_4
REMARK    4  A    between atoms: C_4  and  C_5
REMARK    5  A    between atoms: C_5  and  O_6
REMARK    6  A    between atoms: O_6  and  C_7
REMARK    7  A    between atoms: C_15  and  O_16
REMARK    8  A    between atoms: O_16  and  C_17
REMARK    9  A    between atoms: C_17  and  C_18
REMARK   10  A    between atoms: C_18  and  N_19
REMARK   11  A    between atoms: N_19  and  C_20
REMARK   12  A    between atoms: C_20  and  C_21
REMARK                            x       y       z     vdW  Elec       q    Type
REMARK                         _______ _______ _______ _____ _____    ______ ____
ROOT
ATOM      1  C   UNL     1       6.370   5.067  16.192  0.00  0.00    +0.000 A 
ATOM      2  C   UNL     1       6.295   4.241  17.333  0.00  0.00    +0.000 A 
ATOM      3  C   UNL     1       5.385   4.520  18.340  0.00  0.00    +0.000 A 
ATOM      4  C   UNL     1       4.550   5.635  18.232  0.00  0.00    +0.000 A 
ATOM      5  C   UNL     1       3.645   5.947  19.243  0.00  0.00    +0.000 A 
ATOM      6  C   UNL     1       2.838   7.075  19.117  0.00  0.00    +0.000 A 
ATOM      7  C   UNL     1       1.941   7.419  20.126  0.00  0.00    +0.000 A 
ATOM      8  C   UNL     1       1.156   8.560  19.992  0.00  0.00    +0.000 A 
ATOM      9  C   UNL     1       1.255   9.369  18.840  0.00  0.00    +0.000 A 
ATOM     10  C   UNL     1       2.148   9.015  17.824  0.00  0.00    +0.000 A 
ATOM     11  C   UNL     1       2.943   7.878  17.959  0.00  0.00    +0.000 A 
ATOM     12  N   UNL     1       3.823   7.551  16.982  0.00  0.00    +0.000 NA
ATOM     13  C   UNL     1       4.623   6.463  17.092  0.00  0.00    +0.000 A 
ATOM     14  C   UNL     1       5.534   6.173  16.077  0.00  0.00    +0.000 A 
ENDROOT
BRANCH   1  15
ATOM     15  O   UNL     1       7.250   4.833  15.198  0.00  0.00    +0.000 OA
BRANCH  15  16
ATOM     16  C   UNL     1       6.916   4.850  13.869  0.00  0.00    +0.000 C 
BRANCH  16  17
ATOM     17  C   UNL     1       5.919   3.757  13.599  0.00  0.00    +0.000 C 
BRANCH  17  18
ATOM     18  N   UNL     1       6.476   2.862  12.585  0.00  0.00    +0.000 NA
ATOM     19  H   UNL     1       7.224   3.355  12.043  0.00  0.00    +0.000 HD
BRANCH  18  21
ATOM     20  C   UNL     1       4.325   3.360  11.432  0.00  0.00    +0.000 C 
ATOM     21  C   UNL     1       5.464   2.359  11.658  0.00  0.00    +0.000 C 
ENDBRANCH  18  21
ENDBRANCH  17  18
ENDBRANCH  16  17
ENDBRANCH  15  16
ENDBRANCH   1  15
BRANCH   9  22
ATOM     22  O   UNL     1       0.515  10.491  18.682  0.00  0.00    +0.000 OA
BRANCH  22  23
ATOM     23  C   UNL     1      -0.794  10.621  19.091  0.00  0.00    +0.000 C 
BRANCH  23  24
ATOM     24  C   UNL     1      -1.398  11.880  18.498  0.00  0.00    +0.000 C 
BRANCH  24  25
ATOM     25  N   UNL     1      -1.532  11.737  17.046  0.00  0.00    +0.000 NA
ATOM     26  H   UNL     1      -0.575  11.659  16.625  0.00  0.00    +0.000 HD
BRANCH  25  27
ATOM     27  C   UNL     1      -2.288  10.527  16.723  0.00  0.00    +0.000 C 
ATOM     28  C   UNL     1      -2.852  10.630  15.312  0.00  0.00    +0.000 C 
ENDBRANCH  25  27
ENDBRANCH  24  25
ENDBRANCH  23  24
ENDBRANCH  22  23
ENDBRANCH   9  22
TORSDOF 10
ENDMDL
MODEL 2
REMARK VINA RESULT:      -6.9      3.520      5.051
REMARK  Name = 
REMARK  12 active torsions:
REMARK  status: ('A' for Active; 'I' for Inactive)
REMARK    1  A    between atoms: C_1  and  C_2
REMARK    2  A    between atoms: C_2  and  N_3
REMARK    3  A    between atoms: N_3  and  C_4
REMARK    4  A    between atoms: C_4  and  C_5
REMARK    5  A    between atoms: C_5  and  O_6
REMARK    6  A    between atoms: O_6  and  C_7
REMARK    7  A    between atoms: C_15  and  O_16
REMARK    8  A    between atoms: O_16  and  C_17
REMARK    9  A    between atoms: C_17  and  C_18
REMARK   10  A    between atoms: C_18  and  N_19
REMARK   11  A    between atoms: N_19  and  C_20
REMARK   12  A    between atoms: C_20  and  C_21
REMARK                            x       y       z     vdW  Elec       q    Type
REMARK                         _______ _______ _______ _____ _____    ______ ____
ROOT
ATOM      1  C   UNL     1       4.454   4.667  18.806  0.00  0.00    +0.000 A 
ATOM      2  C   UNL     1       4.665   5.195  17.516  0.00  0.00    +0.000 A 
ATOM      3  C   UNL     1       4.064   6.385  17.140  0.00  0.00    +0.000 A 
ATOM      4  C   UNL     1       3.230   7.057  18.039  0.00  0.00    +0.000 A 
ATOM      5  C   UNL     1       2.598   8.242  17.674  0.00  0.00    +0.000 A 
ATOM      6  C   UNL     1       1.758   8.879  18.584  0.00  0.00    +0.000 A 
ATOM      7  C   UNL     1       1.098  10.054  18.233  0.00  0.00    +0.000 A 
ATOM      8  C   UNL     1       0.247  10.668  19.148  0.00  0.00    +0.000 A 
ATOM      9  C   UNL     1       0.053  10.114  20.432  0.00  0.00    +0.000 A 
ATOM     10  C   UNL     1       0.726   8.941  20.785  0.00  0.00    +0.000 A 
ATOM     11  C   UNL     1       1.571   8.319  19.868  0.00  0.00    +0.000 A 
ATOM     12  N   UNL     1       2.204   7.170  20.207  0.00  0.00    +0.000 NA
ATOM     13  C   UNL     1       3.017   6.530  19.330  0.00  0.00    +0.000 A 
ATOM     14  C   UNL     1       3.631   5.337  19.707  0.00  0.00    +0.000 A 
ENDROOT
BRANCH   1  15
ATOM     15  O   UNL     1       5.013   3.506  19.203  0.00  0.00    +0.000 OA
BRANCH  15  16
ATOM     16  C   UNL     1       4.293   2.435  19.664  0.00  0.00    +0.000 C 
BRANCH  16  17
ATOM     17  C   UNL     1       3.673   1.720  18.495  0.00  0.00    +0.000 C 
BRANCH  17  18
ATOM     18  N   UNL     1       2.219   1.745  18.655  0.00  0.00    +0.000 NA
ATOM     19  H   UNL     1       1.789   2.378  17.940  0.00  0.00    +0.000 HD
BRANCH  18  21
ATOM     20  C   UNL     1       0.733   3.272  19.945  0.00  0.00    +0.000 C 
ATOM     21  C   UNL     1       1.805   2.178  19.988  0.00  0.00    +0.000 C 
ENDBRANCH  18  21
ENDBRANCH  17  18
ENDBRANCH  16  17
ENDBRANCH  15  16
ENDBRANCH   1  15
BRANCH   9  22
ATOM     22  O   UNL     1      -0.775  10.678  21.341  0.00  0.00    +0.000 OA
BRANCH  22  23
ATOM     23  C   UNL     1      -0.432  11.739  22.150  0.00  0.00    +0.000 C 
BRANCH  23  24
ATOM     24  C   UNL     1      -1.652  12.600  22.419  0.00  0.00    +0.000 C 
BRANCH  24  25
ATOM     25  N   UNL     1      -2.587  11.887  23.295  0.00  0.00    +0.000 NA
ATOM     26  H   UNL     1      -2.169  11.827  24.254  0.00  0.00    +0.000 HD
BRANCH  25  27
ATOM     27  C   UNL     1      -3.856  12.611  23.379  0.00  0.00    +0.000 C 
ATOM     28  C   UNL     1      -4.474  12.414  24.757  0.00  0.00    +0.000 C 
ENDBRANCH  25  27
ENDBRANCH  24  25
ENDBRANCH  23  24
ENDBRANCH  22  23
ENDBRANCH   9  22
TORSDOF 10
ENDMDL
MODEL 3
REMARK VINA RESULT:      -6.8      3.530      9.653
REMARK  Name = 
REMARK  12 active torsions:
REMARK  status: ('A' for Active; 'I' for Inactive)
REMARK    1  A    between atoms: C_1  and  C_2
REMARK    2  A    between atoms: C_2  and  N_3
REMARK    3  A    between atoms: N_3  and  C_4
REMARK    4  A    between atoms: C_4  and  C_5
REMARK    5  A    between atoms: C_5  and  O_6
REMARK    6  A    between atoms: O_6  and  C_7
REMARK    7  A    between atoms: C_15  and  O_16
REMARK    8  A    between atoms: O_16  and  C_17
REMARK    9  A    between atoms: C_17  and  C_18
REMARK   10  A    between atoms: C_18  and  N_19
REMARK   11  A    between atoms: N_19  and  C_20
REMARK   12  A    between atoms: C_20  and  C_21
REMARK                            x       y       z     vdW  Elec       q    Type
REMARK                         _______ _______ _______ _____ _____    ______ ____
ROOT
ATOM      1  C   UNL     1       0.277  10.171  20.012  0.00  0.00    +0.000 A 
ATOM      2  C   UNL     1       0.645  10.707  18.761  0.00  0.00    +0.000 A 
ATOM      3  C   UNL     1       1.517  10.017  17.933  0.00  0.00    +0.000 A 
ATOM      4  C   UNL     1       2.047   8.793  18.348  0.00  0.00    +0.000 A 
ATOM      5  C   UNL     1       2.942   8.095  17.543  0.00  0.00    +0.000 A 
ATOM      6  C   UNL     1       3.469   6.886  17.991  0.00  0.00    +0.000 A 
ATOM      7  C   UNL     1       4.383   6.181  17.211  0.00  0.00    +0.000 A 
ATOM      8  C   UNL     1       4.914   4.984  17.682  0.00  0.00    +0.000 A 
ATOM      9  C   UNL     1       4.529   4.473  18.941  0.00  0.00    +0.000 A 
ATOM     10  C   UNL     1       3.602   5.177  19.715  0.00  0.00    +0.000 A 
ATOM     11  C   UNL     1       3.076   6.381  19.251  0.00  0.00    +0.000 A 
ATOM     12  N   UNL     1       2.196   7.071  20.015  0.00  0.00    +0.000 NA
ATOM     13  C   UNL     1       1.681   8.255  19.600  0.00  0.00    +0.000 A 
ATOM     14  C   UNL     1       0.797   8.948  20.426  0.00  0.00    +0.000 A 
ENDROOT
BRANCH   1  15
ATOM     15  O   UNL     1      -0.559  10.818  20.848  0.00  0.00    +0.000 OA
BRANCH  15  16
ATOM     16  C   UNL     1      -0.359  10.910  22.201  0.00  0.00    +0.000 C 
BRANCH  16  17
ATOM     17  C   UNL     1      -1.108  12.104  22.728  0.00  0.00    +0.000 C 
BRANCH  17  18
ATOM     18  N   UNL     1      -2.335  11.634  23.370  0.00  0.00    +0.000 NA
ATOM     19  H   UNL     1      -2.686  10.772  22.889  0.00  0.00    +0.000 HD
BRANCH  18  21
ATOM     20  C   UNL     1      -2.945  13.960  24.018  0.00  0.00    +0.000 C 
ATOM     21  C   UNL     1      -3.393  12.643  23.374  0.00  0.00    +0.000 C 
ENDBRANCH  18  21
ENDBRANCH  17  18
ENDBRANCH  16  17
ENDBRANCH  15  16
ENDBRANCH   1  15
BRANCH   9  22
ATOM     22  O   UNL     1       5.034   3.319  19.434  0.00  0.00    +0.000 OA
BRANCH  22  23
ATOM     23  C   UNL     1       4.274   2.219  19.766  0.00  0.00    +0.000 C 
BRANCH  23  24
ATOM     24  C   UNL     1       3.642   1.632  18.518  0.00  0.00    +0.000 C 
BRANCH  24  25
ATOM     25  N   UNL     1       2.185   1.577  18.670  0.00  0.00    +0.000 NA
ATOM     26  H   UNL     1       1.880   0.575  18.631  0.00  0.00    +0.000 HD
BRANCH  25  27
ATOM     27  C   UNL     1       1.788   2.140  19.962  0.00  0.00    +0.000 C 
ATOM     28  C   UNL     1       0.664   3.148  19.764  0.00  0.00    +0.000 C 
ENDBRANCH  25  27
ENDBRANCH  24  25
ENDBRANCH  23  24
ENDBRANCH  22  23
ENDBRANCH   9  22
TORSDOF 10
ENDMDL
MODEL 4
REMARK VINA RESULT:      -6.8      1.149      1.447
REMARK  Name = 
REMARK  12 active torsions:
REMARK  status: ('A' for Active; 'I' for Inactive)
REMARK    1  A    between atoms: C_1  and  C_2
REMARK    2  A    between atoms: C_2  and  N_3
REMARK    3  A    between atoms: N_3  and  C_4
REMARK    4  A    between atoms: C_4  and  C_5
REMARK    5  A    between atoms: C_5  and  O_6
REMARK    6  A    between atoms: O_6  and  C_7
REMARK    7  A    between atoms: C_15  and  O_16
REMARK    8  A    between atoms: O_16  and  C_17
REMARK    9  A    between atoms: C_17  and  C_18
REMARK   10  A    between atoms: C_18  and  N_19
REMARK   11  A    between atoms: N_19  and  C_20
REMARK   12  A    between atoms: C_20  and  C_21
REMARK                            x       y       z     vdW  Elec       q    Type
REMARK                         _______ _______ _______ _____ _____    ______ ____
ROOT
ATOM      1  C   UNL     1       4.964   4.480  17.187  0.00  0.00    +0.000 A 
ATOM      2  C   UNL     1       4.753   3.774  18.390  0.00  0.00    +0.000 A 
ATOM      3  C   UNL     1       3.945   4.307  19.381  0.00  0.00    +0.000 A 
ATOM      4  C   UNL     1       3.350   5.558  19.195  0.00  0.00    +0.000 A 
ATOM      5  C   UNL     1       2.553   6.121  20.188  0.00  0.00    +0.000 A 
ATOM      6  C   UNL     1       1.988   7.378  19.982  0.00  0.00    +0.000 A 
ATOM      7  C   UNL     1       1.206   7.971  20.969  0.00  0.00    +0.000 A 
ATOM      8  C   UNL     1       0.664   9.235  20.755  0.00  0.00    +0.000 A 
ATOM      9  C   UNL     1       0.895   9.919  19.542  0.00  0.00    +0.000 A 
ATOM     10  C   UNL     1       1.670   9.315  18.548  0.00  0.00    +0.000 A 
ATOM     11  C   UNL     1       2.223   8.054  18.763  0.00  0.00    +0.000 A 
ATOM     12  N   UNL     1       2.993   7.483  17.806  0.00  0.00    +0.000 NA
ATOM     13  C   UNL     1       3.559   6.266  17.993  0.00  0.00    +0.000 A 
ATOM     14  C   UNL     1       4.366   5.721  16.995  0.00  0.00    +0.000 A 
ENDROOT
BRANCH   1  15
ATOM     15  O   UNL     1       5.752   3.998  16.205  0.00  0.00    +0.000 OA
BRANCH  15  16
ATOM     16  C   UNL     1       6.940   4.572  15.835  0.00  0.00    +0.000 C 
BRANCH  16  17
ATOM     17  C   UNL     1       6.979   4.695  14.336  0.00  0.00    +0.000 C 
BRANCH  17  18
ATOM     18  N   UNL     1       6.259   3.561  13.759  0.00  0.00    +0.000 NA
ATOM     19  H   UNL     1       6.706   2.662  14.058  0.00  0.00    +0.000 HD
BRANCH  18  21
ATOM     20  C   UNL     1       5.711   2.294  11.686  0.00  0.00    +0.000 C 
ATOM     21  C   UNL     1       6.207   3.608  12.299  0.00  0.00    +0.000 C 
ENDBRANCH  18  21
ENDBRANCH  17  18
ENDBRANCH  16  17
ENDBRANCH  15  16
ENDBRANCH   1  15
BRANCH   9  22
ATOM     22  O   UNL     1       0.393  11.153  19.304  0.00  0.00    +0.000 OA
BRANCH  22  23
ATOM     23  C   UNL     1      -0.554  11.434  18.345  0.00  0.00    +0.000 C 
BRANCH  23  24
ATOM     24  C   UNL     1      -1.945  11.283  18.933  0.00  0.00    +0.000 C 
BRANCH  24  25
ATOM     25  N   UNL     1      -2.745  10.377  18.103  0.00  0.00    +0.000 NA
ATOM     26  H   UNL     1      -3.576  10.901  17.738  0.00  0.00    +0.000 HD
BRANCH  25  27
ATOM     27  C   UNL     1      -1.956   9.898  16.968  0.00  0.00    +0.000 C 
ATOM     28  C   UNL     1      -2.790   9.957  15.695  0.00  0.00    +0.000 C 
ENDBRANCH  25  27
ENDBRANCH  24  25
ENDBRANCH  23  24
ENDBRANCH  22  23
ENDBRANCH   9  22
TORSDOF 10
ENDMDL
MODEL 5
REMARK VINA RESULT:      -6.8      2.136      3.173
REMARK  Name = 
REMARK  12 active torsions:
REMARK  status: ('A' for Active; 'I' for Inactive)
REMARK    1  A    between atoms: C_1  and  C_2
REMARK    2  A    between atoms: C_2  and  N_3
REMARK    3  A    between atoms: N_3  and  C_4
REMARK    4  A    between atoms: C_4  and  C_5
REMARK    5  A    between atoms: C_5  and  O_6
REMARK    6  A    between atoms: O_6  and  C_7
REMARK    7  A    between atoms: C_15  and  O_16
REMARK    8  A    between atoms: O_16  and  C_17
REMARK    9  A    between atoms: C_17  and  C_18
REMARK   10  A    between atoms: C_18  and  N_19
REMARK   11  A    between atoms: N_19  and  C_20
REMARK   12  A    between atoms: C_20  and  C_21
REMARK                            x       y       z     vdW  Elec       q    Type
REMARK                         _______ _______ _______ _____ _____    ______ ____
ROOT
ATOM      1  C   UNL     1       3.950   4.692  17.863  0.00  0.00    +0.000 A 
ATOM      2  C   UNL     1       3.657   4.207  19.155  0.00  0.00    +0.000 A 
ATOM      3  C   UNL     1       2.946   4.989  20.051  0.00  0.00    +0.000 A 
ATOM      4  C   UNL     1       2.533   6.272  19.678  0.00  0.00    +0.000 A 
ATOM      5  C   UNL     1       1.838   7.083  20.571  0.00  0.00    +0.000 A 
ATOM      6  C   UNL     1       1.455   8.363  20.178  0.00  0.00    +0.000 A 
ATOM      7  C   UNL     1       0.778   9.200  21.061  0.00  0.00    +0.000 A 
ATOM      8  C   UNL     1       0.419  10.483  20.660  0.00  0.00    +0.000 A 
ATOM      9  C   UNL     1       0.730  10.942  19.361  0.00  0.00    +0.000 A 
ATOM     10  C   UNL     1       1.399  10.095  18.473  0.00  0.00    +0.000 A 
ATOM     11  C   UNL     1       1.768   8.813  18.875  0.00  0.00    +0.000 A 
ATOM     12  N   UNL     1       2.436   8.004  18.019  0.00  0.00    +0.000 NA
ATOM     13  C   UNL     1       2.826   6.759  18.387  0.00  0.00    +0.000 A 
ATOM     14  C   UNL     1       3.534   5.964  17.486  0.00  0.00    +0.000 A 
ENDROOT
BRANCH   1  15
ATOM     15  O   UNL     1       4.649   3.964  16.969  0.00  0.00    +0.000 OA
BRANCH  15  16
ATOM     16  C   UNL     1       6.008   4.049  16.818  0.00  0.00    +0.000 C 
BRANCH  16  17
ATOM     17  C   UNL     1       6.318   4.984  15.680  0.00  0.00    +0.000 C 
BRANCH  17  18
ATOM     18  N   UNL     1       7.482   5.790  16.048  0.00  0.00    +0.000 NA
ATOM     19  H   UNL     1       8.358   5.226  15.941  0.00  0.00    +0.000 HD
BRANCH  18  21
ATOM     20  C   UNL     1       7.653   7.812  17.492  0.00  0.00    +0.000 C 
ATOM     21  C   UNL     1       7.405   6.302  17.415  0.00  0.00    +0.000 C 
ENDBRANCH  18  21
ENDBRANCH  17  18
ENDBRANCH  16  17
ENDBRANCH  15  16
ENDBRANCH   1  15
BRANCH   9  22
ATOM     22  O   UNL     1       0.406  12.188  18.941  0.00  0.00    +0.000 OA
BRANCH  22  23
ATOM     23  C   UNL     1      -0.591  12.959  19.496  0.00  0.00    +0.000 C 
BRANCH  23  24
ATOM     24  C   UNL     1      -1.932  12.575  18.900  0.00  0.00    +0.000 C 
BRANCH  24  25
ATOM     25  N   UNL     1      -1.782  12.281  17.472  0.00  0.00    +0.000 NA
ATOM     26  H   UNL     1      -0.806  11.939  17.300  0.00  0.00    +0.000 HD
BRANCH  25  27
ATOM     27  C   UNL     1      -2.725  11.237  17.067  0.00  0.00    +0.000 C 
ATOM     28  C   UNL     1      -2.012   9.892  17.002  0.00  0.00    +0.000 C 
ENDBRANCH  25  27
ENDBRANCH  24  25
ENDBRANCH  23  24
ENDBRANCH  22  23
ENDBRANCH   9  22
TORSDOF 10
ENDMDL
MODEL 6
REMARK VINA RESULT:      -6.7      1.082      8.524
REMARK  Name = 
REMARK  12 active torsions:
REMARK  status: ('A' for Active; 'I' for Inactive)
REMARK    1  A    between atoms: C_1  and  C_2
REMARK    2  A    between atoms: C_2  and  N_3
REMARK    3  A    between atoms: N_3  and  C_4
REMARK    4  A    between atoms: C_4  and  C_5
REMARK    5  A    between atoms: C_5  and  O_6
REMARK    6  A    between atoms: O_6  and  C_7
REMARK    7  A    between atoms: C_15  and  O_16
REMARK    8  A    between atoms: O_16  and  C_17
REMARK    9  A    between atoms: C_17  and  C_18
REMARK   10  A    between atoms: C_18  and  N_19
REMARK   11  A    between atoms: N_19  and  C_20
REMARK   12  A    between atoms: C_20  and  C_21
REMARK                            x       y       z     vdW  Elec       q    Type
REMARK                         _______ _______ _______ _____ _____    ______ ____
ROOT
ATOM      1  C   UNL     1       0.668  10.275  19.431  0.00  0.00    +0.000 A 
ATOM      2  C   UNL     1       0.410   9.554  20.615  0.00  0.00    +0.000 A 
ATOM      3  C   UNL     1       1.012   8.324  20.831  0.00  0.00    +0.000 A 
ATOM      4  C   UNL     1       1.865   7.788  19.862  0.00  0.00    +0.000 A 
ATOM      5  C   UNL     1       2.461   6.544  20.049  0.00  0.00    +0.000 A 
ATOM      6  C   UNL     1       3.292   6.027  19.057  0.00  0.00    +0.000 A 
ATOM      7  C   UNL     1       3.882   4.775  19.212  0.00  0.00    +0.000 A 
ATOM      8  C   UNL     1       4.694   4.265  18.204  0.00  0.00    +0.000 A 
ATOM      9  C   UNL     1       4.932   5.009  17.028  0.00  0.00    +0.000 A 
ATOM     10  C   UNL     1       4.348   6.270  16.881  0.00  0.00    +0.000 A 
ATOM     11  C   UNL     1       3.526   6.780  17.884  0.00  0.00    +0.000 A 
ATOM     12  N   UNL     1       2.944   7.993  17.727  0.00  0.00    +0.000 NA
ATOM     13  C   UNL     1       2.124   8.508  18.676  0.00  0.00    +0.000 A 
ATOM     14  C   UNL     1       1.524   9.749  18.468  0.00  0.00    +0.000 A 
ENDROOT
BRANCH   1  15
ATOM     15  O   UNL     1       0.093  11.468  19.182  0.00  0.00    +0.000 OA
BRANCH  15  16
ATOM     16  C   UNL     1      -1.233  11.733  19.403  0.00  0.00    +0.000 C 
BRANCH  16  17
ATOM     17  C   UNL     1      -1.950  11.786  18.082  0.00  0.00    +0.000 C 
BRANCH  17  18
ATOM     18  N   UNL     1      -2.588  10.491  17.849  0.00  0.00    +0.000 NA
ATOM     19  H   UNL     1      -2.386   9.842  18.646  0.00  0.00    +0.000 HD
BRANCH  18  21
ATOM     20  C   UNL     1      -2.827  10.486  15.369  0.00  0.00    +0.000 C 
ATOM     21  C   UNL     1      -2.157   9.865  16.600  0.00  0.00    +0.000 C 
ENDBRANCH  18  21
ENDBRANCH  17  18
ENDBRANCH  16  17
ENDBRANCH  15  16
ENDBRANCH   1  15
BRANCH   9  22
ATOM     22  O   UNL     1       5.707   4.539  16.023  0.00  0.00    +0.000 OA
BRANCH  22  23
ATOM     23  C   UNL     1       6.157   5.302  14.968  0.00  0.00    +0.000 C 
BRANCH  23  24
ATOM     24  C   UNL     1       6.898   4.425  13.976  0.00  0.00    +0.000 C 
BRANCH  24  25
ATOM     25  N   UNL     1       6.046   3.307  13.559  0.00  0.00    +0.000 NA
ATOM     26  H   UNL     1       5.078   3.466  13.927  0.00  0.00    +0.000 HD
BRANCH  25  27
ATOM     27  C   UNL     1       5.988   3.231  12.098  0.00  0.00    +0.000 C 
ATOM     28  C   UNL     1       4.537   3.154  11.641  0.00  0.00    +0.000 C 
ENDBRANCH  25  27
ENDBRANCH  24  25
ENDBRANCH  23  24
ENDBRANCH  22  23
ENDBRANCH   9  22
TORSDOF 10
ENDMDL
MODEL 7
REMARK VINA RESULT:      -6.7      3.344      9.390
REMARK  Name = 
REMARK  12 active torsions:
REMARK  status: ('A' for Active; 'I' for Inactive)
REMARK    1  A    between atoms: C_1  and  C_2
REMARK    2  A    between atoms: C_2  and  N_3
REMARK    3  A    between atoms: N_3  and  C_4
REMARK    4  A    between atoms: C_4  and  C_5
REMARK    5  A    between atoms: C_5  and  O_6
REMARK    6  A    between atoms: O_6  and  C_7
REMARK    7  A    between atoms: C_15  and  O_16
REMARK    8  A    between atoms: O_16  and  C_17
REMARK    9  A    between atoms: C_17  and  C_18
REMARK   10  A    between atoms: C_18  and  N_19
REMARK   11  A    between atoms: N_19  and  C_20
REMARK   12  A    between atoms: C_20  and  C_21
REMARK                            x       y       z     vdW  Elec       q    Type
REMARK                         _______ _______ _______ _____ _____    ______ ____
ROOT
ATOM      1  C   UNL     1       0.260  10.110  20.267  0.00  0.00    +0.000 A 
ATOM      2  C   UNL     1       0.544  10.667  19.003  0.00  0.00    +0.000 A 
ATOM      3  C   UNL     1       1.372  10.000  18.115  0.00  0.00    +0.000 A 
ATOM      4  C   UNL     1       1.941   8.777  18.480  0.00  0.00    +0.000 A 
ATOM      5  C   UNL     1       2.794   8.102  17.612  0.00  0.00    +0.000 A 
ATOM      6  C   UNL     1       3.362   6.893  18.011  0.00  0.00    +0.000 A 
ATOM      7  C   UNL     1       4.235   6.211  17.168  0.00  0.00    +0.000 A 
ATOM      8  C   UNL     1       4.808   5.015  17.589  0.00  0.00    +0.000 A 
ATOM      9  C   UNL     1       4.507   4.483  18.861  0.00  0.00    +0.000 A 
ATOM     10  C   UNL     1       3.621   5.165  19.701  0.00  0.00    +0.000 A 
ATOM     11  C   UNL     1       3.053   6.368  19.286  0.00  0.00    +0.000 A 
ATOM     12  N   UNL     1       2.212   7.036  20.111  0.00  0.00    +0.000 NA
ATOM     13  C   UNL     1       1.659   8.218  19.745  0.00  0.00    +0.000 A 
ATOM     14  C   UNL     1       0.818   8.889  20.632  0.00  0.00    +0.000 A 
ENDROOT
BRANCH   1  15
ATOM     15  O   UNL     1      -0.532  10.736  21.162  0.00  0.00    +0.000 OA
BRANCH  15  16
ATOM     16  C   UNL     1      -0.670  12.097  21.232  0.00  0.00    +0.000 C 
BRANCH  16  17
ATOM     17  C   UNL     1      -2.130  12.435  21.371  0.00  0.00    +0.000 C 
BRANCH  17  18
ATOM     18  N   UNL     1      -2.731  12.447  20.038  0.00  0.00    +0.000 NA
ATOM     19  H   UNL     1      -2.266  13.170  19.440  0.00  0.00    +0.000 HD
BRANCH  18  21
ATOM     20  C   UNL     1      -4.734  12.712  21.494  0.00  0.00    +0.000 C 
ATOM     21  C   UNL     1      -4.170  12.705  20.069  0.00  0.00    +0.000 C 
ENDBRANCH  18  21
ENDBRANCH  17  18
ENDBRANCH  16  17
ENDBRANCH  15  16
ENDBRANCH   1  15
BRANCH   9  22
ATOM     22  O   UNL     1       5.055   3.329  19.307  0.00  0.00    +0.000 OA
BRANCH  22  23
ATOM     23  C   UNL     1       4.329   2.246  19.753  0.00  0.00    +0.000 C 
BRANCH  23  24
ATOM     24  C   UNL     1       3.754   1.488  18.571  0.00  0.00    +0.000 C 
BRANCH  24  25
ATOM     25  N   UNL     1       2.311   1.728  18.474  0.00  0.00    +0.000 NA
ATOM     26  H   UNL     1       1.848   0.857  18.120  0.00  0.00    +0.000 HD
BRANCH  25  27
ATOM     27  C   UNL     1       1.761   2.052  19.790  0.00  0.00    +0.000 C 
ATOM     28  C   UNL     1       0.685   3.121  19.653  0.00  0.00    +0.000 C 
ENDBRANCH  25  27
ENDBRANCH  24  25
ENDBRANCH  23  24
ENDBRANCH  22  23
ENDBRANCH   9  22
TORSDOF 10
ENDMDL
MODEL 8
REMARK VINA RESULT:      -6.7      3.506      4.826
REMARK  Name = 
REMARK  12 active torsions:
REMARK  status: ('A' for Active; 'I' for Inactive)
REMARK    1  A    between atoms: C_1  and  C_2
REMARK    2  A    between atoms: C_2  and  N_3
REMARK    3  A    between atoms: N_3  and  C_4
REMARK    4  A    between atoms: C_4  and  C_5
REMARK    5  A    between atoms: C_5  and  O_6
REMARK    6  A    between atoms: O_6  and  C_7
REMARK    7  A    between atoms: C_15  and  O_16
REMARK    8  A    between atoms: O_16  and  C_17
REMARK    9  A    between atoms: C_17  and  C_18
REMARK   10  A    between atoms: C_18  and  N_19
REMARK   11  A    between atoms: N_19  and  C_20
REMARK   12  A    between atoms: C_20  and  C_21
REMARK                            x       y       z     vdW  Elec       q    Type
REMARK                         _______ _______ _______ _____ _____    ______ ____
ROOT
ATOM      1  C   UNL     1       4.458   4.522  18.831  0.00  0.00    +0.000 A 
ATOM      2  C   UNL     1       4.767   5.065  17.567  0.00  0.00    +0.000 A 
ATOM      3  C   UNL     1       4.223   6.278  17.175  0.00  0.00    +0.000 A 
ATOM      4  C   UNL     1       3.351   6.957  18.030  0.00  0.00    +0.000 A 
ATOM      5  C   UNL     1       2.776   8.165  17.647  0.00  0.00    +0.000 A 
ATOM      6  C   UNL     1       1.895   8.810  18.512  0.00  0.00    +0.000 A 
ATOM      7  C   UNL     1       1.290  10.008  18.141  0.00  0.00    +0.000 A 
ATOM      8  C   UNL     1       0.399  10.630  19.010  0.00  0.00    +0.000 A 
ATOM      9  C   UNL     1       0.106  10.060  20.268  0.00  0.00    +0.000 A 
ATOM     10  C   UNL     1       0.724   8.864  20.642  0.00  0.00    +0.000 A 
ATOM     11  C   UNL     1       1.610   8.233  19.771  0.00  0.00    +0.000 A 
ATOM     12  N   UNL     1       2.189   7.062  20.128  0.00  0.00    +0.000 NA
ATOM     13  C   UNL     1       3.040   6.415  19.295  0.00  0.00    +0.000 A 
ATOM     14  C   UNL     1       3.597   5.199  19.689  0.00  0.00    +0.000 A 
ENDROOT
BRANCH   1  15
ATOM     15  O   UNL     1       4.959   3.339  19.242  0.00  0.00    +0.000 OA
BRANCH  15  16
ATOM     16  C   UNL     1       4.185   2.249  19.540  0.00  0.00    +0.000 C 
BRANCH  16  17
ATOM     17  C   UNL     1       3.484   1.788  18.291  0.00  0.00    +0.000 C 
BRANCH  17  18
ATOM     18  N   UNL     1       2.094   1.481  18.627  0.00  0.00    +0.000 NA
ATOM     19  H   UNL     1       1.679   0.852  17.899  0.00  0.00    +0.000 HD
BRANCH  18  21
ATOM     20  C   UNL     1       0.921   3.005  20.210  0.00  0.00    +0.000 C 
ATOM     21  C   UNL     1       1.265   2.679  18.752  0.00  0.00    +0.000 C 
ENDBRANCH  18  21
ENDBRANCH  17  18
ENDBRANCH  16  17
ENDBRANCH  15  16
ENDBRANCH   1  15
BRANCH   9  22
ATOM     22  O   UNL     1      -0.765  10.632  21.132  0.00  0.00    +0.000 OA
BRANCH  22  23
ATOM     23  C   UNL     1      -0.409  11.172  22.348  0.00  0.00    +0.000 C 
BRANCH  23  24
ATOM     24  C   UNL     1      -1.116  12.499  22.550  0.00  0.00    +0.000 C 
BRANCH  24  25
ATOM     25  N   UNL     1      -0.133  13.575  22.700  0.00  0.00    +0.000 NA
ATOM     26  H   UNL     1       0.707  13.197  23.201  0.00  0.00    +0.000 HD
BRANCH  25  27
ATOM     27  C   UNL     1       0.285  14.067  21.387  0.00  0.00    +0.000 C 
ATOM     28  C   UNL     1       1.772  13.803  21.184  0.00  0.00    +0.000 C 
ENDBRANCH  25  27
ENDBRANCH  24  25
ENDBRANCH  23  24
ENDBRANCH  22  23
ENDBRANCH   9  22
TORSDOF 10
ENDMDL
MODEL 9
REMARK VINA RESULT:      -6.6      2.259      3.282
REMARK  Name = 
REMARK  12 active torsions:
REMARK  status: ('A' for Active; 'I' for Inactive)
REMARK    1  A    between atoms: C_1  and  C_2
REMARK    2  A    between atoms: C_2  and  N_3
REMARK    3  A    between atoms: N_3  and  C_4
REMARK    4  A    between atoms: C_4  and  C_5
REMARK    5  A    between atoms: C_5  and  O_6
REMARK    6  A    between atoms: O_6  and  C_7
REMARK    7  A    between atoms: C_15  and  O_16
REMARK    8  A    between atoms: O_16  and  C_17
REMARK    9  A    between atoms: C_17  and  C_18
REMARK   10  A    between atoms: C_18  and  N_19
REMARK   11  A    between atoms: N_19  and  C_20
REMARK   12  A    between atoms: C_20  and  C_21
REMARK                            x       y       z     vdW  Elec       q    Type
REMARK                         _______ _______ _______ _____ _____    ______ ____
ROOT
ATOM      1  C   UNL     1       4.338   5.582  17.327  0.00  0.00    +0.000 A 
ATOM      2  C   UNL     1       4.162   4.879  18.536  0.00  0.00    +0.000 A 
ATOM      3  C   UNL     1       3.351   5.395  19.534  0.00  0.00    +0.000 A 
ATOM      4  C   UNL     1       2.718   6.627  19.347  0.00  0.00    +0.000 A 
ATOM      5  C   UNL     1       1.917   7.175  20.345  0.00  0.00    +0.000 A 
ATOM      6  C   UNL     1       1.314   8.413  20.138  0.00  0.00    +0.000 A 
ATOM      7  C   UNL     1       0.527   8.991  21.131  0.00  0.00    +0.000 A 
ATOM      8  C   UNL     1      -0.053  10.237  20.915  0.00  0.00    +0.000 A 
ATOM      9  C   UNL     1       0.143  10.919  19.694  0.00  0.00    +0.000 A 
ATOM     10  C   UNL     1       0.925  10.331  18.695  0.00  0.00    +0.000 A 
ATOM     11  C   UNL     1       1.515   9.088  18.912  0.00  0.00    +0.000 A 
ATOM     12  N   UNL     1       2.290   8.532  17.949  0.00  0.00    +0.000 NA
ATOM     13  C   UNL     1       2.893   7.333  18.138  0.00  0.00    +0.000 A 
ATOM     14  C   UNL     1       3.703   6.805  17.133  0.00  0.00    +0.000 A 
ENDROOT
BRANCH   1  15
ATOM     15  O   UNL     1       5.128   5.117  16.339  0.00  0.00    +0.000 OA
BRANCH  15  16
ATOM     16  C   UNL     1       6.052   4.120  16.511  0.00  0.00    +0.000 C 
BRANCH  16  17
ATOM     17  C   UNL     1       7.383   4.736  16.845  0.00  0.00    +0.000 C 
BRANCH  17  18
ATOM     18  N   UNL     1       7.368   6.134  16.415  0.00  0.00    +0.000 NA
ATOM     19  H   UNL     1       8.070   6.283  15.652  0.00  0.00    +0.000 HD
BRANCH  18  21
ATOM     20  C   UNL     1       7.858   6.351  18.847  0.00  0.00    +0.000 C 
ATOM     21  C   UNL     1       7.643   7.064  17.508  0.00  0.00    +0.000 C 
ENDBRANCH  18  21
ENDBRANCH  17  18
ENDBRANCH  16  17
ENDBRANCH  15  16
ENDBRANCH   1  15
BRANCH   9  22
ATOM     22  O   UNL     1      -0.396  12.137  19.455  0.00  0.00    +0.000 OA
BRANCH  22  23
ATOM     23  C   UNL     1      -1.042  12.484  18.289  0.00  0.00    +0.000 C 
BRANCH  23  24
ATOM     24  C   UNL     1      -2.013  11.388  17.892  0.00  0.00    +0.000 C 
BRANCH  24  25
ATOM     25  N   UNL     1      -3.332  11.962  17.612  0.00  0.00    +0.000 NA
ATOM     26  H   UNL     1      -3.215  12.977  17.375  0.00  0.00    +0.000 HD
BRANCH  25  27
ATOM     27  C   UNL     1      -3.951  11.282  16.473  0.00  0.00    +0.000 C 
ATOM     28  C   UNL     1      -2.874  10.799  15.511  0.00  0.00    +0.000 C 
ENDBRANCH  25  27
ENDBRANCH  24  25
ENDBRANCH  23  24
ENDBRANCH  22  23
ENDBRANCH   9  22
TORSDOF 10
ENDMDL
