MODEL 1
REMARK VINA RESULT:      -6.9      0.000      0.000
REMARK  Name = 
REMARK  8 active torsions:
REMARK  status: ('A' for Active; 'I' for Inactive)
REMARK    1  A    between atoms: C_1  and  O_2
REMARK    2  A    between atoms: O_2  and  C_3
REMARK    3  A    between atoms: C_6  and  C_7
REMARK    4  A    between atoms: C_12  and  C_14
REMARK    5  A    between atoms: C_14  and  C_15
REMARK    6  A    between atoms: C_14  and  C_16
REMARK    7  A    between atoms: C_18  and  O_19
REMARK    8  A    between atoms: O_19  and  C_20
REMARK                            x       y       z     vdW  Elec       q    Type
REMARK                         _______ _______ _______ _____ _____    ______ ____
ROOT
ATOM      1  C   UNL     1       3.147   5.917  18.863  0.00  0.00    +0.000 A 
ATOM      2  N   UNL     1       2.734   5.166  19.868  0.00  0.00    +0.000 NA
ATOM      3  N   UNL     1       1.917   5.859  20.748  0.00  0.00    +0.000 NA
ATOM      4  C   UNL     1       1.716   7.100  20.365  0.00  0.00    +0.000 A 
ATOM      5  N   UNL     1       0.933   7.982  21.075  0.00  0.00    +0.000 N 
ATOM      6  C   UNL     1       0.582   9.256  20.680  0.00  0.00    +0.000 C 
ATOM      7  O   UNL     1       0.896   9.795  19.624  0.00  0.00    +0.000 OA
ATOM      8  S   UNL     1       2.537   7.527  18.937  0.00  0.00    +0.000 S 
ATOM      9  H   UNL     1       0.547   7.587  21.920  0.00  0.00    +0.000 HD
ENDROOT
BRANCH   1  13
ATOM     10  C   UNL     1       5.631   4.771  15.539  0.00  0.00    +0.000 A 
ATOM     11  C   UNL     1       5.394   6.113  15.820  0.00  0.00    +0.000 A 
ATOM     12  C   UNL     1       4.602   6.476  16.912  0.00  0.00    +0.000 A 
ATOM     13  C   UNL     1       4.018   5.502  17.747  0.00  0.00    +0.000 A 
ATOM     14  C   UNL     1       4.278   4.145  17.470  0.00  0.00    +0.000 A 
ATOM     15  C   UNL     1       5.081   3.796  16.369  0.00  0.00    +0.000 A 
BRANCH  10  17
ATOM     16  C   UNL     1       5.813   3.805  13.374  0.00  0.00    +0.000 C 
ATOM     17  O   UNL     1       6.408   4.543  14.436  0.00  0.00    +0.000 OA
ENDBRANCH  10  17
BRANCH  14  18
ATOM     18  O   UNL     1       3.694   3.219  18.297  0.00  0.00    +0.000 OA
ATOM     19  C   UNL     1       2.821   2.259  17.712  0.00  0.00    +0.000 C 
ENDBRANCH  14  18
ENDBRANCH   1  13
BRANCH   6  20
ATOM     20  C   UNL     1      -0.309   9.979  21.697  0.00  0.00    +0.000 C 
ATOM     21  C   UNL     1      -0.011   9.519  23.123  0.00  0.00    +0.000 C 
ATOM     22  C   UNL     1      -0.116  11.493  21.589  0.00  0.00    +0.000 C 
ENDBRANCH   6  20
TORSDOF 4
ENDMDL
MODEL 2
REMARK VINA RESULT:      -6.8      1.716      2.357
REMARK  Name = 
REMARK  8 active torsions:
REMARK  status: ('A' for Active; 'I' for Inactive)
REMARK    1  A    between atoms: C_1  and  O_2
REMARK    2  A    between atoms: O_2  and  C_3
REMARK    3  A    between atoms: C_6  and  C_7
REMARK    4  A    between atoms: C_12  and  C_14
REMARK    5  A    between atoms: C_14  and  C_15
REMARK    6  A    between atoms: C_14  and  C_16
REMARK    7  A    between atoms: C_18  and  O_19
REMARK    8  A    between atoms: O_19  and  C_20
REMARK                            x       y       z     vdW  Elec       q    Type
REMARK                         _______ _______ _______ _____ _____    ______ ____
ROOT
ATOM      1  C   UNL     1       4.278   5.607  17.985  0.00  0.00    +0.000 A 
ATOM      2  N   UNL     1       4.152   4.848  19.060  0.00  0.00    +0.000 NA
ATOM      3  N   UNL     1       3.315   5.411  20.012  0.00  0.00    +0.000 NA
ATOM      4  C   UNL     1       2.816   6.560  19.615  0.00  0.00    +0.000 A 
ATOM      5  N   UNL     1       1.953   7.305  20.388  0.00  0.00    +0.000 N 
ATOM      6  C   UNL     1       1.299   8.455  19.998  0.00  0.00    +0.000 C 
ATOM      7  O   UNL     1       1.368   8.982  18.893  0.00  0.00    +0.000 OA
ATOM      8  S   UNL     1       3.356   7.060  18.081  0.00  0.00    +0.000 S 
ATOM      9  H   UNL     1       1.759   6.890  21.289  0.00  0.00    +0.000 HD
ENDROOT
BRANCH   1  13
ATOM     10  C   UNL     1       6.596   4.641  14.489  0.00  0.00    +0.000 A 
ATOM     11  C   UNL     1       5.299   4.160  14.637  0.00  0.00    +0.000 A 
ATOM     12  C   UNL     1       4.547   4.494  15.766  0.00  0.00    +0.000 A 
ATOM     13  C   UNL     1       5.080   5.312  16.783  0.00  0.00    +0.000 A 
ATOM     14  C   UNL     1       6.387   5.813  16.618  0.00  0.00    +0.000 A 
ATOM     15  C   UNL     1       7.129   5.471  15.474  0.00  0.00    +0.000 A 
BRANCH  10  17
ATOM     16  C   UNL     1       6.443   3.561  12.376  0.00  0.00    +0.000 C 
ATOM     17  O   UNL     1       7.234   4.232  13.351  0.00  0.00    +0.000 OA
ENDBRANCH  10  17
BRANCH  14  18
ATOM     18  O   UNL     1       6.881   6.604  17.625  0.00  0.00    +0.000 OA
ATOM     19  C   UNL     1       7.714   5.994  18.604  0.00  0.00    +0.000 C 
ENDBRANCH  14  18
ENDBRANCH   1  13
BRANCH   6  20
ATOM     20  C   UNL     1       0.401   9.040  21.095  0.00  0.00    +0.000 C 
ATOM     21  C   UNL     1       1.158   9.187  22.413  0.00  0.00    +0.000 C 
ATOM     22  C   UNL     1      -0.150  10.399  20.659  0.00  0.00    +0.000 C 
ENDBRANCH   6  20
TORSDOF 4
ENDMDL
MODEL 3
REMARK VINA RESULT:      -6.7      1.078      1.367
REMARK  Name = 
REMARK  8 active torsions:
REMARK  status: ('A' for Active; 'I' for Inactive)
REMARK    1  A    between atoms: C_1  and  O_2
REMARK    2  A    between atoms: O_2  and  C_3
REMARK    3  A    between atoms: C_6  and  C_7
REMARK    4  A    between atoms: C_12  and  C_14
REMARK    5  A    between atoms: C_14  and  C_15
REMARK    6  A    between atoms: C_14  and  C_16
REMARK    7  A    between atoms: C_18  and  O_19
REMARK    8  A    between atoms: O_19  and  C_20
REMARK                            x       y       z     vdW  Elec       q    Type
REMARK                         _______ _______ _______ _____ _____    ______ ____
ROOT
ATOM      1  C   UNL     1       3.240   6.404  18.454  0.00  0.00    +0.000 A 
ATOM      2  N   UNL     1       2.869   5.986  19.651  0.00  0.00    +0.000 NA
ATOM      3  N   UNL     1       2.074   6.910  20.314  0.00  0.00    +0.000 NA
ATOM      4  C   UNL     1       1.848   7.980  19.585  0.00  0.00    +0.000 A 
ATOM      5  N   UNL     1       1.079   9.034  20.028  0.00  0.00    +0.000 N 
ATOM      6  C   UNL     1       0.701  10.132  19.284  0.00  0.00    +0.000 C 
ATOM      7  O   UNL     1       0.974  10.332  18.106  0.00  0.00    +0.000 OA
ATOM      8  S   UNL     1       2.615   7.963  18.067  0.00  0.00    +0.000 S 
ATOM      9  H   UNL     1       0.725   8.908  20.966  0.00  0.00    +0.000 HD
ENDROOT
BRANCH   1  13
ATOM     10  C   UNL     1       5.646   4.344  15.539  0.00  0.00    +0.000 A 
ATOM     11  C   UNL     1       5.676   5.732  15.632  0.00  0.00    +0.000 A 
ATOM     12  C   UNL     1       4.907   6.391  16.594  0.00  0.00    +0.000 A 
ATOM     13  C   UNL     1       4.077   5.676  17.482  0.00  0.00    +0.000 A 
ATOM     14  C   UNL     1       4.067   4.269  17.396  0.00  0.00    +0.000 A 
ATOM     15  C   UNL     1       4.850   3.621  16.425  0.00  0.00    +0.000 A 
BRANCH  10  17
ATOM     16  C   UNL     1       5.879   3.799  13.236  0.00  0.00    +0.000 C 
ATOM     17  O   UNL     1       6.429   3.818  14.549  0.00  0.00    +0.000 OA
ENDBRANCH  10  17
BRANCH  14  18
ATOM     18  O   UNL     1       3.247   3.600  18.270  0.00  0.00    +0.000 OA
ATOM     19  C   UNL     1       3.259   2.177  18.239  0.00  0.00    +0.000 C 
ENDBRANCH  14  18
ENDBRANCH   1  13
BRANCH   6  20
ATOM     20  C   UNL     1      -0.163  11.126  20.071  0.00  0.00    +0.000 C 
ATOM     21  C   UNL     1      -1.498  11.375  19.372  0.00  0.00    +0.000 C 
ATOM     22  C   UNL     1      -0.407  10.608  21.490  0.00  0.00    +0.000 C 
ENDBRANCH   6  20
TORSDOF 4
ENDMDL
MODEL 4
REMARK VINA RESULT:      -6.7      1.369      1.726
REMARK  Name = 
REMARK  8 active torsions:
REMARK  status: ('A' for Active; 'I' for Inactive)
REMARK    1  A    between atoms: C_1  and  O_2
REMARK    2  A    between atoms: O_2  and  C_3
REMARK    3  A    between atoms: C_6  and  C_7
REMARK    4  A    between atoms: C_12  and  C_14
REMARK    5  A    between atoms: C_14  and  C_15
REMARK    6  A    between atoms: C_14  and  C_16
REMARK    7  A    between atoms: C_18  and  O_19
REMARK    8  A    between atoms: O_19  and  C_20
REMARK                            x       y       z     vdW  Elec       q    Type
REMARK                         _______ _______ _______ _____ _____    ______ ____
ROOT
ATOM      1  C   UNL     1       2.671   6.642  19.058  0.00  0.00    +0.000 A 
ATOM      2  N   UNL     1       2.221   6.340  20.263  0.00  0.00    +0.000 NA
ATOM      3  N   UNL     1       1.488   7.371  20.831  0.00  0.00    +0.000 NA
ATOM      4  C   UNL     1       1.384   8.406  20.026  0.00  0.00    +0.000 A 
ATOM      5  N   UNL     1       0.697   9.549  20.367  0.00  0.00    +0.000 N 
ATOM      6  C   UNL     1       0.445  10.623  19.540  0.00  0.00    +0.000 C 
ATOM      7  O   UNL     1       0.777  10.719  18.363  0.00  0.00    +0.000 OA
ATOM      8  S   UNL     1       2.201   8.220  18.546  0.00  0.00    +0.000 S 
ATOM      9  H   UNL     1       0.300   9.518  21.296  0.00  0.00    +0.000 HD
ENDROOT
BRANCH   1  13
ATOM     10  C   UNL     1       5.034   4.213  16.404  0.00  0.00    +0.000 A 
ATOM     11  C   UNL     1       5.520   5.427  16.879  0.00  0.00    +0.000 A 
ATOM     12  C   UNL     1       4.755   6.200  17.755  0.00  0.00    +0.000 A 
ATOM     13  C   UNL     1       3.474   5.780  18.171  0.00  0.00    +0.000 A 
ATOM     14  C   UNL     1       2.995   4.540  17.703  0.00  0.00    +0.000 A 
ATOM     15  C   UNL     1       3.780   3.772  16.824  0.00  0.00    +0.000 A 
BRANCH  10  17
ATOM     16  C   UNL     1       6.340   4.294  14.419  0.00  0.00    +0.000 C 
ATOM     17  O   UNL     1       5.869   3.557  15.541  0.00  0.00    +0.000 OA
ENDBRANCH  10  17
BRANCH  14  18
ATOM     18  O   UNL     1       1.745   4.160  18.121  0.00  0.00    +0.000 OA
ATOM     19  C   UNL     1       1.528   2.784  18.411  0.00  0.00    +0.000 C 
ENDBRANCH  14  18
ENDBRANCH   1  13
BRANCH   6  20
ATOM     20  C   UNL     1      -0.355  11.738  20.224  0.00  0.00    +0.000 C 
ATOM     21  C   UNL     1      -1.722  11.925  19.568  0.00  0.00    +0.000 C 
ATOM     22  C   UNL     1      -0.532  11.428  21.712  0.00  0.00    +0.000 C 
ENDBRANCH   6  20
TORSDOF 4
ENDMDL
MODEL 5
REMARK VINA RESULT:      -6.6      1.547      1.951
REMARK  Name = 
REMARK  8 active torsions:
REMARK  status: ('A' for Active; 'I' for Inactive)
REMARK    1  A    between atoms: C_1  and  O_2
REMARK    2  A    between atoms: O_2  and  C_3
REMARK    3  A    between atoms: C_6  and  C_7
REMARK    4  A    between atoms: C_12  and  C_14
REMARK    5  A    between atoms: C_14  and  C_15
REMARK    6  A    between atoms: C_14  and  C_16
REMARK    7  A    between atoms: C_18  and  O_19
REMARK    8  A    between atoms: O_19  and  C_20
REMARK                            x       y       z     vdW  Elec       q    Type
REMARK                         _______ _______ _______ _____ _____    ______ ____
ROOT
ATOM      1  C   UNL     1       3.536   5.446  19.116  0.00  0.00    +0.000 A 
ATOM      2  N   UNL     1       3.100   4.668  20.090  0.00  0.00    +0.000 NA
ATOM      3  N   UNL     1       2.214   5.319  20.935  0.00  0.00    +0.000 NA
ATOM      4  C   UNL     1       1.989   6.558  20.556  0.00  0.00    +0.000 A 
ATOM      5  N   UNL     1       1.139   7.402  21.235  0.00  0.00    +0.000 N 
ATOM      6  C   UNL     1       0.762   8.668  20.838  0.00  0.00    +0.000 C 
ATOM      7  O   UNL     1       1.110   9.231  19.806  0.00  0.00    +0.000 OA
ATOM      8  S   UNL     1       2.864   7.033  19.177  0.00  0.00    +0.000 S 
ATOM      9  H   UNL     1       0.724   6.982  22.055  0.00  0.00    +0.000 HD
ENDROOT
BRANCH   1  13
ATOM     10  C   UNL     1       6.228   4.274  15.968  0.00  0.00    +0.000 A 
ATOM     11  C   UNL     1       4.850   4.185  15.795  0.00  0.00    +0.000 A 
ATOM     12  C   UNL     1       3.984   4.586  16.815  0.00  0.00    +0.000 A 
ATOM     13  C   UNL     1       4.476   5.077  18.041  0.00  0.00    +0.000 A 
ATOM     14  C   UNL     1       5.872   5.184  18.203  0.00  0.00    +0.000 A 
ATOM     15  C   UNL     1       6.731   4.780  17.166  0.00  0.00    +0.000 A 
BRANCH  10  17
ATOM     16  C   UNL     1       7.171   4.759  13.840  0.00  0.00    +0.000 C 
ATOM     17  O   UNL     1       6.970   3.837  14.906  0.00  0.00    +0.000 OA
ENDBRANCH  10  17
BRANCH  14  18
ATOM     18  O   UNL     1       6.322   5.662  19.408  0.00  0.00    +0.000 OA
ATOM     19  C   UNL     1       7.726   5.672  19.639  0.00  0.00    +0.000 C 
ENDBRANCH  14  18
ENDBRANCH   1  13
BRANCH   6  20
ATOM     20  C   UNL     1      -0.205   9.346  21.816  0.00  0.00    +0.000 C 
ATOM     21  C   UNL     1       0.374   9.389  23.229  0.00  0.00    +0.000 C 
ATOM     22  C   UNL     1      -0.529  10.764  21.344  0.00  0.00    +0.000 C 
ENDBRANCH   6  20
TORSDOF 4
ENDMDL
MODEL 6
REMARK VINA RESULT:      -6.6      2.102      2.374
REMARK  Name = 
REMARK  8 active torsions:
REMARK  status: ('A' for Active; 'I' for Inactive)
REMARK    1  A    between atoms: C_1  and  O_2
REMARK    2  A    between atoms: O_2  and  C_3
REMARK    3  A    between atoms: C_6  and  C_7
REMARK    4  A    between atoms: C_12  and  C_14
REMARK    5  A    between atoms: C_14  and  C_15
REMARK    6  A    between atoms: C_14  and  C_16
REMARK    7  A    between atoms: C_18  and  O_19
REMARK    8  A    between atoms: O_19  and  C_20
REMARK                            x       y       z     vdW  Elec       q    Type
REMARK                         _______ _______ _______ _____ _____    ______ ____
ROOT
ATOM      1  C   UNL     1       2.554   7.842  18.026  0.00  0.00    +0.000 A 
ATOM      2  N   UNL     1       2.097   8.818  17.262  0.00  0.00    +0.000 NA
ATOM      3  N   UNL     1       1.338   9.738  17.970  0.00  0.00    +0.000 NA
ATOM      4  C   UNL     1       1.270   9.442  19.250  0.00  0.00    +0.000 A 
ATOM      5  N   UNL     1       0.577  10.212  20.157  0.00  0.00    +0.000 N 
ATOM      6  C   UNL     1       0.556  10.035  21.524  0.00  0.00    +0.000 C 
ATOM      7  O   UNL     1       1.168   9.175  22.148  0.00  0.00    +0.000 OA
ATOM      8  S   UNL     1       2.083   8.010  19.676  0.00  0.00    +0.000 S 
ATOM      9  H   UNL     1       0.117  11.009  19.740  0.00  0.00    +0.000 HD
ENDROOT
BRANCH   1  13
ATOM     10  C   UNL     1       5.025   4.579  16.697  0.00  0.00    +0.000 A 
ATOM     11  C   UNL     1       5.452   5.896  16.557  0.00  0.00    +0.000 A 
ATOM     12  C   UNL     1       4.652   6.948  17.009  0.00  0.00    +0.000 A 
ATOM     13  C   UNL     1       3.396   6.708  17.604  0.00  0.00    +0.000 A 
ATOM     14  C   UNL     1       2.978   5.371  17.761  0.00  0.00    +0.000 A 
ATOM     15  C   UNL     1       3.797   4.323  17.304  0.00  0.00    +0.000 A 
BRANCH  10  17
ATOM     16  C   UNL     1       6.347   3.828  14.868  0.00  0.00    +0.000 C 
ATOM     17  O   UNL     1       5.888   3.639  16.202  0.00  0.00    +0.000 OA
ENDBRANCH  10  17
BRANCH  14  18
ATOM     18  O   UNL     1       1.751   5.168  18.339  0.00  0.00    +0.000 OA
ATOM     19  C   UNL     1       1.520   3.928  18.998  0.00  0.00    +0.000 C 
ENDBRANCH  14  18
ENDBRANCH   1  13
BRANCH   6  20
ATOM     20  C   UNL     1      -0.310  11.069  22.254  0.00  0.00    +0.000 C 
ATOM     21  C   UNL     1      -1.196  11.840  21.277  0.00  0.00    +0.000 C 
ATOM     22  C   UNL     1      -1.177  10.384  23.312  0.00  0.00    +0.000 C 
ENDBRANCH   6  20
TORSDOF 4
ENDMDL
MODEL 7
REMARK VINA RESULT:      -6.6      2.435      3.487
REMARK  Name = 
REMARK  8 active torsions:
REMARK  status: ('A' for Active; 'I' for Inactive)
REMARK    1  A    between atoms: C_1  and  O_2
REMARK    2  A    between atoms: O_2  and  C_3
REMARK    3  A    between atoms: C_6  and  C_7
REMARK    4  A    between atoms: C_12  and  C_14
REMARK    5  A    between atoms: C_14  and  C_15
REMARK    6  A    between atoms: C_14  and  C_16
REMARK    7  A    between atoms: C_18  and  O_19
REMARK    8  A    between atoms: O_19  and  C_20
REMARK                            x       y       z     vdW  Elec       q    Type
REMARK                         _______ _______ _______ _____ _____    ______ ____
ROOT
ATOM      1  C   UNL     1       2.280   7.738  18.175  0.00  0.00    +0.000 A 
ATOM      2  N   UNL     1       2.345   8.759  17.339  0.00  0.00    +0.000 NA
ATOM      3  N   UNL     1       1.802   9.918  17.872  0.00  0.00    +0.000 NA
ATOM      4  C   UNL     1       1.369   9.742  19.101  0.00  0.00    +0.000 A 
ATOM      5  N   UNL     1       0.794  10.751  19.840  0.00  0.00    +0.000 N 
ATOM      6  C   UNL     1       0.424  10.678  21.167  0.00  0.00    +0.000 C 
ATOM      7  O   UNL     1       0.570   9.707  21.901  0.00  0.00    +0.000 OA
ATOM      8  S   UNL     1       1.551   8.153  19.681  0.00  0.00    +0.000 S 
ATOM      9  H   UNL     1       0.723  11.627  19.340  0.00  0.00    +0.000 HD
ENDROOT
BRANCH   1  13
ATOM     10  C   UNL     1       3.658   3.705  17.576  0.00  0.00    +0.000 A 
ATOM     11  C   UNL     1       2.330   3.961  17.901  0.00  0.00    +0.000 A 
ATOM     12  C   UNL     1       1.887   5.274  18.074  0.00  0.00    +0.000 A 
ATOM     13  C   UNL     1       2.768   6.367  17.937  0.00  0.00    +0.000 A 
ATOM     14  C   UNL     1       4.107   6.102  17.588  0.00  0.00    +0.000 A 
ATOM     15  C   UNL     1       4.537   4.775  17.413  0.00  0.00    +0.000 A 
BRANCH  10  17
ATOM     16  C   UNL     1       3.520   1.509  18.479  0.00  0.00    +0.000 C 
ATOM     17  O   UNL     1       3.974   2.380  17.449  0.00  0.00    +0.000 OA
ENDBRANCH  10  17
BRANCH  14  18
ATOM     18  O   UNL     1       4.942   7.185  17.465  0.00  0.00    +0.000 OA
ATOM     19  C   UNL     1       6.313   6.940  17.173  0.00  0.00    +0.000 C 
ENDBRANCH  14  18
ENDBRANCH   1  13
BRANCH   6  20
ATOM     20  C   UNL     1      -0.184  11.982  21.698  0.00  0.00    +0.000 C 
ATOM     21  C   UNL     1      -0.944  12.726  20.602  0.00  0.00    +0.000 C 
ATOM     22  C   UNL     1      -1.119  11.690  22.873  0.00  0.00    +0.000 C 
ENDBRANCH   6  20
TORSDOF 4
ENDMDL
MODEL 8
REMARK VINA RESULT:      -6.6      2.947      8.121
REMARK  Name = 
REMARK  8 active torsions:
REMARK  status: ('A' for Active; 'I' for Inactive)
REMARK    1  A    between atoms: C_1  and  O_2
REMARK    2  A    between atoms: O_2  and  C_3
REMARK    3  A    between atoms: C_6  and  C_7
REMARK    4  A    between atoms: C_12  and  C_14
REMARK    5  A    between atoms: C_14  and  C_15
REMARK    6  A    between atoms: C_14  and  C_16
REMARK    7  A    between atoms: C_18  and  O_19
REMARK    8  A    between atoms: O_19  and  C_20
REMARK                            x       y       z     vdW  Elec       q    Type
REMARK                         _______ _______ _______ _____ _____    ______ ____
ROOT
ATOM      1  C   UNL     1       5.183   5.849  17.224  0.00  0.00    +0.000 A 
ATOM      2  N   UNL     1       6.413   6.332  17.230  0.00  0.00    +0.000 NA
ATOM      3  N   UNL     1       7.157   5.905  16.140  0.00  0.00    +0.000 NA
ATOM      4  C   UNL     1       6.458   5.137  15.334  0.00  0.00    +0.000 A 
ATOM      5  N   UNL     1       6.982   4.596  14.181  0.00  0.00    +0.000 N 
ATOM      6  C   UNL     1       6.284   3.882  13.229  0.00  0.00    +0.000 C 
ATOM      7  O   UNL     1       5.084   3.635  13.252  0.00  0.00    +0.000 OA
ATOM      8  S   UNL     1       4.867   4.844  15.859  0.00  0.00    +0.000 S 
ATOM      9  H   UNL     1       7.952   4.834  14.029  0.00  0.00    +0.000 HD
ENDROOT
BRANCH   1  13
ATOM     10  C   UNL     1       2.134   6.696  20.142  0.00  0.00    +0.000 A 
ATOM     11  C   UNL     1       2.314   7.526  19.040  0.00  0.00    +0.000 A 
ATOM     12  C   UNL     1       3.293   7.233  18.088  0.00  0.00    +0.000 A 
ATOM     13  C   UNL     1       4.127   6.104  18.221  0.00  0.00    +0.000 A 
ATOM     14  C   UNL     1       3.926   5.255  19.328  0.00  0.00    +0.000 A 
ATOM     15  C   UNL     1       2.934   5.562  20.275  0.00  0.00    +0.000 A 
BRANCH  10  17
ATOM     16  C   UNL     1       1.070   8.491  21.282  0.00  0.00    +0.000 C 
ATOM     17  O   UNL     1       1.157   7.096  21.011  0.00  0.00    +0.000 OA
ENDBRANCH  10  17
BRANCH  14  18
ATOM     18  O   UNL     1       4.755   4.166  19.433  0.00  0.00    +0.000 OA
ATOM     19  C   UNL     1       4.162   2.873  19.413  0.00  0.00    +0.000 C 
ENDBRANCH  14  18
ENDBRANCH   1  13
BRANCH   6  20
ATOM     20  C   UNL     1       7.160   3.423  12.057  0.00  0.00    +0.000 C 
ATOM     21  C   UNL     1       6.551   2.215  11.348  0.00  0.00    +0.000 C 
ATOM     22  C   UNL     1       7.353   4.567  11.060  0.00  0.00    +0.000 C 
ENDBRANCH   6  20
TORSDOF 4
ENDMDL
MODEL 9
REMARK VINA RESULT:      -6.5      3.830      8.080
REMARK  Name = 
REMARK  8 active torsions:
REMARK  status: ('A' for Active; 'I' for Inactive)
REMARK    1  A    between atoms: C_1  and  O_2
REMARK    2  A    between atoms: O_2  and  C_3
REMARK    3  A    between atoms: C_6  and  C_7
REMARK    4  A    between atoms: C_12  and  C_14
REMARK    5  A    between atoms: C_14  and  C_15
REMARK    6  A    between atoms: C_14  and  C_16
REMARK    7  A    between atoms: C_18  and  O_19
REMARK    8  A    between atoms: O_19  and  C_20
REMARK                            x       y       z     vdW  Elec       q    Type
REMARK                         _______ _______ _______ _____ _____    ______ ____
ROOT
ATOM      1  C   UNL     1       5.518   4.349  18.287  0.00  0.00    +0.000 A 
ATOM      2  N   UNL     1       6.753   4.742  18.543  0.00  0.00    +0.000 NA
ATOM      3  N   UNL     1       7.532   4.829  17.399  0.00  0.00    +0.000 NA
ATOM      4  C   UNL     1       6.854   4.526  16.315  0.00  0.00    +0.000 A 
ATOM      5  N   UNL     1       7.412   4.546  15.056  0.00  0.00    +0.000 N 
ATOM      6  C   UNL     1       6.741   4.356  13.866  0.00  0.00    +0.000 C 
ATOM      7  O   UNL     1       5.537   4.160  13.742  0.00  0.00    +0.000 OA
ATOM      8  S   UNL     1       5.240   4.074  16.608  0.00  0.00    +0.000 S 
ATOM      9  H   UNL     1       8.391   4.799  15.054  0.00  0.00    +0.000 HD
ENDROOT
BRANCH   1  13
ATOM     10  C   UNL     1       2.308   3.702  21.080  0.00  0.00    +0.000 A 
ATOM     11  C   UNL     1       3.181   2.671  20.750  0.00  0.00    +0.000 A 
ATOM     12  C   UNL     1       4.232   2.895  19.858  0.00  0.00    +0.000 A 
ATOM     13  C   UNL     1       4.429   4.158  19.262  0.00  0.00    +0.000 A 
ATOM     14  C   UNL     1       3.554   5.204  19.616  0.00  0.00    +0.000 A 
ATOM     15  C   UNL     1       2.503   4.963  20.519  0.00  0.00    +0.000 A 
BRANCH  10  17
ATOM     16  C   UNL     1       1.269   1.996  22.370  0.00  0.00    +0.000 C 
ATOM     17  O   UNL     1       1.312   3.356  21.951  0.00  0.00    +0.000 OA
ENDBRANCH  10  17
BRANCH  14  18
ATOM     18  O   UNL     1       3.767   6.421  19.018  0.00  0.00    +0.000 OA
ATOM     19  C   UNL     1       2.672   7.038  18.352  0.00  0.00    +0.000 C 
ENDBRANCH  14  18
ENDBRANCH   1  13
BRANCH   6  20
ATOM     20  C   UNL     1       7.654   4.448  12.637  0.00  0.00    +0.000 C 
ATOM     21  C   UNL     1       6.938   3.966  11.377  0.00  0.00    +0.000 C 
ATOM     22  C   UNL     1       8.137   5.887  12.442  0.00  0.00    +0.000 C 
ENDBRANCH   6  20
TORSDOF 4
ENDMDL
