MODEL 1
REMARK VINA RESULT:      -7.7      0.000      0.000
REMARK  Name = 
REMARK  4 active torsions:
REMARK  status: ('A' for Active; 'I' for Inactive)
REMARK    1  A    between atoms: C_1  and  O_2
REMARK    2  A    between atoms: O_2  and  C_3
REMARK    3  A    between atoms: C_8  and  C_9
REMARK    4  A    between atoms: N_15  and  C_16
REMARK                            x       y       z     vdW  Elec       q    Type
REMARK                         _______ _______ _______ _____ _____    ______ ____
ROOT
ATOM      1  C   UNL     1       3.790   3.780  18.500  0.00  0.00    +0.000 A 
ATOM      2  C   UNL     1       3.432   2.444  18.681  0.00  0.00    +0.000 A 
ATOM      3 CL   UNL     1       4.250   1.053  18.118  0.00  0.00    +0.000 Cl
ATOM      4  N   UNL     1       2.271   2.311  19.380  0.00  0.00    +0.000 NA
ATOM      5  C   UNL     1       1.891   3.537  19.621  0.00  0.00    +0.000 A 
ATOM      6 CL   UNL     1       0.614   3.885  20.706  0.00  0.00    +0.000 Cl
ATOM      7  N   UNL     1       2.718   4.503  19.073  0.00  0.00    +0.000 N 
ENDROOT
BRANCH   1  13
ATOM      8  C   UNL     1       6.139   4.949  15.722  0.00  0.00    +0.000 A 
ATOM      9  C   UNL     1       7.198   5.472  16.462  0.00  0.00    +0.000 A 
ATOM     10  C   UNL     1       7.164   5.394  17.854  0.00  0.00    +0.000 A 
ATOM     11  C   UNL     1       6.054   4.848  18.498  0.00  0.00    +0.000 A 
ATOM     12  F   UNL     1       6.039   4.883  19.839  0.00  0.00    +0.000 F 
ATOM     13  C   UNL     1       4.970   4.315  17.787  0.00  0.00    +0.000 A 
ATOM     14  C   UNL     1       5.068   4.331  16.389  0.00  0.00    +0.000 A 
ATOM     15  F   UNL     1       4.097   3.762  15.653  0.00  0.00    +0.000 F 
BRANCH   8  17
ATOM     16  C   UNL     1       6.655   4.073  13.569  0.00  0.00    +0.000 C 
ATOM     17  O   UNL     1       6.002   5.055  14.363  0.00  0.00    +0.000 OA
ENDBRANCH   8  17
ENDBRANCH   1  13
BRANCH   7  18
ATOM     18  C   UNL     1       2.499   5.922  19.077  0.00  0.00    +0.000 A 
ATOM     19  C   UNL     1       2.584   6.672  17.898  0.00  0.00    +0.000 A 
ATOM     20  C   UNL     1       2.210   8.021  17.890  0.00  0.00    +0.000 A 
ATOM     21  C   UNL     1       1.801   8.638  19.070  0.00  0.00    +0.000 A 
ATOM     22 CL   UNL     1       1.316  10.292  19.047  0.00  0.00    +0.000 Cl
ATOM     23  C   UNL     1       1.770   7.925  20.259  0.00  0.00    +0.000 A 
ATOM     24  C   UNL     1       2.102   6.568  20.259  0.00  0.00    +0.000 A 
ENDBRANCH   7  18
TORSDOF 3
ENDMDL
MODEL 2
REMARK VINA RESULT:      -7.7      1.165      2.342
REMARK  Name = 
REMARK  4 active torsions:
REMARK  status: ('A' for Active; 'I' for Inactive)
REMARK    1  A    between atoms: C_1  and  O_2
REMARK    2  A    between atoms: O_2  and  C_3
REMARK    3  A    between atoms: C_8  and  C_9
REMARK    4  A    between atoms: N_15  and  C_16
REMARK                            x       y       z     vdW  Elec       q    Type
REMARK                         _______ _______ _______ _____ _____    ______ ____
ROOT
ATOM      1  C   UNL     1       3.734   4.005  18.388  0.00  0.00    +0.000 A 
ATOM      2  C   UNL     1       3.388   2.659  18.514  0.00  0.00    +0.000 A 
ATOM      3 CL   UNL     1       4.226   1.299  17.908  0.00  0.00    +0.000 Cl
ATOM      4  N   UNL     1       2.221   2.488  19.193  0.00  0.00    +0.000 NA
ATOM      5  C   UNL     1       1.825   3.699  19.477  0.00  0.00    +0.000 A 
ATOM      6 CL   UNL     1       0.533   3.992  20.560  0.00  0.00    +0.000 Cl
ATOM      7  N   UNL     1       2.648   4.694  18.976  0.00  0.00    +0.000 N 
ENDROOT
BRANCH   1  13
ATOM      8  C   UNL     1       7.061   5.774  17.759  0.00  0.00    +0.000 A 
ATOM      9  C   UNL     1       7.237   5.547  16.395  0.00  0.00    +0.000 A 
ATOM     10  C   UNL     1       6.250   4.869  15.681  0.00  0.00    +0.000 A 
ATOM     11  C   UNL     1       5.126   4.372  16.340  0.00  0.00    +0.000 A 
ATOM     12  F   UNL     1       4.256   3.649  15.619  0.00  0.00    +0.000 F 
ATOM     13  C   UNL     1       4.916   4.578  17.711  0.00  0.00    +0.000 A 
ATOM     14  C   UNL     1       5.883   5.337  18.386  0.00  0.00    +0.000 A 
ATOM     15  F   UNL     1       5.698   5.636  19.683  0.00  0.00    +0.000 F 
BRANCH   8  17
ATOM     16  C   UNL     1       8.258   7.721  18.427  0.00  0.00    +0.000 C 
ATOM     17  O   UNL     1       7.996   6.334  18.590  0.00  0.00    +0.000 OA
ENDBRANCH   8  17
ENDBRANCH   1  13
BRANCH   7  18
ATOM     18  C   UNL     1       2.414   6.109  19.032  0.00  0.00    +0.000 A 
ATOM     19  C   UNL     1       2.429   6.893  17.872  0.00  0.00    +0.000 A 
ATOM     20  C   UNL     1       2.041   8.237  17.923  0.00  0.00    +0.000 A 
ATOM     21  C   UNL     1       1.687   8.816  19.139  0.00  0.00    +0.000 A 
ATOM     22 CL   UNL     1       1.183  10.464  19.189  0.00  0.00    +0.000 Cl
ATOM     23  C   UNL     1       1.725   8.070  20.307  0.00  0.00    +0.000 A 
ATOM     24  C   UNL     1       2.072   6.718  20.251  0.00  0.00    +0.000 A 
ENDBRANCH   7  18
TORSDOF 3
ENDMDL
MODEL 3
REMARK VINA RESULT:      -7.3      3.012      5.350
REMARK  Name = 
REMARK  4 active torsions:
REMARK  status: ('A' for Active; 'I' for Inactive)
REMARK    1  A    between atoms: C_1  and  O_2
REMARK    2  A    between atoms: O_2  and  C_3
REMARK    3  A    between atoms: C_8  and  C_9
REMARK    4  A    between atoms: N_15  and  C_16
REMARK                            x       y       z     vdW  Elec       q    Type
REMARK                         _______ _______ _______ _____ _____    ______ ____
ROOT
ATOM      1  C   UNL     1       3.357   5.098  17.955  0.00  0.00    +0.000 A 
ATOM      2  C   UNL     1       2.745   3.896  17.602  0.00  0.00    +0.000 A 
ATOM      3 CL   UNL     1       1.165   3.370  17.987  0.00  0.00    +0.000 Cl
ATOM      4  N   UNL     1       3.572   3.086  16.886  0.00  0.00    +0.000 NA
ATOM      5  C   UNL     1       4.692   3.753  16.801  0.00  0.00    +0.000 A 
ATOM      6 CL   UNL     1       5.957   3.256  15.762  0.00  0.00    +0.000 Cl
ATOM      7  N   UNL     1       4.679   4.964  17.472  0.00  0.00    +0.000 N 
ENDROOT
BRANCH   1  13
ATOM      8  C   UNL     1       1.913   8.505  18.906  0.00  0.00    +0.000 A 
ATOM      9  C   UNL     1       1.555   8.288  20.236  0.00  0.00    +0.000 A 
ATOM     10  C   UNL     1       1.832   7.056  20.826  0.00  0.00    +0.000 A 
ATOM     11  C   UNL     1       2.411   6.033  20.075  0.00  0.00    +0.000 A 
ATOM     12  F   UNL     1       2.569   4.842  20.671  0.00  0.00    +0.000 F 
ATOM     13  C   UNL     1       2.783   6.214  18.736  0.00  0.00    +0.000 A 
ATOM     14  C   UNL     1       2.569   7.489  18.193  0.00  0.00    +0.000 A 
ATOM     15  F   UNL     1       2.978   7.748  16.938  0.00  0.00    +0.000 F 
BRANCH   8  17
ATOM     16  C   UNL     1       0.474  10.377  18.601  0.00  0.00    +0.000 C 
ATOM     17  O   UNL     1       1.606   9.628  18.183  0.00  0.00    +0.000 OA
ENDBRANCH   8  17
ENDBRANCH   1  13
BRANCH   7  18
ATOM     18  C   UNL     1       5.789   5.858  17.648  0.00  0.00    +0.000 A 
ATOM     19  C   UNL     1       5.907   7.026  16.885  0.00  0.00    +0.000 A 
ATOM     20  C   UNL     1       6.904   7.964  17.178  0.00  0.00    +0.000 A 
ATOM     21  C   UNL     1       7.817   7.715  18.200  0.00  0.00    +0.000 A 
ATOM     22 CL   UNL     1       9.024   8.887  18.574  0.00  0.00    +0.000 Cl
ATOM     23  C   UNL     1       7.752   6.535  18.926  0.00  0.00    +0.000 A 
ATOM     24  C   UNL     1       6.732   5.618  18.661  0.00  0.00    +0.000 A 
ENDBRANCH   7  18
TORSDOF 3
ENDMDL
MODEL 4
REMARK VINA RESULT:      -7.3      0.376      1.053
REMARK  Name = 
REMARK  4 active torsions:
REMARK  status: ('A' for Active; 'I' for Inactive)
REMARK    1  A    between atoms: C_1  and  O_2
REMARK    2  A    between atoms: O_2  and  C_3
REMARK    3  A    between atoms: C_8  and  C_9
REMARK    4  A    between atoms: N_15  and  C_16
REMARK                            x       y       z     vdW  Elec       q    Type
REMARK                         _______ _______ _______ _____ _____    ______ ____
ROOT
ATOM      1  C   UNL     1       3.796   3.867  18.445  0.00  0.00    +0.000 A 
ATOM      2  C   UNL     1       3.553   2.497  18.532  0.00  0.00    +0.000 A 
ATOM      3 CL   UNL     1       4.538   1.219  17.968  0.00  0.00    +0.000 Cl
ATOM      4  N   UNL     1       2.362   2.220  19.130  0.00  0.00    +0.000 NA
ATOM      5  C   UNL     1       1.851   3.391  19.400  0.00  0.00    +0.000 A 
ATOM      6 CL   UNL     1       0.471   3.561  20.398  0.00  0.00    +0.000 Cl
ATOM      7  N   UNL     1       2.622   4.457  18.967  0.00  0.00    +0.000 N 
ENDROOT
BRANCH   1  13
ATOM      8  C   UNL     1       6.239   5.365  15.918  0.00  0.00    +0.000 A 
ATOM      9  C   UNL     1       7.167   5.973  16.763  0.00  0.00    +0.000 A 
ATOM     10  C   UNL     1       7.020   5.846  18.144  0.00  0.00    +0.000 A 
ATOM     11  C   UNL     1       5.923   5.167  18.672  0.00  0.00    +0.000 A 
ATOM     12  F   UNL     1       5.787   5.157  20.007  0.00  0.00    +0.000 F 
ATOM     13  C   UNL     1       4.969   4.546  17.855  0.00  0.00    +0.000 A 
ATOM     14  C   UNL     1       5.187   4.617  16.471  0.00  0.00    +0.000 A 
ATOM     15  F   UNL     1       4.351   3.973  15.638  0.00  0.00    +0.000 F 
BRANCH   8  17
ATOM     16  C   UNL     1       7.148   4.732  13.811  0.00  0.00    +0.000 C 
ATOM     17  O   UNL     1       6.212   5.499  14.555  0.00  0.00    +0.000 OA
ENDBRANCH   8  17
ENDBRANCH   1  13
BRANCH   7  18
ATOM     18  C   UNL     1       2.270   5.848  19.024  0.00  0.00    +0.000 A 
ATOM     19  C   UNL     1       1.970   6.471  20.242  0.00  0.00    +0.000 A 
ATOM     20  C   UNL     1       1.788   7.857  20.301  0.00  0.00    +0.000 A 
ATOM     21  C   UNL     1       1.852   8.619  19.136  0.00  0.00    +0.000 A 
ATOM     22 CL   UNL     1       1.654  10.329  19.220  0.00  0.00    +0.000 Cl
ATOM     23  C   UNL     1       2.087   8.010  17.913  0.00  0.00    +0.000 A 
ATOM     24  C   UNL     1       2.311   6.632  17.860  0.00  0.00    +0.000 A 
ENDBRANCH   7  18
TORSDOF 3
ENDMDL
MODEL 5
REMARK VINA RESULT:      -7.3      1.151      2.532
REMARK  Name = 
REMARK  4 active torsions:
REMARK  status: ('A' for Active; 'I' for Inactive)
REMARK    1  A    between atoms: C_1  and  O_2
REMARK    2  A    between atoms: O_2  and  C_3
REMARK    3  A    between atoms: C_8  and  C_9
REMARK    4  A    between atoms: N_15  and  C_16
REMARK                            x       y       z     vdW  Elec       q    Type
REMARK                         _______ _______ _______ _____ _____    ______ ____
ROOT
ATOM      1  C   UNL     1       3.745   3.838  18.390  0.00  0.00    +0.000 A 
ATOM      2  C   UNL     1       3.505   2.471  18.534  0.00  0.00    +0.000 A 
ATOM      3 CL   UNL     1       4.453   1.173  17.954  0.00  0.00    +0.000 Cl
ATOM      4  N   UNL     1       2.350   2.218  19.208  0.00  0.00    +0.000 NA
ATOM      5  C   UNL     1       1.857   3.398  19.470  0.00  0.00    +0.000 A 
ATOM      6 CL   UNL     1       0.538   3.604  20.540  0.00  0.00    +0.000 Cl
ATOM      7  N   UNL     1       2.604   4.448  18.960  0.00  0.00    +0.000 N 
ENDROOT
BRANCH   1  13
ATOM      8  C   UNL     1       6.974   5.781  17.764  0.00  0.00    +0.000 A 
ATOM      9  C   UNL     1       7.126   5.622  16.387  0.00  0.00    +0.000 A 
ATOM     10  C   UNL     1       6.153   4.930  15.667  0.00  0.00    +0.000 A 
ATOM     11  C   UNL     1       5.068   4.355  16.329  0.00  0.00    +0.000 A 
ATOM     12  F   UNL     1       4.214   3.625  15.597  0.00  0.00    +0.000 F 
ATOM     13  C   UNL     1       4.883   4.493  17.712  0.00  0.00    +0.000 A 
ATOM     14  C   UNL     1       5.832   5.264  18.397  0.00  0.00    +0.000 A 
ATOM     15  F   UNL     1       5.666   5.499  19.711  0.00  0.00    +0.000 F 
BRANCH   8  17
ATOM     16  C   UNL     1       8.227   7.712  18.373  0.00  0.00    +0.000 C 
ATOM     17  O   UNL     1       7.904   6.347  18.597  0.00  0.00    +0.000 OA
ENDBRANCH   8  17
ENDBRANCH   1  13
BRANCH   7  18
ATOM     18  C   UNL     1       2.258   5.841  18.993  0.00  0.00    +0.000 A 
ATOM     19  C   UNL     1       1.995   6.494  20.203  0.00  0.00    +0.000 A 
ATOM     20  C   UNL     1       1.818   7.882  20.234  0.00  0.00    +0.000 A 
ATOM     21  C   UNL     1       1.853   8.615  19.050  0.00  0.00    +0.000 A 
ATOM     22 CL   UNL     1       1.663  10.328  19.098  0.00  0.00    +0.000 Cl
ATOM     23  C   UNL     1       2.053   7.976  17.835  0.00  0.00    +0.000 A 
ATOM     24  C   UNL     1       2.271   6.597  17.810  0.00  0.00    +0.000 A 
ENDBRANCH   7  18
TORSDOF 3
ENDMDL
MODEL 6
REMARK VINA RESULT:      -7.2      3.273      5.543
REMARK  Name = 
REMARK  4 active torsions:
REMARK  status: ('A' for Active; 'I' for Inactive)
REMARK    1  A    between atoms: C_1  and  O_2
REMARK    2  A    between atoms: O_2  and  C_3
REMARK    3  A    between atoms: C_8  and  C_9
REMARK    4  A    between atoms: N_15  and  C_16
REMARK                            x       y       z     vdW  Elec       q    Type
REMARK                         _______ _______ _______ _____ _____    ______ ____
ROOT
ATOM      1  C   UNL     1       4.291   4.845  17.678  0.00  0.00    +0.000 A 
ATOM      2  C   UNL     1       4.002   3.683  16.961  0.00  0.00    +0.000 A 
ATOM      3 CL   UNL     1       2.628   2.677  17.103  0.00  0.00    +0.000 Cl
ATOM      4  N   UNL     1       4.988   3.363  16.078  0.00  0.00    +0.000 NA
ATOM      5  C   UNL     1       5.891   4.292  16.243  0.00  0.00    +0.000 A 
ATOM      6 CL   UNL     1       7.206   4.468  15.163  0.00  0.00    +0.000 Cl
ATOM      7  N   UNL     1       5.586   5.206  17.238  0.00  0.00    +0.000 N 
ENDROOT
BRANCH   1  13
ATOM      8  C   UNL     1       2.101   7.360  19.542  0.00  0.00    +0.000 A 
ATOM      9  C   UNL     1       1.793   6.648  20.700  0.00  0.00    +0.000 A 
ATOM     10  C   UNL     1       2.341   5.380  20.889  0.00  0.00    +0.000 A 
ATOM     11  C   UNL     1       3.142   4.808  19.901  0.00  0.00    +0.000 A 
ATOM     12  F   UNL     1       3.565   3.551  20.099  0.00  0.00    +0.000 F 
ATOM     13  C   UNL     1       3.472   5.493  18.723  0.00  0.00    +0.000 A 
ATOM     14  C   UNL     1       2.976   6.799  18.598  0.00  0.00    +0.000 A 
ATOM     15  F   UNL     1       3.323   7.535  17.528  0.00  0.00    +0.000 F 
BRANCH   8  17
ATOM     16  C   UNL     1       0.930   9.318  20.222  0.00  0.00    +0.000 C 
ATOM     17  O   UNL     1       1.551   8.564  19.190  0.00  0.00    +0.000 OA
ENDBRANCH   8  17
ENDBRANCH   1  13
BRANCH   7  18
ATOM     18  C   UNL     1       6.429   6.264  17.718  0.00  0.00    +0.000 A 
ATOM     19  C   UNL     1       7.399   6.029  18.699  0.00  0.00    +0.000 A 
ATOM     20  C   UNL     1       8.318   7.029  19.038  0.00  0.00    +0.000 A 
ATOM     21  C   UNL     1       8.238   8.283  18.437  0.00  0.00    +0.000 A 
ATOM     22 CL   UNL     1       9.390   9.500  18.839  0.00  0.00    +0.000 Cl
ATOM     23  C   UNL     1       7.245   8.551  17.507  0.00  0.00    +0.000 A 
ATOM     24  C   UNL     1       6.355   7.540  17.137  0.00  0.00    +0.000 A 
ENDBRANCH   7  18
TORSDOF 3
ENDMDL
MODEL 7
REMARK VINA RESULT:      -7.0      2.207      2.722
REMARK  Name = 
REMARK  4 active torsions:
REMARK  status: ('A' for Active; 'I' for Inactive)
REMARK    1  A    between atoms: C_1  and  O_2
REMARK    2  A    between atoms: O_2  and  C_3
REMARK    3  A    between atoms: C_8  and  C_9
REMARK    4  A    between atoms: N_15  and  C_16
REMARK                            x       y       z     vdW  Elec       q    Type
REMARK                         _______ _______ _______ _____ _____    ______ ____
ROOT
ATOM      1  C   UNL     1       4.534   4.868  17.600  0.00  0.00    +0.000 A 
ATOM      2  C   UNL     1       4.399   3.767  16.754  0.00  0.00    +0.000 A 
ATOM      3 CL   UNL     1       5.629   2.943  15.900  0.00  0.00    +0.000 Cl
ATOM      4  N   UNL     1       3.103   3.372  16.623  0.00  0.00    +0.000 NA
ATOM      5  C   UNL     1       2.428   4.215  17.357  0.00  0.00    +0.000 A 
ATOM      6 CL   UNL     1       0.775   3.965  17.723  0.00  0.00    +0.000 Cl
ATOM      7  N   UNL     1       3.204   5.201  17.944  0.00  0.00    +0.000 N 
ENDROOT
BRANCH   1  13
ATOM      8  C   UNL     1       7.344   7.453  17.728  0.00  0.00    +0.000 A 
ATOM      9  C   UNL     1       8.094   6.989  18.808  0.00  0.00    +0.000 A 
ATOM     10  C   UNL     1       7.710   5.813  19.451  0.00  0.00    +0.000 A 
ATOM     11  C   UNL     1       6.555   5.141  19.052  0.00  0.00    +0.000 A 
ATOM     12  F   UNL     1       6.187   4.067  19.766  0.00  0.00    +0.000 F 
ATOM     13  C   UNL     1       5.775   5.579  17.973  0.00  0.00    +0.000 A 
ATOM     14  C   UNL     1       6.231   6.717  17.291  0.00  0.00    +0.000 A 
ATOM     15  F   UNL     1       5.571   7.140  16.199  0.00  0.00    +0.000 F 
BRANCH   8  17
ATOM     16  C   UNL     1       8.263   9.649  17.788  0.00  0.00    +0.000 C 
ATOM     17  O   UNL     1       7.554   8.642  17.080  0.00  0.00    +0.000 OA
ENDBRANCH   8  17
ENDBRANCH   1  13
BRANCH   7  18
ATOM     18  C   UNL     1       2.733   6.320  18.709  0.00  0.00    +0.000 A 
ATOM     19  C   UNL     1       2.587   7.586  18.127  0.00  0.00    +0.000 A 
ATOM     20  C   UNL     1       1.976   8.625  18.839  0.00  0.00    +0.000 A 
ATOM     21  C   UNL     1       1.556   8.419  20.151  0.00  0.00    +0.000 A 
ATOM     22 CL   UNL     1       0.780   9.695  21.011  0.00  0.00    +0.000 Cl
ATOM     23  C   UNL     1       1.748   7.189  20.763  0.00  0.00    +0.000 A 
ATOM     24  C   UNL     1       2.319   6.140  20.038  0.00  0.00    +0.000 A 
ENDBRANCH   7  18
TORSDOF 3
ENDMDL
MODEL 8
REMARK VINA RESULT:      -6.8      3.419      5.626
REMARK  Name = 
REMARK  4 active torsions:
REMARK  status: ('A' for Active; 'I' for Inactive)
REMARK    1  A    between atoms: C_1  and  O_2
REMARK    2  A    between atoms: O_2  and  C_3
REMARK    3  A    between atoms: C_8  and  C_9
REMARK    4  A    between atoms: N_15  and  C_16
REMARK                            x       y       z     vdW  Elec       q    Type
REMARK                         _______ _______ _______ _____ _____    ______ ____
ROOT
ATOM      1  C   UNL     1       4.455   4.765  17.338  0.00  0.00    +0.000 A 
ATOM      2  C   UNL     1       4.232   3.667  16.507  0.00  0.00    +0.000 A 
ATOM      3 CL   UNL     1       2.913   2.580  16.535  0.00  0.00    +0.000 Cl
ATOM      4  N   UNL     1       5.237   3.489  15.606  0.00  0.00    +0.000 NA
ATOM      5  C   UNL     1       6.089   4.442  15.872  0.00  0.00    +0.000 A 
ATOM      6 CL   UNL     1       7.398   4.795  14.828  0.00  0.00    +0.000 Cl
ATOM      7  N   UNL     1       5.731   5.236  16.950  0.00  0.00    +0.000 N 
ENDROOT
BRANCH   1  13
ATOM      8  C   UNL     1       2.545   4.997  20.639  0.00  0.00    +0.000 A 
ATOM      9  C   UNL     1       2.058   6.302  20.581  0.00  0.00    +0.000 A 
ATOM     10  C   UNL     1       2.309   7.076  19.449  0.00  0.00    +0.000 A 
ATOM     11  C   UNL     1       3.090   6.567  18.412  0.00  0.00    +0.000 A 
ATOM     12  F   UNL     1       3.373   7.390  17.391  0.00  0.00    +0.000 F 
ATOM     13  C   UNL     1       3.598   5.261  18.435  0.00  0.00    +0.000 A 
ATOM     14  C   UNL     1       3.259   4.477  19.547  0.00  0.00    +0.000 A 
ATOM     15  F   UNL     1       3.650   3.191  19.590  0.00  0.00    +0.000 F 
BRANCH   8  17
ATOM     16  C   UNL     1       1.525   3.102  21.657  0.00  0.00    +0.000 C 
ATOM     17  O   UNL     1       2.456   4.172  21.730  0.00  0.00    +0.000 OA
ENDBRANCH   8  17
ENDBRANCH   1  13
BRANCH   7  18
ATOM     18  C   UNL     1       6.514   6.283  17.540  0.00  0.00    +0.000 A 
ATOM     19  C   UNL     1       7.440   6.012  18.555  0.00  0.00    +0.000 A 
ATOM     20  C   UNL     1       8.308   7.014  19.006  0.00  0.00    +0.000 A 
ATOM     21  C   UNL     1       8.219   8.301  18.482  0.00  0.00    +0.000 A 
ATOM     22 CL   UNL     1       9.310   9.522  19.023  0.00  0.00    +0.000 Cl
ATOM     23  C   UNL     1       7.267   8.602  17.520  0.00  0.00    +0.000 A 
ATOM     24  C   UNL     1       6.429   7.592  17.040  0.00  0.00    +0.000 A 
ENDBRANCH   7  18
TORSDOF 3
ENDMDL
MODEL 9
REMARK VINA RESULT:      -6.6      3.153      5.509
REMARK  Name = 
REMARK  4 active torsions:
REMARK  status: ('A' for Active; 'I' for Inactive)
REMARK    1  A    between atoms: C_1  and  O_2
REMARK    2  A    between atoms: O_2  and  C_3
REMARK    3  A    between atoms: C_8  and  C_9
REMARK    4  A    between atoms: N_15  and  C_16
REMARK                            x       y       z     vdW  Elec       q    Type
REMARK                         _______ _______ _______ _____ _____    ______ ____
ROOT
ATOM      1  C   UNL     1       3.252   5.279  18.063  0.00  0.00    +0.000 A 
ATOM      2  C   UNL     1       2.698   4.068  17.646  0.00  0.00    +0.000 A 
ATOM      3 CL   UNL     1       1.143   3.450  17.993  0.00  0.00    +0.000 Cl
ATOM      4  N   UNL     1       3.566   3.336  16.895  0.00  0.00    +0.000 NA
ATOM      5  C   UNL     1       4.653   4.058  16.852  0.00  0.00    +0.000 A 
ATOM      6 CL   UNL     1       5.945   3.674  15.797  0.00  0.00    +0.000 Cl
ATOM      7  N   UNL     1       4.581   5.231  17.584  0.00  0.00    +0.000 N 
ENDROOT
BRANCH   1  13
ATOM      8  C   UNL     1       1.671   8.572  19.184  0.00  0.00    +0.000 A 
ATOM      9  C   UNL     1       1.290   8.261  20.489  0.00  0.00    +0.000 A 
ATOM     10  C   UNL     1       1.596   7.005  21.010  0.00  0.00    +0.000 A 
ATOM     11  C   UNL     1       2.226   6.050  20.212  0.00  0.00    +0.000 A 
ATOM     12  F   UNL     1       2.412   4.830  20.739  0.00  0.00    +0.000 F 
ATOM     13  C   UNL     1       2.622   6.325  18.896  0.00  0.00    +0.000 A 
ATOM     14  C   UNL     1       2.377   7.623  18.426  0.00  0.00    +0.000 A 
ATOM     15  F   UNL     1       2.805   7.972  17.200  0.00  0.00    +0.000 F 
BRANCH   8  17
ATOM     16  C   UNL     1      -0.040   9.978  18.311  0.00  0.00    +0.000 C 
ATOM     17  O   UNL     1       1.342   9.726  18.523  0.00  0.00    +0.000 OA
ENDBRANCH   8  17
ENDBRANCH   1  13
BRANCH   7  18
ATOM     18  C   UNL     1       5.647   6.166  17.812  0.00  0.00    +0.000 A 
ATOM     19  C   UNL     1       6.733   5.840  18.633  0.00  0.00    +0.000 A 
ATOM     20  C   UNL     1       7.838   6.695  18.716  0.00  0.00    +0.000 A 
ATOM     21  C   UNL     1       7.839   7.903  18.021  0.00  0.00    +0.000 A 
ATOM     22 CL   UNL     1       9.214   8.938  18.107  0.00  0.00    +0.000 Cl
ATOM     23  C   UNL     1       6.745   8.268  17.251  0.00  0.00    +0.000 A 
ATOM     24  C   UNL     1       5.661   7.396  17.135  0.00  0.00    +0.000 A 
ENDBRANCH   7  18
TORSDOF 3
ENDMDL
