MODEL 1
REMARK VINA RESULT:      -8.6      0.000      0.000
REMARK  Name = 
REMARK  9 active torsions:
REMARK  status: ('A' for Active; 'I' for Inactive)
REMARK    1  A    between atoms: C_1  and  C_2
REMARK    2  A    between atoms: C_2  and  N_3
REMARK    3  A    between atoms: N_3  and  C_4
REMARK    4  A    between atoms: N_3  and  C_20
REMARK    5  A    between atoms: C_4  and  C_5
REMARK    6  A    between atoms: N_7  and  C_8
REMARK    7  A    between atoms: C_14  and  N_15
REMARK    8  A    between atoms: C_20  and  C_21
REMARK    9  A    between atoms: C_23  and  O_24
REMARK                            x       y       z     vdW  Elec       q    Type
REMARK                         _______ _______ _______ _____ _____    ______ ____
ROOT
ATOM      1  C   UNL     1       3.610   2.920  18.773  0.00  0.00    +0.000 C 
ENDROOT
BRANCH   1   2
ATOM      2  C   UNL     1       4.009   3.475  17.409  0.00  0.00    +0.000 C 
ATOM      3  O   UNL     1       3.179   3.935  16.625  0.00  0.00    +0.000 OA
ATOM      4  N   UNL     1       5.371   3.421  17.164  0.00  0.00    +0.000 N 
ATOM      5  H   UNL     1       5.859   2.631  17.593  0.00  0.00    +0.000 HD
BRANCH   4   6
ATOM      6  C   UNL     1       5.950   3.915  15.975  0.00  0.00    +0.000 A 
ATOM      7  C   UNL     1       5.586   3.327  14.752  0.00  0.00    +0.000 A 
ATOM      8  C   UNL     1       6.149   3.776  13.564  0.00  0.00    +0.000 A 
ATOM      9 CL   UNL     1       5.709   3.040  12.073  0.00  0.00    +0.000 Cl
ATOM     10  C   UNL     1       7.070   4.818  13.576  0.00  0.00    +0.000 A 
ATOM     11  C   UNL     1       7.430   5.422  14.785  0.00  0.00    +0.000 A 
ATOM     12  C   UNL     1       6.871   4.981  15.999  0.00  0.00    +0.000 A 
BRANCH  12  13
ATOM     13  N   UNL     1       7.320   5.550  17.228  0.00  0.00    +0.000 N 
ATOM     14  C   UNL     1       7.531   6.871  17.543  0.00  0.00    +0.000 A 
ATOM     15  N   UNL     1       8.044   6.987  18.747  0.00  0.00    +0.000 NA
ATOM     16  C   UNL     1       8.118   5.698  19.168  0.00  0.00    +0.000 A 
ATOM     17  N   UNL     1       7.666   4.786  18.306  0.00  0.00    +0.000 NA
ENDBRANCH  12  13
ENDBRANCH   4   6
ENDBRANCH   1   2
BRANCH   1  18
ATOM     18  N   UNL     1       2.990   3.940  19.651  0.00  0.00    +0.000 NA
BRANCH  18  20
ATOM     19  C   UNL     1       0.704   2.919  19.341  0.00  0.00    +0.000 C 
ATOM     20  C   UNL     1       1.565   4.180  19.350  0.00  0.00    +0.000 C 
ENDBRANCH  18  20
BRANCH  18  21
ATOM     21  C   UNL     1       3.721   5.238  19.617  0.00  0.00    +0.000 C 
BRANCH  21  22
ATOM     22  C   UNL     1       2.876   6.507  19.517  0.00  0.00    +0.000 A 
ATOM     23  N   UNL     1       2.895   7.206  18.370  0.00  0.00    +0.000 NA
ATOM     24  C   UNL     1       2.131   8.299  18.350  0.00  0.00    +0.000 A 
ATOM     25  C   UNL     1       1.362   8.769  19.402  0.00  0.00    +0.000 A 
ATOM     26  C   UNL     1       0.570   9.940  19.364  0.00  0.00    +0.000 A 
ATOM     27  C   UNL     1      -0.158  10.325  20.485  0.00  0.00    +0.000 A 
ATOM     28  C   UNL     1      -0.098   9.547  21.635  0.00  0.00    +0.000 A 
ATOM     29  C   UNL     1       0.689   8.389  21.657  0.00  0.00    +0.000 A 
ATOM     30  C   UNL     1       1.425   7.979  20.551  0.00  0.00    +0.000 A 
ATOM     31  N   UNL     1       2.164   6.861  20.613  0.00  0.00    +0.000 NA
BRANCH  24  32
ATOM     32  O   UNL     1       2.167   8.942  17.154  0.00  0.00    +0.000 OA
ATOM     33  H   UNL     1       1.280   9.349  17.159  0.00  0.00    +0.000 HD
ENDBRANCH  24  32
ENDBRANCH  21  22
ENDBRANCH  18  21
ENDBRANCH   1  18
TORSDOF 8
ENDMDL
MODEL 2
REMARK VINA RESULT:      -8.2      1.051      1.171
REMARK  Name = 
REMARK  9 active torsions:
REMARK  status: ('A' for Active; 'I' for Inactive)
REMARK    1  A    between atoms: C_1  and  C_2
REMARK    2  A    between atoms: C_2  and  N_3
REMARK    3  A    between atoms: N_3  and  C_4
REMARK    4  A    between atoms: N_3  and  C_20
REMARK    5  A    between atoms: C_4  and  C_5
REMARK    6  A    between atoms: N_7  and  C_8
REMARK    7  A    between atoms: C_14  and  N_15
REMARK    8  A    between atoms: C_20  and  C_21
REMARK    9  A    between atoms: C_23  and  O_24
REMARK                            x       y       z     vdW  Elec       q    Type
REMARK                         _______ _______ _______ _____ _____    ______ ____
ROOT
ATOM      1  C   UNL     1       2.652   4.287  18.496  0.00  0.00    +0.000 C 
ENDROOT
BRANCH   1   2
ATOM      2  C   UNL     1       3.687   3.867  17.454  0.00  0.00    +0.000 C 
ATOM      3  O   UNL     1       3.936   2.685  17.224  0.00  0.00    +0.000 OA
ATOM      4  N   UNL     1       4.284   4.934  16.805  0.00  0.00    +0.000 N 
ATOM      5  H   UNL     1       4.392   5.782  17.369  0.00  0.00    +0.000 HD
BRANCH   4   6
ATOM      6  C   UNL     1       5.242   4.763  15.783  0.00  0.00    +0.000 A 
ATOM      7  C   UNL     1       4.832   4.216  14.557  0.00  0.00    +0.000 A 
ATOM      8  C   UNL     1       5.752   4.018  13.534  0.00  0.00    +0.000 A 
ATOM      9 CL   UNL     1       5.242   3.332  12.041  0.00  0.00    +0.000 Cl
ATOM     10  C   UNL     1       7.085   4.369  13.715  0.00  0.00    +0.000 A 
ATOM     11  C   UNL     1       7.505   4.929  14.927  0.00  0.00    +0.000 A 
ATOM     12  C   UNL     1       6.588   5.137  15.973  0.00  0.00    +0.000 A 
BRANCH  12  13
ATOM     13  N   UNL     1       7.054   5.624  17.231  0.00  0.00    +0.000 N 
ATOM     14  C   UNL     1       7.563   6.863  17.544  0.00  0.00    +0.000 A 
ATOM     15  N   UNL     1       7.978   6.895  18.790  0.00  0.00    +0.000 NA
ATOM     16  C   UNL     1       7.688   5.646  19.236  0.00  0.00    +0.000 A 
ATOM     17  N   UNL     1       7.099   4.842  18.350  0.00  0.00    +0.000 NA
ENDBRANCH  12  13
ENDBRANCH   4   6
ENDBRANCH   1   2
BRANCH   1  18
ATOM     18  N   UNL     1       3.215   4.375  19.864  0.00  0.00    +0.000 NA
BRANCH  18  20
ATOM     19  C   UNL     1       2.217   2.844  21.602  0.00  0.00    +0.000 C 
ATOM     20  C   UNL     1       3.296   3.068  20.547  0.00  0.00    +0.000 C 
ENDBRANCH  18  20
BRANCH  18  21
ATOM     21  C   UNL     1       2.464   5.330  20.726  0.00  0.00    +0.000 C 
BRANCH  21  22
ATOM     22  C   UNL     1       2.120   6.689  20.119  0.00  0.00    +0.000 A 
ATOM     23  N   UNL     1       2.599   6.990  18.900  0.00  0.00    +0.000 NA
ATOM     24  C   UNL     1       2.257   8.189  18.429  0.00  0.00    +0.000 A 
ATOM     25  C   UNL     1       1.489   9.132  19.093  0.00  0.00    +0.000 A 
ATOM     26  C   UNL     1       1.151  10.406  18.579  0.00  0.00    +0.000 A 
ATOM     27  C   UNL     1       0.380  11.280  19.337  0.00  0.00    +0.000 A 
ATOM     28  C   UNL     1      -0.052  10.886  20.599  0.00  0.00    +0.000 A 
ATOM     29  C   UNL     1       0.289   9.622  21.093  0.00  0.00    +0.000 A 
ATOM     30  C   UNL     1       1.057   8.727  20.356  0.00  0.00    +0.000 A 
ATOM     31  N   UNL     1       1.359   7.523  20.866  0.00  0.00    +0.000 NA
BRANCH  24  32
ATOM     32  O   UNL     1       2.742   8.420  17.181  0.00  0.00    +0.000 OA
ATOM     33  H   UNL     1       3.684   8.212  17.329  0.00  0.00    +0.000 HD
ENDBRANCH  24  32
ENDBRANCH  21  22
ENDBRANCH  18  21
ENDBRANCH   1  18
TORSDOF 8
ENDMDL
MODEL 3
REMARK VINA RESULT:      -7.9      4.189      9.106
REMARK  Name = 
REMARK  9 active torsions:
REMARK  status: ('A' for Active; 'I' for Inactive)
REMARK    1  A    between atoms: C_1  and  C_2
REMARK    2  A    between atoms: C_2  and  N_3
REMARK    3  A    between atoms: N_3  and  C_4
REMARK    4  A    between atoms: N_3  and  C_20
REMARK    5  A    between atoms: C_4  and  C_5
REMARK    6  A    between atoms: N_7  and  C_8
REMARK    7  A    between atoms: C_14  and  N_15
REMARK    8  A    between atoms: C_20  and  C_21
REMARK    9  A    between atoms: C_23  and  O_24
REMARK                            x       y       z     vdW  Elec       q    Type
REMARK                         _______ _______ _______ _____ _____    ______ ____
ROOT
ATOM      1  C   UNL     1       0.785  10.124  20.604  0.00  0.00    +0.000 C 
ENDROOT
BRANCH   1   2
ATOM      2  C   UNL     1       0.030  10.608  19.369  0.00  0.00    +0.000 C 
ATOM      3  O   UNL     1       0.588  11.232  18.467  0.00  0.00    +0.000 OA
ATOM      4  N   UNL     1      -1.311  10.263  19.369  0.00  0.00    +0.000 N 
ATOM      5  H   UNL     1      -1.749  10.219  20.293  0.00  0.00    +0.000 HD
BRANCH   4   6
ATOM      6  C   UNL     1      -2.179  10.585  18.304  0.00  0.00    +0.000 A 
ATOM      7  C   UNL     1      -1.973   9.974  17.056  0.00  0.00    +0.000 A 
ATOM      8  C   UNL     1      -2.798  10.280  15.980  0.00  0.00    +0.000 A 
ATOM      9 CL   UNL     1      -2.528   9.538  14.452  0.00  0.00    +0.000 Cl
ATOM     10  C   UNL     1      -3.841  11.187  16.135  0.00  0.00    +0.000 A 
ATOM     11  C   UNL     1      -4.066  11.792  17.376  0.00  0.00    +0.000 A 
ATOM     12  C   UNL     1      -3.242  11.495  18.476  0.00  0.00    +0.000 A 
BRANCH  12  13
ATOM     13  N   UNL     1      -3.433  12.191  19.707  0.00  0.00    +0.000 N 
ATOM     14  C   UNL     1      -4.604  12.460  20.376  0.00  0.00    +0.000 A 
ATOM     15  N   UNL     1      -4.378  13.214  21.427  0.00  0.00    +0.000 NA
ATOM     16  C   UNL     1      -3.030  13.379  21.395  0.00  0.00    +0.000 A 
ATOM     17  N   UNL     1      -2.400  12.759  20.397  0.00  0.00    +0.000 NA
ENDBRANCH  12  13
ENDBRANCH   4   6
ENDBRANCH   1   2
BRANCH   1  18
ATOM     18  N   UNL     1       0.433   8.736  20.988  0.00  0.00    +0.000 NA
BRANCH  18  20
ATOM     19  C   UNL     1      -0.445   9.896  23.048  0.00  0.00    +0.000 C 
ATOM     20  C   UNL     1      -0.478   8.665  22.147  0.00  0.00    +0.000 C 
ENDBRANCH  18  20
BRANCH  18  21
ATOM     21  C   UNL     1       1.636   7.900  21.260  0.00  0.00    +0.000 C 
BRANCH  21  22
ATOM     22  C   UNL     1       1.938   6.777  20.269  0.00  0.00    +0.000 A 
ATOM     23  N   UNL     1       2.663   7.061  19.175  0.00  0.00    +0.000 NA
ATOM     24  C   UNL     1       2.893   6.034  18.356  0.00  0.00    +0.000 A 
ATOM     25  C   UNL     1       2.431   4.739  18.529  0.00  0.00    +0.000 A 
ATOM     26  C   UNL     1       2.675   3.669  17.639  0.00  0.00    +0.000 A 
ATOM     27  C   UNL     1       2.154   2.407  17.908  0.00  0.00    +0.000 A 
ATOM     28  C   UNL     1       1.396   2.215  19.058  0.00  0.00    +0.000 A 
ATOM     29  C   UNL     1       1.165   3.285  19.930  0.00  0.00    +0.000 A 
ATOM     30  C   UNL     1       1.675   4.556  19.688  0.00  0.00    +0.000 A 
ATOM     31  N   UNL     1       1.432   5.553  20.552  0.00  0.00    +0.000 NA
BRANCH  24  32
ATOM     32  O   UNL     1       3.659   6.377  17.288  0.00  0.00    +0.000 OA
ATOM     33  H   UNL     1       3.709   7.342  17.422  0.00  0.00    +0.000 HD
ENDBRANCH  24  32
ENDBRANCH  21  22
ENDBRANCH  18  21
ENDBRANCH   1  18
TORSDOF 8
ENDMDL
MODEL 4
REMARK VINA RESULT:      -7.7      1.155      1.447
REMARK  Name = 
REMARK  9 active torsions:
REMARK  status: ('A' for Active; 'I' for Inactive)
REMARK    1  A    between atoms: C_1  and  C_2
REMARK    2  A    between atoms: C_2  and  N_3
REMARK    3  A    between atoms: N_3  and  C_4
REMARK    4  A    between atoms: N_3  and  C_20
REMARK    5  A    between atoms: C_4  and  C_5
REMARK    6  A    between atoms: N_7  and  C_8
REMARK    7  A    between atoms: C_14  and  N_15
REMARK    8  A    between atoms: C_20  and  C_21
REMARK    9  A    between atoms: C_23  and  O_24
REMARK                            x       y       z     vdW  Elec       q    Type
REMARK                         _______ _______ _______ _____ _____    ______ ____
ROOT
ATOM      1  C   UNL     1       2.935   3.821  18.038  0.00  0.00    +0.000 C 
ENDROOT
BRANCH   1   2
ATOM      2  C   UNL     1       4.037   3.506  17.029  0.00  0.00    +0.000 C 
ATOM      3  O   UNL     1       4.604   2.414  17.004  0.00  0.00    +0.000 OA
ATOM      4  N   UNL     1       4.307   4.548  16.159  0.00  0.00    +0.000 N 
ATOM      5  H   UNL     1       4.179   5.486  16.550  0.00  0.00    +0.000 HD
BRANCH   4   6
ATOM      6  C   UNL     1       5.267   4.450  15.129  0.00  0.00    +0.000 A 
ATOM      7  C   UNL     1       4.926   3.765  13.951  0.00  0.00    +0.000 A 
ATOM      8  C   UNL     1       5.852   3.634  12.923  0.00  0.00    +0.000 A 
ATOM      9 CL   UNL     1       5.430   2.780  11.491  0.00  0.00    +0.000 Cl
ATOM     10  C   UNL     1       7.120   4.191  13.049  0.00  0.00    +0.000 A 
ATOM     11  C   UNL     1       7.467   4.889  14.211  0.00  0.00    +0.000 A 
ATOM     12  C   UNL     1       6.544   5.032  15.262  0.00  0.00    +0.000 A 
BRANCH  12  13
ATOM     13  N   UNL     1       6.949   5.668  16.474  0.00  0.00    +0.000 N 
ATOM     14  C   UNL     1       7.486   5.105  17.608  0.00  0.00    +0.000 A 
ATOM     15  N   UNL     1       7.634   6.008  18.550  0.00  0.00    +0.000 NA
ATOM     16  C   UNL     1       7.193   7.144  17.951  0.00  0.00    +0.000 A 
ATOM     17  N   UNL     1       6.796   7.008  16.686  0.00  0.00    +0.000 NA
ENDBRANCH  12  13
ENDBRANCH   4   6
ENDBRANCH   1   2
BRANCH   1  18
ATOM     18  N   UNL     1       3.344   3.560  19.438  0.00  0.00    +0.000 NA
BRANCH  18  20
ATOM     19  C   UNL     1       0.955   3.128  20.120  0.00  0.00    +0.000 C 
ATOM     20  C   UNL     1       2.411   2.675  20.164  0.00  0.00    +0.000 C 
ENDBRANCH  18  20
BRANCH  18  21
ATOM     21  C   UNL     1       3.531   4.816  20.218  0.00  0.00    +0.000 C 
BRANCH  21  22
ATOM     22  C   UNL     1       3.102   6.119  19.546  0.00  0.00    +0.000 A 
ATOM     23  N   UNL     1       3.638   6.438  18.356  0.00  0.00    +0.000 NA
ATOM     24  C   UNL     1       3.215   7.585  17.825  0.00  0.00    +0.000 A 
ATOM     25  C   UNL     1       2.311   8.462  18.403  0.00  0.00    +0.000 A 
ATOM     26  C   UNL     1       1.889   9.682  17.828  0.00  0.00    +0.000 A 
ATOM     27  C   UNL     1       0.981  10.493  18.502  0.00  0.00    +0.000 A 
ATOM     28  C   UNL     1       0.497  10.087  19.740  0.00  0.00    +0.000 A 
ATOM     29  C   UNL     1       0.924   8.875  20.296  0.00  0.00    +0.000 A 
ATOM     30  C   UNL     1       1.829   8.045  19.644  0.00  0.00    +0.000 A 
ATOM     31  N   UNL     1       2.209   6.890  20.211  0.00  0.00    +0.000 NA
BRANCH  24  32
ATOM     32  O   UNL     1       3.766   7.834  16.608  0.00  0.00    +0.000 OA
ATOM     33  H   UNL     1       3.945   8.789  16.700  0.00  0.00    +0.000 HD
ENDBRANCH  24  32
ENDBRANCH  21  22
ENDBRANCH  18  21
ENDBRANCH   1  18
TORSDOF 8
ENDMDL
MODEL 5
REMARK VINA RESULT:      -7.7      1.066      1.705
REMARK  Name = 
REMARK  9 active torsions:
REMARK  status: ('A' for Active; 'I' for Inactive)
REMARK    1  A    between atoms: C_1  and  C_2
REMARK    2  A    between atoms: C_2  and  N_3
REMARK    3  A    between atoms: N_3  and  C_4
REMARK    4  A    between atoms: N_3  and  C_20
REMARK    5  A    between atoms: C_4  and  C_5
REMARK    6  A    between atoms: N_7  and  C_8
REMARK    7  A    between atoms: C_14  and  N_15
REMARK    8  A    between atoms: C_20  and  C_21
REMARK    9  A    between atoms: C_23  and  O_24
REMARK                            x       y       z     vdW  Elec       q    Type
REMARK                         _______ _______ _______ _____ _____    ______ ____
ROOT
ATOM      1  C   UNL     1       3.619   2.908  18.753  0.00  0.00    +0.000 C 
ENDROOT
BRANCH   1   2
ATOM      2  C   UNL     1       4.014   3.474  17.391  0.00  0.00    +0.000 C 
ATOM      3  O   UNL     1       3.183   3.951  16.619  0.00  0.00    +0.000 OA
ATOM      4  N   UNL     1       5.373   3.409  17.137  0.00  0.00    +0.000 N 
ATOM      5  H   UNL     1       5.856   2.609  17.554  0.00  0.00    +0.000 HD
BRANCH   4   6
ATOM      6  C   UNL     1       5.949   3.910  15.949  0.00  0.00    +0.000 A 
ATOM      7  C   UNL     1       5.596   3.318  14.726  0.00  0.00    +0.000 A 
ATOM      8  C   UNL     1       6.156   3.774  13.538  0.00  0.00    +0.000 A 
ATOM      9 CL   UNL     1       5.728   3.033  12.046  0.00  0.00    +0.000 Cl
ATOM     10  C   UNL     1       7.064   4.827  13.553  0.00  0.00    +0.000 A 
ATOM     11  C   UNL     1       7.414   5.435  14.763  0.00  0.00    +0.000 A 
ATOM     12  C   UNL     1       6.857   4.987  15.975  0.00  0.00    +0.000 A 
BRANCH  12  13
ATOM     13  N   UNL     1       7.297   5.561  17.206  0.00  0.00    +0.000 N 
ATOM     14  C   UNL     1       7.552   6.879  17.503  0.00  0.00    +0.000 A 
ATOM     15  N   UNL     1       8.038   6.997  18.718  0.00  0.00    +0.000 NA
ATOM     16  C   UNL     1       8.050   5.715  19.163  0.00  0.00    +0.000 A 
ATOM     17  N   UNL     1       7.584   4.805  18.306  0.00  0.00    +0.000 NA
ENDBRANCH  12  13
ENDBRANCH   4   6
ENDBRANCH   1   2
BRANCH   1  18
ATOM     18  N   UNL     1       2.976   3.914  19.631  0.00  0.00    +0.000 NA
BRANCH  18  20
ATOM     19  C   UNL     1       0.611   3.194  20.129  0.00  0.00    +0.000 C 
ATOM     20  C   UNL     1       1.542   4.110  19.340  0.00  0.00    +0.000 C 
ENDBRANCH  18  20
BRANCH  18  21
ATOM     21  C   UNL     1       3.668   5.233  19.583  0.00  0.00    +0.000 C 
BRANCH  21  22
ATOM     22  C   UNL     1       2.795   6.479  19.718  0.00  0.00    +0.000 A 
ATOM     23  N   UNL     1       2.088   6.652  20.848  0.00  0.00    +0.000 NA
ATOM     24  C   UNL     1       1.352   7.762  20.901  0.00  0.00    +0.000 A 
ATOM     25  C   UNL     1       1.242   8.710  19.897  0.00  0.00    +0.000 A 
ATOM     26  C   UNL     1       0.442   9.874  19.969  0.00  0.00    +0.000 A 
ATOM     27  C   UNL     1       0.399  10.757  18.895  0.00  0.00    +0.000 A 
ATOM     28  C   UNL     1       1.149  10.482  17.758  0.00  0.00    +0.000 A 
ATOM     29  C   UNL     1       1.938   9.327  17.703  0.00  0.00    +0.000 A 
ATOM     30  C   UNL     1       2.002   8.427  18.761  0.00  0.00    +0.000 A 
ATOM     31  N   UNL     1       2.773   7.334  18.668  0.00  0.00    +0.000 NA
BRANCH  24  32
ATOM     32  O   UNL     1       0.690   7.896  22.080  0.00  0.00    +0.000 OA
ATOM     33  H   UNL     1      -0.209   8.077  21.745  0.00  0.00    +0.000 HD
ENDBRANCH  24  32
ENDBRANCH  21  22
ENDBRANCH  18  21
ENDBRANCH   1  18
TORSDOF 8
ENDMDL
MODEL 6
REMARK VINA RESULT:      -7.7      3.504      5.749
REMARK  Name = 
REMARK  9 active torsions:
REMARK  status: ('A' for Active; 'I' for Inactive)
REMARK    1  A    between atoms: C_1  and  C_2
REMARK    2  A    between atoms: C_2  and  N_3
REMARK    3  A    between atoms: N_3  and  C_4
REMARK    4  A    between atoms: N_3  and  C_20
REMARK    5  A    between atoms: C_4  and  C_5
REMARK    6  A    between atoms: N_7  and  C_8
REMARK    7  A    between atoms: C_14  and  N_15
REMARK    8  A    between atoms: C_20  and  C_21
REMARK    9  A    between atoms: C_23  and  O_24
REMARK                            x       y       z     vdW  Elec       q    Type
REMARK                         _______ _______ _______ _____ _____    ______ ____
ROOT
ATOM      1  C   UNL     1       1.819   8.996  18.090  0.00  0.00    +0.000 C 
ENDROOT
BRANCH   1   2
ATOM      2  C   UNL     1       2.190   7.753  18.894  0.00  0.00    +0.000 C 
ATOM      3  O   UNL     1       2.187   7.749  20.124  0.00  0.00    +0.000 OA
ATOM      4  N   UNL     1       2.504   6.657  18.108  0.00  0.00    +0.000 N 
ATOM      5  H   UNL     1       2.946   6.877  17.211  0.00  0.00    +0.000 HD
BRANCH   4   6
ATOM      6  C   UNL     1       2.842   5.401  18.655  0.00  0.00    +0.000 A 
ATOM      7  C   UNL     1       1.945   4.789  19.545  0.00  0.00    +0.000 A 
ATOM      8  C   UNL     1       2.252   3.559  20.115  0.00  0.00    +0.000 A 
ATOM      9 CL   UNL     1       1.154   2.824  21.217  0.00  0.00    +0.000 Cl
ATOM     10  C   UNL     1       3.447   2.921  19.801  0.00  0.00    +0.000 A 
ATOM     11  C   UNL     1       4.343   3.513  18.904  0.00  0.00    +0.000 A 
ATOM     12  C   UNL     1       4.050   4.757  18.317  0.00  0.00    +0.000 A 
BRANCH  12  13
ATOM     13  N   UNL     1       5.017   5.385  17.477  0.00  0.00    +0.000 N 
ATOM     14  C   UNL     1       5.413   5.040  16.206  0.00  0.00    +0.000 A 
ATOM     15  N   UNL     1       6.403   5.803  15.802  0.00  0.00    +0.000 NA
ATOM     16  C   UNL     1       6.587   6.640  16.856  0.00  0.00    +0.000 A 
ATOM     17  N   UNL     1       5.758   6.457  17.885  0.00  0.00    +0.000 NA
ENDBRANCH  12  13
ENDBRANCH   4   6
ENDBRANCH   1   2
BRANCH   1  18
ATOM     18  N   UNL     1       0.584   9.653  18.582  0.00  0.00    +0.000 NA
BRANCH  18  20
ATOM     19  C   UNL     1      -1.833   9.836  17.887  0.00  0.00    +0.000 C 
ATOM     20  C   UNL     1      -0.365   9.994  17.504  0.00  0.00    +0.000 C 
ENDBRANCH  18  20
BRANCH  18  21
ATOM     21  C   UNL     1       0.874  10.876  19.383  0.00  0.00    +0.000 C 
BRANCH  21  22
ATOM     22  C   UNL     1      -0.057  11.172  20.557  0.00  0.00    +0.000 A 
ATOM     23  N   UNL     1       0.040  10.416  21.663  0.00  0.00    +0.000 NA
ATOM     24  C   UNL     1      -0.798  10.732  22.651  0.00  0.00    +0.000 A 
ATOM     25  C   UNL     1      -1.755  11.734  22.613  0.00  0.00    +0.000 A 
ATOM     26  C   UNL     1      -2.645  12.041  23.667  0.00  0.00    +0.000 A 
ATOM     27  C   UNL     1      -3.574  13.065  23.518  0.00  0.00    +0.000 A 
ATOM     28  C   UNL     1      -3.613  13.779  22.326  0.00  0.00    +0.000 A 
ATOM     29  C   UNL     1      -2.724  13.464  21.291  0.00  0.00    +0.000 A 
ATOM     30  C   UNL     1      -1.784  12.447  21.413  0.00  0.00    +0.000 A 
ATOM     31  N   UNL     1      -0.948  12.180  20.399  0.00  0.00    +0.000 NA
BRANCH  24  32
ATOM     32  O   UNL     1      -0.627   9.955  23.752  0.00  0.00    +0.000 OA
ATOM     33  H   UNL     1      -1.178   9.190  23.503  0.00  0.00    +0.000 HD
ENDBRANCH  24  32
ENDBRANCH  21  22
ENDBRANCH  18  21
ENDBRANCH   1  18
TORSDOF 8
ENDMDL
MODEL 7
REMARK VINA RESULT:      -7.6      3.025      5.474
REMARK  Name = 
REMARK  9 active torsions:
REMARK  status: ('A' for Active; 'I' for Inactive)
REMARK    1  A    between atoms: C_1  and  C_2
REMARK    2  A    between atoms: C_2  and  N_3
REMARK    3  A    between atoms: N_3  and  C_4
REMARK    4  A    between atoms: N_3  and  C_20
REMARK    5  A    between atoms: C_4  and  C_5
REMARK    6  A    between atoms: N_7  and  C_8
REMARK    7  A    between atoms: C_14  and  N_15
REMARK    8  A    between atoms: C_20  and  C_21
REMARK    9  A    between atoms: C_23  and  O_24
REMARK                            x       y       z     vdW  Elec       q    Type
REMARK                         _______ _______ _______ _____ _____    ______ ____
ROOT
ATOM      1  C   UNL     1       1.448   7.441  20.842  0.00  0.00    +0.000 C 
ENDROOT
BRANCH   1   2
ATOM      2  C   UNL     1       2.284   7.029  19.633  0.00  0.00    +0.000 C 
ATOM      3  O   UNL     1       2.140   7.557  18.531  0.00  0.00    +0.000 OA
ATOM      4  N   UNL     1       3.209   6.036  19.910  0.00  0.00    +0.000 N 
ATOM      5  H   UNL     1       2.924   5.365  20.629  0.00  0.00    +0.000 HD
BRANCH   4   6
ATOM      6  C   UNL     1       4.103   5.537  18.939  0.00  0.00    +0.000 A 
ATOM      7  C   UNL     1       5.199   6.329  18.560  0.00  0.00    +0.000 A 
ATOM      8  C   UNL     1       6.091   5.876  17.594  0.00  0.00    +0.000 A 
ATOM      9 CL   UNL     1       7.421   6.861  17.125  0.00  0.00    +0.000 Cl
ATOM     10  C   UNL     1       5.909   4.630  17.004  0.00  0.00    +0.000 A 
ATOM     11  C   UNL     1       4.830   3.825  17.383  0.00  0.00    +0.000 A 
ATOM     12  C   UNL     1       3.917   4.266  18.359  0.00  0.00    +0.000 A 
BRANCH  12  13
ATOM     13  N   UNL     1       2.774   3.469  18.664  0.00  0.00    +0.000 N 
ATOM     14  C   UNL     1       2.710   2.271  19.337  0.00  0.00    +0.000 A 
ATOM     15  N   UNL     1       1.485   1.797  19.329  0.00  0.00    +0.000 NA
ATOM     16  C   UNL     1       0.797   2.751  18.651  0.00  0.00    +0.000 A 
ATOM     17  N   UNL     1       1.515   3.802  18.252  0.00  0.00    +0.000 NA
ENDBRANCH  12  13
ENDBRANCH   4   6
ENDBRANCH   1   2
BRANCH   1  18
ATOM     18  N   UNL     1       1.387   8.911  21.026  0.00  0.00    +0.000 NA
BRANCH  18  20
ATOM     19  C   UNL     1      -0.073   9.374  23.030  0.00  0.00    +0.000 C 
ATOM     20  C   UNL     1       1.335   9.319  22.443  0.00  0.00    +0.000 C 
ENDBRANCH  18  20
BRANCH  18  21
ATOM     21  C   UNL     1       0.241   9.526  20.298  0.00  0.00    +0.000 C 
BRANCH  21  22
ATOM     22  C   UNL     1       0.418  10.966  19.820  0.00  0.00    +0.000 A 
ATOM     23  N   UNL     1       1.378  11.234  18.920  0.00  0.00    +0.000 NA
ATOM     24  C   UNL     1       1.473  12.509  18.543  0.00  0.00    +0.000 A 
ATOM     25  C   UNL     1       0.697  13.554  19.017  0.00  0.00    +0.000 A 
ATOM     26  C   UNL     1       0.826  14.904  18.614  0.00  0.00    +0.000 A 
ATOM     27  C   UNL     1      -0.003  15.877  19.163  0.00  0.00    +0.000 A 
ATOM     28  C   UNL     1      -0.955  15.506  20.106  0.00  0.00    +0.000 A 
ATOM     29  C   UNL     1      -1.072  14.165  20.493  0.00  0.00    +0.000 A 
ATOM     30  C   UNL     1      -0.258  13.172  19.960  0.00  0.00    +0.000 A 
ATOM     31  N   UNL     1      -0.405  11.899  20.357  0.00  0.00    +0.000 NA
BRANCH  24  32
ATOM     32  O   UNL     1       2.437  12.709  17.607  0.00  0.00    +0.000 OA
ATOM     33  H   UNL     1       3.219  12.777  18.187  0.00  0.00    +0.000 HD
ENDBRANCH  24  32
ENDBRANCH  21  22
ENDBRANCH  18  21
ENDBRANCH   1  18
TORSDOF 8
ENDMDL
MODEL 8
REMARK VINA RESULT:      -7.5      0.818      1.170
REMARK  Name = 
REMARK  9 active torsions:
REMARK  status: ('A' for Active; 'I' for Inactive)
REMARK    1  A    between atoms: C_1  and  C_2
REMARK    2  A    between atoms: C_2  and  N_3
REMARK    3  A    between atoms: N_3  and  C_4
REMARK    4  A    between atoms: N_3  and  C_20
REMARK    5  A    between atoms: C_4  and  C_5
REMARK    6  A    between atoms: N_7  and  C_8
REMARK    7  A    between atoms: C_14  and  N_15
REMARK    8  A    between atoms: C_20  and  C_21
REMARK    9  A    between atoms: C_23  and  O_24
REMARK                            x       y       z     vdW  Elec       q    Type
REMARK                         _______ _______ _______ _____ _____    ______ ____
ROOT
ATOM      1  C   UNL     1       3.312   2.939  18.542  0.00  0.00    +0.000 C 
ENDROOT
BRANCH   1   2
ATOM      2  C   UNL     1       3.794   3.490  17.203  0.00  0.00    +0.000 C 
ATOM      3  O   UNL     1       3.017   3.977  16.381  0.00  0.00    +0.000 OA
ATOM      4  N   UNL     1       5.164   3.401  17.026  0.00  0.00    +0.000 N 
ATOM      5  H   UNL     1       5.608   2.595  17.475  0.00  0.00    +0.000 HD
BRANCH   4   6
ATOM      6  C   UNL     1       5.816   3.884  15.872  0.00  0.00    +0.000 A 
ATOM      7  C   UNL     1       5.472   3.339  14.624  0.00  0.00    +0.000 A 
ATOM      8  C   UNL     1       6.105   3.779  13.467  0.00  0.00    +0.000 A 
ATOM      9 CL   UNL     1       5.687   3.094  11.946  0.00  0.00    +0.000 Cl
ATOM     10  C   UNL     1       7.077   4.770  13.537  0.00  0.00    +0.000 A 
ATOM     11  C   UNL     1       7.420   5.332  14.772  0.00  0.00    +0.000 A 
ATOM     12  C   UNL     1       6.790   4.900  15.953  0.00  0.00    +0.000 A 
BRANCH  12  13
ATOM     13  N   UNL     1       7.218   5.421  17.210  0.00  0.00    +0.000 N 
ATOM     14  C   UNL     1       7.488   6.723  17.560  0.00  0.00    +0.000 A 
ATOM     15  N   UNL     1       7.956   6.789  18.785  0.00  0.00    +0.000 NA
ATOM     16  C   UNL     1       7.943   5.491  19.183  0.00  0.00    +0.000 A 
ATOM     17  N   UNL     1       7.477   4.621  18.287  0.00  0.00    +0.000 NA
ENDBRANCH  12  13
ENDBRANCH   4   6
ENDBRANCH   1   2
BRANCH   1  18
ATOM     18  N   UNL     1       3.740   3.769  19.693  0.00  0.00    +0.000 NA
BRANCH  18  20
ATOM     19  C   UNL     1       4.785   1.560  20.321  0.00  0.00    +0.000 C 
ATOM     20  C   UNL     1       4.553   3.026  20.677  0.00  0.00    +0.000 C 
ENDBRANCH  18  20
BRANCH  18  21
ATOM     21  C   UNL     1       2.589   4.405  20.394  0.00  0.00    +0.000 C 
BRANCH  21  22
ATOM     22  C   UNL     1       2.270   5.853  20.029  0.00  0.00    +0.000 A 
ATOM     23  N   UNL     1       2.766   6.353  18.885  0.00  0.00    +0.000 NA
ATOM     24  C   UNL     1       2.444   7.621  18.626  0.00  0.00    +0.000 A 
ATOM     25  C   UNL     1       1.682   8.447  19.437  0.00  0.00    +0.000 A 
ATOM     26  C   UNL     1       1.367   9.794  19.149  0.00  0.00    +0.000 A 
ATOM     27  C   UNL     1       0.599  10.536  20.041  0.00  0.00    +0.000 A 
ATOM     28  C   UNL     1       0.148   9.936  21.211  0.00  0.00    +0.000 A 
ATOM     29  C   UNL     1       0.467   8.600  21.481  0.00  0.00    +0.000 A 
ATOM     30  C   UNL     1       1.231   7.835  20.607  0.00  0.00    +0.000 A 
ATOM     31  N   UNL     1       1.512   6.556  20.903  0.00  0.00    +0.000 NA
BRANCH  24  32
ATOM     32  O   UNL     1       2.946   8.058  17.441  0.00  0.00    +0.000 OA
ATOM     33  H   UNL     1       3.770   8.476  17.754  0.00  0.00    +0.000 HD
ENDBRANCH  24  32
ENDBRANCH  21  22
ENDBRANCH  18  21
ENDBRANCH   1  18
TORSDOF 8
ENDMDL
MODEL 9
REMARK VINA RESULT:      -7.5      1.458      1.894
REMARK  Name = 
REMARK  9 active torsions:
REMARK  status: ('A' for Active; 'I' for Inactive)
REMARK    1  A    between atoms: C_1  and  C_2
REMARK    2  A    between atoms: C_2  and  N_3
REMARK    3  A    between atoms: N_3  and  C_4
REMARK    4  A    between atoms: N_3  and  C_20
REMARK    5  A    between atoms: C_4  and  C_5
REMARK    6  A    between atoms: N_7  and  C_8
REMARK    7  A    between atoms: C_14  and  N_15
REMARK    8  A    between atoms: C_20  and  C_21
REMARK    9  A    between atoms: C_23  and  O_24
REMARK                            x       y       z     vdW  Elec       q    Type
REMARK                         _______ _______ _______ _____ _____    ______ ____
ROOT
ATOM      1  C   UNL     1       3.585   5.272  19.433  0.00  0.00    +0.000 C 
ENDROOT
BRANCH   1   2
ATOM      2  C   UNL     1       4.509   4.736  18.342  0.00  0.00    +0.000 C 
ATOM      3  O   UNL     1       5.052   3.635  18.432  0.00  0.00    +0.000 OA
ATOM      4  N   UNL     1       4.650   5.593  17.264  0.00  0.00    +0.000 N 
ATOM      5  H   UNL     1       4.597   6.589  17.491  0.00  0.00    +0.000 HD
BRANCH   4   6
ATOM      6  C   UNL     1       5.434   5.271  16.135  0.00  0.00    +0.000 A 
ATOM      7  C   UNL     1       4.847   4.533  15.094  0.00  0.00    +0.000 A 
ATOM      8  C   UNL     1       5.593   4.184  13.974  0.00  0.00    +0.000 A 
ATOM      9 CL   UNL     1       4.871   3.266  12.712  0.00  0.00    +0.000 Cl
ATOM     10  C   UNL     1       6.924   4.574  13.873  0.00  0.00    +0.000 A 
ATOM     11  C   UNL     1       7.517   5.322  14.895  0.00  0.00    +0.000 A 
ATOM     12  C   UNL     1       6.777   5.684  16.036  0.00  0.00    +0.000 A 
BRANCH  12  13
ATOM     13  N   UNL     1       7.426   6.369  17.107  0.00  0.00    +0.000 N 
ATOM     14  C   UNL     1       7.843   5.876  18.321  0.00  0.00    +0.000 A 
ATOM     15  N   UNL     1       8.309   6.841  19.081  0.00  0.00    +0.000 NA
ATOM     16  C   UNL     1       8.185   7.936  18.287  0.00  0.00    +0.000 A 
ATOM     17  N   UNL     1       7.688   7.709  17.071  0.00  0.00    +0.000 NA
ENDBRANCH  12  13
ENDBRANCH   4   6
ENDBRANCH   1   2
BRANCH   1  18
ATOM     18  N   UNL     1       2.305   5.794  18.897  0.00  0.00    +0.000 NA
BRANCH  18  20
ATOM     19  C   UNL     1       1.234   3.557  18.442  0.00  0.00    +0.000 C 
ATOM     20  C   UNL     1       1.687   4.907  17.893  0.00  0.00    +0.000 C 
ENDBRANCH  18  20
BRANCH  18  21
ATOM     21  C   UNL     1       2.448   7.160  18.318  0.00  0.00    +0.000 C 
BRANCH  21  22
ATOM     22  C   UNL     1       1.708   8.294  19.025  0.00  0.00    +0.000 A 
ATOM     23  N   UNL     1       1.437   9.415  18.337  0.00  0.00    +0.000 NA
ATOM     24  C   UNL     1       0.784  10.361  19.014  0.00  0.00    +0.000 A 
ATOM     25  C   UNL     1       0.400  10.287  20.343  0.00  0.00    +0.000 A 
ATOM     26  C   UNL     1      -0.278  11.310  21.046  0.00  0.00    +0.000 A 
ATOM     27  C   UNL     1      -0.609  11.133  22.385  0.00  0.00    +0.000 A 
ATOM     28  C   UNL     1      -0.267   9.944  23.019  0.00  0.00    +0.000 A 
ATOM     29  C   UNL     1       0.403   8.940  22.309  0.00  0.00    +0.000 A 
ATOM     30  C   UNL     1       0.744   9.089  20.970  0.00  0.00    +0.000 A 
ATOM     31  N   UNL     1       1.383   8.100  20.326  0.00  0.00    +0.000 NA
BRANCH  24  32
ATOM     32  O   UNL     1       0.509  11.453  18.255  0.00  0.00    +0.000 OA
ATOM     33  H   UNL     1       0.115  11.019  17.476  0.00  0.00    +0.000 HD
ENDBRANCH  24  32
ENDBRANCH  21  22
ENDBRANCH  18  21
ENDBRANCH   1  18
TORSDOF 8
ENDMDL
