MODEL 1
REMARK VINA RESULT:      -7.5      0.000      0.000
REMARK  Name = 
REMARK  4 active torsions:
REMARK  status: ('A' for Active; 'I' for Inactive)
REMARK    1  A    between atoms: C_1  and  N_2
REMARK    2  A    between atoms: C_8  and  N_9
REMARK    3  A    between atoms: N_9  and  C_10
REMARK    4  A    between atoms: N_9  and  C_11
REMARK                            x       y       z     vdW  Elec       q    Type
REMARK                         _______ _______ _______ _____ _____    ______ ____
ROOT
ATOM      1  C   UNL     1       7.085   4.760  14.237  0.00  0.00    +0.000 C 
ATOM      2  N   UNL     1       6.748   4.693  15.658  0.00  0.00    +0.000 NA
ATOM      3  C   UNL     1       5.533   3.862  15.868  0.00  0.00    +0.000 C 
ATOM      4  C   UNL     1       5.044   3.842  17.344  0.00  0.00    +0.000 C 
ATOM      5  N   UNL     1       4.858   5.230  17.763  0.00  0.00    +0.000 N 
ATOM      6  C   UNL     1       3.878   5.560  18.679  0.00  0.00    +0.000 A 
ATOM      7  C   UNL     1       3.346   6.833  18.628  0.00  0.00    +0.000 A 
ATOM      8  C   UNL     1       2.287   7.150  19.450  0.00  0.00    +0.000 A 
ATOM      9  N   UNL     1       1.847   6.248  20.342  0.00  0.00    +0.000 NA
ATOM     10  C   UNL     1       2.402   5.037  20.327  0.00  0.00    +0.000 A 
ATOM     11  N   UNL     1       1.941   4.126  21.266  0.00  0.00    +0.000 N 
ATOM     12  N   UNL     1       3.391   4.646  19.524  0.00  0.00    +0.000 NA
ATOM     13  C   UNL     1       6.074   6.043  17.670  0.00  0.00    +0.000 C 
ATOM     14  C   UNL     1       6.529   6.056  16.194  0.00  0.00    +0.000 C 
ATOM     15  H   UNL     1       1.517   4.639  22.029  0.00  0.00    +0.000 HD
ATOM     16  H   UNL     1       2.679   3.478  21.494  0.00  0.00    +0.000 HD
ENDROOT
BRANCH   8  17
ATOM     17  N   UNL     1       1.665   8.415  19.369  0.00  0.00    +0.000 N 
ATOM     18  C   UNL     1       1.617   9.078  18.063  0.00  0.00    +0.000 C 
BRANCH  17  19
ATOM     19  C   UNL     1       1.008   9.071  20.434  0.00  0.00    +0.000 A 
ATOM     20  C   UNL     1       0.061  10.075  20.168  0.00  0.00    +0.000 A 
ATOM     21  C   UNL     1      -0.640  10.714  21.195  0.00  0.00    +0.000 A 
ATOM     22  C   UNL     1      -0.395  10.371  22.520  0.00  0.00    +0.000 A 
ATOM     23  C   UNL     1       0.547   9.392  22.815  0.00  0.00    +0.000 A 
ATOM     24  C   UNL     1       1.236   8.747  21.782  0.00  0.00    +0.000 A 
ENDBRANCH  17  19
ENDBRANCH   8  17
TORSDOF 2
ENDMDL
MODEL 2
REMARK VINA RESULT:      -7.5      0.243      1.046
REMARK  Name = 
REMARK  4 active torsions:
REMARK  status: ('A' for Active; 'I' for Inactive)
REMARK    1  A    between atoms: C_1  and  N_2
REMARK    2  A    between atoms: C_8  and  N_9
REMARK    3  A    between atoms: N_9  and  C_10
REMARK    4  A    between atoms: N_9  and  C_11
REMARK                            x       y       z     vdW  Elec       q    Type
REMARK                         _______ _______ _______ _____ _____    ______ ____
ROOT
ATOM      1  C   UNL     1       7.225   4.767  14.540  0.00  0.00    +0.000 C 
ATOM      2  N   UNL     1       6.797   4.642  15.932  0.00  0.00    +0.000 NA
ATOM      3  C   UNL     1       5.534   3.862  16.023  0.00  0.00    +0.000 C 
ATOM      4  C   UNL     1       4.953   3.790  17.463  0.00  0.00    +0.000 C 
ATOM      5  N   UNL     1       4.806   5.161  17.947  0.00  0.00    +0.000 N 
ATOM      6  C   UNL     1       3.787   5.491  18.818  0.00  0.00    +0.000 A 
ATOM      7  C   UNL     1       3.319   6.790  18.806  0.00  0.00    +0.000 A 
ATOM      8  C   UNL     1       2.226   7.115  19.579  0.00  0.00    +0.000 A 
ATOM      9  N   UNL     1       1.689   6.191  20.393  0.00  0.00    +0.000 NA
ATOM     10  C   UNL     1       2.189   4.956  20.344  0.00  0.00    +0.000 A 
ATOM     11  N   UNL     1       1.628   4.022  21.202  0.00  0.00    +0.000 N 
ATOM     12  N   UNL     1       3.207   4.559  19.581  0.00  0.00    +0.000 NA
ATOM     13  C   UNL     1       6.061   5.917  17.971  0.00  0.00    +0.000 C 
ATOM     14  C   UNL     1       6.608   5.985  16.529  0.00  0.00    +0.000 C 
ATOM     15  H   UNL     1       1.181   4.514  21.966  0.00  0.00    +0.000 HD
ATOM     16  H   UNL     1       2.320   3.327  21.438  0.00  0.00    +0.000 HD
ENDROOT
BRANCH   8  17
ATOM     17  N   UNL     1       1.669   8.412  19.531  0.00  0.00    +0.000 N 
ATOM     18  C   UNL     1       1.785   9.167  18.280  0.00  0.00    +0.000 C 
BRANCH  17  19
ATOM     19  C   UNL     1       0.933   9.023  20.571  0.00  0.00    +0.000 A 
ATOM     20  C   UNL     1       1.291   8.806  21.912  0.00  0.00    +0.000 A 
ATOM     21  C   UNL     1       0.613   9.430  22.963  0.00  0.00    +0.000 A 
ATOM     22  C   UNL     1      -0.456  10.277  22.694  0.00  0.00    +0.000 A 
ATOM     23  C   UNL     1      -0.844  10.499  21.377  0.00  0.00    +0.000 A 
ATOM     24  C   UNL     1      -0.153   9.882  20.329  0.00  0.00    +0.000 A 
ENDBRANCH  17  19
ENDBRANCH   8  17
TORSDOF 2
ENDMDL
MODEL 3
REMARK VINA RESULT:      -7.4      4.106      8.393
REMARK  Name = 
REMARK  4 active torsions:
REMARK  status: ('A' for Active; 'I' for Inactive)
REMARK    1  A    between atoms: C_1  and  N_2
REMARK    2  A    between atoms: C_8  and  N_9
REMARK    3  A    between atoms: N_9  and  C_10
REMARK    4  A    between atoms: N_9  and  C_11
REMARK                            x       y       z     vdW  Elec       q    Type
REMARK                         _______ _______ _______ _____ _____    ______ ____
ROOT
ATOM      1  C   UNL     1       0.670   2.311  18.545  0.00  0.00    +0.000 C 
ATOM      2  N   UNL     1       2.059   2.733  18.710  0.00  0.00    +0.000 NA
ATOM      3  C   UNL     1       2.170   4.214  18.622  0.00  0.00    +0.000 C 
ATOM      4  C   UNL     1       3.636   4.729  18.669  0.00  0.00    +0.000 C 
ATOM      5  N   UNL     1       4.377   4.043  17.612  0.00  0.00    +0.000 N 
ATOM      6  C   UNL     1       5.419   4.675  16.964  0.00  0.00    +0.000 A 
ATOM      7  C   UNL     1       5.706   4.291  15.669  0.00  0.00    +0.000 A 
ATOM      8  C   UNL     1       6.661   4.986  14.959  0.00  0.00    +0.000 A 
ATOM      9  N   UNL     1       7.354   5.965  15.563  0.00  0.00    +0.000 NA
ATOM     10  C   UNL     1       7.017   6.286  16.811  0.00  0.00    +0.000 A 
ATOM     11  N   UNL     1       7.755   7.291  17.419  0.00  0.00    +0.000 N 
ATOM     12  N   UNL     1       6.068   5.694  17.537  0.00  0.00    +0.000 NA
ATOM     13  C   UNL     1       4.375   2.583  17.741  0.00  0.00    +0.000 C 
ATOM     14  C   UNL     1       2.911   2.098  17.678  0.00  0.00    +0.000 C 
ATOM     15  H   UNL     1       8.647   7.365  16.946  0.00  0.00    +0.000 HD
ATOM     16  H   UNL     1       7.768   7.140  18.416  0.00  0.00    +0.000 HD
ENDROOT
BRANCH   8  17
ATOM     17  N   UNL     1       6.923   4.674  13.608  0.00  0.00    +0.000 N 
ATOM     18  C   UNL     1       8.145   5.209  13.000  0.00  0.00    +0.000 C 
BRANCH  17  19
ATOM     19  C   UNL     1       6.141   3.816  12.801  0.00  0.00    +0.000 A 
ATOM     20  C   UNL     1       4.820   4.165  12.473  0.00  0.00    +0.000 A 
ATOM     21  C   UNL     1       4.034   3.362  11.642  0.00  0.00    +0.000 A 
ATOM     22  C   UNL     1       4.550   2.177  11.130  0.00  0.00    +0.000 A 
ATOM     23  C   UNL     1       5.849   1.798  11.450  0.00  0.00    +0.000 A 
ATOM     24  C   UNL     1       6.636   2.612  12.272  0.00  0.00    +0.000 A 
ENDBRANCH  17  19
ENDBRANCH   8  17
TORSDOF 2
ENDMDL
MODEL 4
REMARK VINA RESULT:      -7.4      1.510      6.773
REMARK  Name = 
REMARK  4 active torsions:
REMARK  status: ('A' for Active; 'I' for Inactive)
REMARK    1  A    between atoms: C_1  and  N_2
REMARK    2  A    between atoms: C_8  and  N_9
REMARK    3  A    between atoms: N_9  and  C_10
REMARK    4  A    between atoms: N_9  and  C_11
REMARK                            x       y       z     vdW  Elec       q    Type
REMARK                         _______ _______ _______ _____ _____    ______ ____
ROOT
ATOM      1  C   UNL     1       1.174  12.195  20.769  0.00  0.00    +0.000 C 
ATOM      2  N   UNL     1       0.736  10.821  20.535  0.00  0.00    +0.000 NA
ATOM      3  C   UNL     1       1.133   9.945  21.669  0.00  0.00    +0.000 C 
ATOM      4  C   UNL     1       0.804   8.443  21.435  0.00  0.00    +0.000 C 
ATOM      5  N   UNL     1       1.426   8.048  20.172  0.00  0.00    +0.000 N 
ATOM      6  C   UNL     1       1.889   6.761  19.992  0.00  0.00    +0.000 A 
ATOM      7  C   UNL     1       2.928   6.565  19.103  0.00  0.00    +0.000 A 
ATOM      8  C   UNL     1       3.488   5.311  18.993  0.00  0.00    +0.000 A 
ATOM      9  N   UNL     1       2.962   4.286  19.684  0.00  0.00    +0.000 NA
ATOM     10  C   UNL     1       1.966   4.553  20.529  0.00  0.00    +0.000 A 
ATOM     11  N   UNL     1       1.430   3.477  21.222  0.00  0.00    +0.000 N 
ATOM     12  N   UNL     1       1.414   5.750  20.726  0.00  0.00    +0.000 NA
ATOM     13  C   UNL     1       0.965   8.827  19.019  0.00  0.00    +0.000 C 
ATOM     14  C   UNL     1       1.315  10.310  19.271  0.00  0.00    +0.000 C 
ATOM     15  H   UNL     1       1.642   2.629  20.712  0.00  0.00    +0.000 HD
ATOM     16  H   UNL     1       0.462   3.664  21.433  0.00  0.00    +0.000 HD
ENDROOT
BRANCH   8  17
ATOM     17  N   UNL     1       4.603   5.090  18.156  0.00  0.00    +0.000 N 
ATOM     18  C   UNL     1       4.481   4.088  17.093  0.00  0.00    +0.000 C 
BRANCH  17  19
ATOM     19  C   UNL     1       5.815   5.815  18.203  0.00  0.00    +0.000 A 
ATOM     20  C   UNL     1       6.774   5.525  19.188  0.00  0.00    +0.000 A 
ATOM     21  C   UNL     1       8.002   6.191  19.237  0.00  0.00    +0.000 A 
ATOM     22  C   UNL     1       8.292   7.181  18.304  0.00  0.00    +0.000 A 
ATOM     23  C   UNL     1       7.356   7.501  17.327  0.00  0.00    +0.000 A 
ATOM     24  C   UNL     1       6.135   6.821  17.275  0.00  0.00    +0.000 A 
ENDBRANCH  17  19
ENDBRANCH   8  17
TORSDOF 2
ENDMDL
MODEL 5
REMARK VINA RESULT:      -7.3      1.266      7.087
REMARK  Name = 
REMARK  4 active torsions:
REMARK  status: ('A' for Active; 'I' for Inactive)
REMARK    1  A    between atoms: C_1  and  N_2
REMARK    2  A    between atoms: C_8  and  N_9
REMARK    3  A    between atoms: N_9  and  C_10
REMARK    4  A    between atoms: N_9  and  C_11
REMARK                            x       y       z     vdW  Elec       q    Type
REMARK                         _______ _______ _______ _____ _____    ______ ____
ROOT
ATOM      1  C   UNL     1       0.953  12.438  20.146  0.00  0.00    +0.000 C 
ATOM      2  N   UNL     1       0.651  11.021  19.950  0.00  0.00    +0.000 NA
ATOM      3  C   UNL     1       0.933  10.251  21.190  0.00  0.00    +0.000 C 
ATOM      4  C   UNL     1       0.749   8.716  21.021  0.00  0.00    +0.000 C 
ATOM      5  N   UNL     1       1.580   8.296  19.893  0.00  0.00    +0.000 N 
ATOM      6  C   UNL     1       2.154   7.041  19.876  0.00  0.00    +0.000 A 
ATOM      7  C   UNL     1       3.326   6.874  19.165  0.00  0.00    +0.000 A 
ATOM      8  C   UNL     1       3.982   5.664  19.228  0.00  0.00    +0.000 A 
ATOM      9  N   UNL     1       3.431   4.645  19.908  0.00  0.00    +0.000 NA
ATOM     10  C   UNL     1       2.303   4.883  20.577  0.00  0.00    +0.000 A 
ATOM     11  N   UNL     1       1.745   3.813  21.261  0.00  0.00    +0.000 N 
ATOM     12  N   UNL     1       1.645   6.042  20.604  0.00  0.00    +0.000 NA
ATOM     13  C   UNL     1       1.244   8.963  18.632  0.00  0.00    +0.000 C 
ATOM     14  C   UNL     1       1.448  10.482  18.825  0.00  0.00    +0.000 C 
ATOM     15  H   UNL     1       2.090   2.954  20.850  0.00  0.00    +0.000 HD
ATOM     16  H   UNL     1       0.746   3.934  21.314  0.00  0.00    +0.000 HD
ENDROOT
BRANCH   8  17
ATOM     17  N   UNL     1       5.223   5.483  18.580  0.00  0.00    +0.000 N 
ATOM     18  C   UNL     1       6.437   5.474  19.403  0.00  0.00    +0.000 C 
BRANCH  17  19
ATOM     19  C   UNL     1       5.394   5.226  17.201  0.00  0.00    +0.000 A 
ATOM     20  C   UNL     1       5.696   3.928  16.756  0.00  0.00    +0.000 A 
ATOM     21  C   UNL     1       5.828   3.630  15.397  0.00  0.00    +0.000 A 
ATOM     22  C   UNL     1       5.676   4.635  14.448  0.00  0.00    +0.000 A 
ATOM     23  C   UNL     1       5.393   5.933  14.859  0.00  0.00    +0.000 A 
ATOM     24  C   UNL     1       5.249   6.222  16.220  0.00  0.00    +0.000 A 
ENDBRANCH  17  19
ENDBRANCH   8  17
TORSDOF 2
ENDMDL
MODEL 6
REMARK VINA RESULT:      -7.3      4.116      8.387
REMARK  Name = 
REMARK  4 active torsions:
REMARK  status: ('A' for Active; 'I' for Inactive)
REMARK    1  A    between atoms: C_1  and  N_2
REMARK    2  A    between atoms: C_8  and  N_9
REMARK    3  A    between atoms: N_9  and  C_10
REMARK    4  A    between atoms: N_9  and  C_11
REMARK                            x       y       z     vdW  Elec       q    Type
REMARK                         _______ _______ _______ _____ _____    ______ ____
ROOT
ATOM      1  C   UNL     1       0.653   2.326  18.495  0.00  0.00    +0.000 C 
ATOM      2  N   UNL     1       2.049   2.713  18.690  0.00  0.00    +0.000 NA
ATOM      3  C   UNL     1       2.188   4.194  18.674  0.00  0.00    +0.000 C 
ATOM      4  C   UNL     1       3.663   4.678  18.757  0.00  0.00    +0.000 C 
ATOM      5  N   UNL     1       4.400   4.029  17.674  0.00  0.00    +0.000 N 
ATOM      6  C   UNL     1       5.460   4.671  17.065  0.00  0.00    +0.000 A 
ATOM      7  C   UNL     1       5.750   4.343  15.755  0.00  0.00    +0.000 A 
ATOM      8  C   UNL     1       6.724   5.052  15.087  0.00  0.00    +0.000 A 
ATOM      9  N   UNL     1       7.431   5.988  15.743  0.00  0.00    +0.000 NA
ATOM     10  C   UNL     1       7.089   6.256  17.002  0.00  0.00    +0.000 A 
ATOM     11  N   UNL     1       7.841   7.216  17.663  0.00  0.00    +0.000 N 
ATOM     12  N   UNL     1       6.123   5.649  17.691  0.00  0.00    +0.000 NA
ATOM     13  C   UNL     1       4.370   2.565  17.733  0.00  0.00    +0.000 C 
ATOM     14  C   UNL     1       2.897   2.112  17.636  0.00  0.00    +0.000 C 
ATOM     15  H   UNL     1       8.738   7.295  17.201  0.00  0.00    +0.000 HD
ATOM     16  H   UNL     1       7.842   7.018  18.652  0.00  0.00    +0.000 HD
ENDROOT
BRANCH   8  17
ATOM     17  N   UNL     1       6.992   4.800  13.725  0.00  0.00    +0.000 N 
ATOM     18  C   UNL     1       8.202   5.385  13.139  0.00  0.00    +0.000 C 
BRANCH  17  19
ATOM     19  C   UNL     1       6.229   3.959  12.884  0.00  0.00    +0.000 A 
ATOM     20  C   UNL     1       6.828   2.850  12.262  0.00  0.00    +0.000 A 
ATOM     21  C   UNL     1       6.093   1.972  11.461  0.00  0.00    +0.000 A 
ATOM     22  C   UNL     1       4.737   2.194  11.250  0.00  0.00    +0.000 A 
ATOM     23  C   UNL     1       4.120   3.292  11.840  0.00  0.00    +0.000 A 
ATOM     24  C   UNL     1       4.858   4.160  12.652  0.00  0.00    +0.000 A 
ENDBRANCH  17  19
ENDBRANCH   8  17
TORSDOF 2
ENDMDL
MODEL 7
REMARK VINA RESULT:      -7.3      1.539      7.227
REMARK  Name = 
REMARK  4 active torsions:
REMARK  status: ('A' for Active; 'I' for Inactive)
REMARK    1  A    between atoms: C_1  and  N_2
REMARK    2  A    between atoms: C_8  and  N_9
REMARK    3  A    between atoms: N_9  and  C_10
REMARK    4  A    between atoms: N_9  and  C_11
REMARK                            x       y       z     vdW  Elec       q    Type
REMARK                         _______ _______ _______ _____ _____    ______ ____
ROOT
ATOM      1  C   UNL     1       1.149  11.447  19.500  0.00  0.00    +0.000 C 
ATOM      2  N   UNL     1       1.009  10.001  19.333  0.00  0.00    +0.000 NA
ATOM      3  C   UNL     1       1.451   9.288  20.561  0.00  0.00    +0.000 C 
ATOM      4  C   UNL     1       1.443   7.740  20.415  0.00  0.00    +0.000 C 
ATOM      5  N   UNL     1       2.253   7.405  19.244  0.00  0.00    +0.000 N 
ATOM      6  C   UNL     1       2.972   6.228  19.204  0.00  0.00    +0.000 A 
ATOM      7  C   UNL     1       4.114   6.192  18.428  0.00  0.00    +0.000 A 
ATOM      8  C   UNL     1       4.913   5.070  18.463  0.00  0.00    +0.000 A 
ATOM      9  N   UNL     1       4.527   4.003  19.182  0.00  0.00    +0.000 NA
ATOM     10  C   UNL     1       3.418   4.114  19.913  0.00  0.00    +0.000 A 
ATOM     11  N   UNL     1       3.032   2.995  20.635  0.00  0.00    +0.000 N 
ATOM     12  N   UNL     1       2.628   5.186  19.968  0.00  0.00    +0.000 NA
ATOM     13  C   UNL     1       1.770   8.010  18.000  0.00  0.00    +0.000 C 
ATOM     14  C   UNL     1       1.801   9.544  18.168  0.00  0.00    +0.000 C 
ATOM     15  H   UNL     1       3.454   2.178  20.212  0.00  0.00    +0.000 HD
ATOM     16  H   UNL     1       2.029   2.997  20.745  0.00  0.00    +0.000 HD
ENDROOT
BRANCH   8  17
ATOM     17  N   UNL     1       6.129   5.028  17.747  0.00  0.00    +0.000 N 
ATOM     18  C   UNL     1       7.378   5.194  18.496  0.00  0.00    +0.000 C 
BRANCH  17  19
ATOM     19  C   UNL     1       6.253   4.759  16.365  0.00  0.00    +0.000 A 
ATOM     20  C   UNL     1       5.278   3.991  15.705  0.00  0.00    +0.000 A 
ATOM     21  C   UNL     1       5.346   3.743  14.331  0.00  0.00    +0.000 A 
ATOM     22  C   UNL     1       6.407   4.246  13.586  0.00  0.00    +0.000 A 
ATOM     23  C   UNL     1       7.395   4.996  14.215  0.00  0.00    +0.000 A 
ATOM     24  C   UNL     1       7.314   5.253  15.588  0.00  0.00    +0.000 A 
ENDBRANCH  17  19
ENDBRANCH   8  17
TORSDOF 2
ENDMDL
MODEL 8
REMARK VINA RESULT:      -7.1      1.330      7.214
REMARK  Name = 
REMARK  4 active torsions:
REMARK  status: ('A' for Active; 'I' for Inactive)
REMARK    1  A    between atoms: C_1  and  N_2
REMARK    2  A    between atoms: C_8  and  N_9
REMARK    3  A    between atoms: N_9  and  C_10
REMARK    4  A    between atoms: N_9  and  C_11
REMARK                            x       y       z     vdW  Elec       q    Type
REMARK                         _______ _______ _______ _____ _____    ______ ____
ROOT
ATOM      1  C   UNL     1       0.893  11.492  20.818  0.00  0.00    +0.000 C 
ATOM      2  N   UNL     1       0.725  10.088  20.446  0.00  0.00    +0.000 NA
ATOM      3  C   UNL     1       1.125   9.198  21.568  0.00  0.00    +0.000 C 
ATOM      4  C   UNL     1       1.086   7.687  21.203  0.00  0.00    +0.000 C 
ATOM      5  N   UNL     1       1.912   7.501  20.011  0.00  0.00    +0.000 N 
ATOM      6  C   UNL     1       2.605   6.323  19.815  0.00  0.00    +0.000 A 
ATOM      7  C   UNL     1       3.761   6.369  19.061  0.00  0.00    +0.000 A 
ATOM      8  C   UNL     1       4.534   5.234  18.950  0.00  0.00    +0.000 A 
ATOM      9  N   UNL     1       4.110   4.086  19.503  0.00  0.00    +0.000 NA
ATOM     10  C   UNL     1       2.989   4.120  20.224  0.00  0.00    +0.000 A 
ATOM     11  N   UNL     1       2.564   2.920  20.774  0.00  0.00    +0.000 N 
ATOM     12  N   UNL     1       2.223   5.193  20.418  0.00  0.00    +0.000 NA
ATOM     13  C   UNL     1       1.467   8.287  18.856  0.00  0.00    +0.000 C 
ATOM     14  C   UNL     1       1.529   9.781  19.241  0.00  0.00    +0.000 C 
ATOM     15  H   UNL     1       2.976   2.160  20.246  0.00  0.00    +0.000 HD
ATOM     16  H   UNL     1       1.560   2.931  20.866  0.00  0.00    +0.000 HD
ENDROOT
BRANCH   8  17
ATOM     17  N   UNL     1       5.762   5.264  18.255  0.00  0.00    +0.000 N 
ATOM     18  C   UNL     1       6.983   5.531  19.022  0.00  0.00    +0.000 C 
BRANCH  17  19
ATOM     19  C   UNL     1       5.930   4.977  16.881  0.00  0.00    +0.000 A 
ATOM     20  C   UNL     1       7.125   5.325  16.228  0.00  0.00    +0.000 A 
ATOM     21  C   UNL     1       7.343   5.018  14.883  0.00  0.00    +0.000 A 
ATOM     22  C   UNL     1       6.356   4.365  14.151  0.00  0.00    +0.000 A 
ATOM     23  C   UNL     1       5.157   4.022  14.766  0.00  0.00    +0.000 A 
ATOM     24  C   UNL     1       4.951   4.321  16.117  0.00  0.00    +0.000 A 
ENDBRANCH  17  19
ENDBRANCH   8  17
TORSDOF 2
ENDMDL
MODEL 9
REMARK VINA RESULT:      -7.0      2.769      4.698
REMARK  Name = 
REMARK  4 active torsions:
REMARK  status: ('A' for Active; 'I' for Inactive)
REMARK    1  A    between atoms: C_1  and  N_2
REMARK    2  A    between atoms: C_8  and  N_9
REMARK    3  A    between atoms: N_9  and  C_10
REMARK    4  A    between atoms: N_9  and  C_11
REMARK                            x       y       z     vdW  Elec       q    Type
REMARK                         _______ _______ _______ _____ _____    ______ ____
ROOT
ATOM      1  C   UNL     1       3.184   3.778  17.488  0.00  0.00    +0.000 C 
ATOM      2  N   UNL     1       3.231   4.784  18.547  0.00  0.00    +0.000 NA
ATOM      3  C   UNL     1       2.066   4.638  19.459  0.00  0.00    +0.000 C 
ATOM      4  C   UNL     1       1.984   5.750  20.543  0.00  0.00    +0.000 C 
ATOM      5  N   UNL     1       2.002   7.039  19.852  0.00  0.00    +0.000 N 
ATOM      6  C   UNL     1       1.322   8.122  20.371  0.00  0.00    +0.000 A 
ATOM      7  C   UNL     1       0.876   9.089  19.492  0.00  0.00    +0.000 A 
ATOM      8  C   UNL     1       0.094  10.118  19.969  0.00  0.00    +0.000 A 
ATOM      9  N   UNL     1      -0.150  10.210  21.287  0.00  0.00    +0.000 NA
ATOM     10  C   UNL     1       0.305   9.235  22.073  0.00  0.00    +0.000 A 
ATOM     11  N   UNL     1       0.053   9.359  23.431  0.00  0.00    +0.000 N 
ATOM     12  N   UNL     1       1.021   8.184  21.672  0.00  0.00    +0.000 NA
ATOM     13  C   UNL     1       3.198   7.252  19.031  0.00  0.00    +0.000 C 
ATOM     14  C   UNL     1       3.248   6.143  17.958  0.00  0.00    +0.000 C 
ATOM     15  H   UNL     1      -0.122  10.334  23.638  0.00  0.00    +0.000 HD
ATOM     16  H   UNL     1       0.784   8.896  23.950  0.00  0.00    +0.000 HD
ENDROOT
BRANCH   8  17
ATOM     17  N   UNL     1      -0.447  11.079  19.088  0.00  0.00    +0.000 N 
ATOM     18  C   UNL     1       0.330  12.295  18.831  0.00  0.00    +0.000 C 
BRANCH  17  19
ATOM     19  C   UNL     1      -1.652  10.936  18.363  0.00  0.00    +0.000 A 
ATOM     20  C   UNL     1      -2.765  11.734  18.678  0.00  0.00    +0.000 A 
ATOM     21  C   UNL     1      -3.957  11.650  17.953  0.00  0.00    +0.000 A 
ATOM     22  C   UNL     1      -4.067  10.748  16.900  0.00  0.00    +0.000 A 
ATOM     23  C   UNL     1      -2.988   9.934  16.576  0.00  0.00    +0.000 A 
ATOM     24  C   UNL     1      -1.793  10.032  17.297  0.00  0.00    +0.000 A 
ENDBRANCH  17  19
ENDBRANCH   8  17
TORSDOF 2
ENDMDL
