MODEL 1
REMARK VINA RESULT:      -8.4      0.000      0.000
REMARK  Name = 
REMARK  5 active torsions:
REMARK  status: ('A' for Active; 'I' for Inactive)
REMARK    1  A    between atoms: C_2  and  C_15
REMARK    2  A    between atoms: C_6  and  C_7
REMARK    3  A    between atoms: C_20  and  N_21
REMARK    4  A    between atoms: N_21  and  S_22
REMARK    5  A    between atoms: S_22  and  C_25
REMARK                            x       y       z     vdW  Elec       q    Type
REMARK                         _______ _______ _______ _____ _____    ______ ____
ROOT
ATOM      1  C   UNL     1       2.728   4.802  18.843  0.00  0.00    +0.000 A 
ATOM      2  C   UNL     1       1.792   3.871  18.363  0.00  0.00    +0.000 A 
ATOM      3  C   UNL     1       2.243   2.648  17.901  0.00  0.00    +0.000 A 
ATOM      4  N   UNL     1       3.540   2.307  17.851  0.00  0.00    +0.000 NA
ATOM      5  C   UNL     1       4.434   3.234  18.275  0.00  0.00    +0.000 A 
ATOM      6  C   UNL     1       4.100   4.501  18.748  0.00  0.00    +0.000 A 
ENDROOT
BRANCH   1   8
ATOM      7  O   UNL     1       1.942   6.074  20.644  0.00  0.00    +0.000 OA
ATOM      8  C   UNL     1       2.235   6.078  19.452  0.00  0.00    +0.000 C 
ATOM      9  N   UNL     1       2.193   7.158  18.588  0.00  0.00    +0.000 N 
ATOM     10  C   UNL     1       1.719   8.392  18.943  0.00  0.00    +0.000 A 
ATOM     11  N   UNL     1       1.056   8.767  20.000  0.00  0.00    +0.000 NA
ATOM     12  C   UNL     1       0.834  10.139  19.951  0.00  0.00    +0.000 A 
ATOM     13  C   UNL     1       1.377  10.774  18.848  0.00  0.00    +0.000 A 
ATOM     14  S   UNL     1       2.080   9.613  17.799  0.00  0.00    +0.000 S 
ATOM     15  H   UNL     1       2.533   7.104  17.642  0.00  0.00    +0.000 HD
BRANCH  12  16
ATOM     16  C   UNL     1       0.129  10.828  21.026  0.00  0.00    +0.000 A 
ATOM     17  C   UNL     1      -0.402  10.080  22.085  0.00  0.00    +0.000 A 
ATOM     18  C   UNL     1      -1.087  10.707  23.128  0.00  0.00    +0.000 A 
ATOM     19  C   UNL     1      -1.256  12.090  23.119  0.00  0.00    +0.000 A 
ATOM     20  C   UNL     1      -0.736  12.847  22.072  0.00  0.00    +0.000 A 
ATOM     21  C   UNL     1      -0.047  12.220  21.029  0.00  0.00    +0.000 A 
ENDBRANCH  12  16
ENDBRANCH   1   8
BRANCH   6  22
ATOM     22  N   UNL     1       5.165   5.332  19.241  0.00  0.00    +0.000 N 
ATOM     23  H   UNL     1       5.812   4.907  19.915  0.00  0.00    +0.000 HD
BRANCH  22  24
ATOM     24  S   UNL     1       5.855   6.353  18.078  0.00  0.00    +0.000 S 
ATOM     25  O   UNL     1       4.912   7.410  17.797  0.00  0.00    +0.000 OA
ATOM     26  O   UNL     1       7.196   6.657  18.541  0.00  0.00    +0.000 OA
BRANCH  24  27
ATOM     27  C   UNL     1       6.047   5.454  16.576  0.00  0.00    +0.000 A 
ATOM     28  C   UNL     1       5.146   5.753  15.535  0.00  0.00    +0.000 A 
ATOM     29  C   UNL     1       5.228   5.072  14.325  0.00  0.00    +0.000 A 
ATOM     30  C   UNL     1       6.205   4.098  14.164  0.00  0.00    +0.000 A 
ATOM     31  F   UNL     1       6.284   3.433  13.002  0.00  0.00    +0.000 F 
ATOM     32  C   UNL     1       7.102   3.795  15.184  0.00  0.00    +0.000 A 
ATOM     33  C   UNL     1       7.018   4.484  16.390  0.00  0.00    +0.000 A 
ATOM     34  F   UNL     1       7.910   4.199  17.351  0.00  0.00    +0.000 F 
ENDBRANCH  24  27
ENDBRANCH  22  24
ENDBRANCH   6  22
TORSDOF 5
ENDMDL
MODEL 2
REMARK VINA RESULT:      -8.4      2.753      7.887
REMARK  Name = 
REMARK  5 active torsions:
REMARK  status: ('A' for Active; 'I' for Inactive)
REMARK    1  A    between atoms: C_2  and  C_15
REMARK    2  A    between atoms: C_6  and  C_7
REMARK    3  A    between atoms: C_20  and  N_21
REMARK    4  A    between atoms: N_21  and  S_22
REMARK    5  A    between atoms: S_22  and  C_25
REMARK                            x       y       z     vdW  Elec       q    Type
REMARK                         _______ _______ _______ _____ _____    ______ ____
ROOT
ATOM      1  C   UNL     1       2.218   7.914  18.875  0.00  0.00    +0.000 A 
ATOM      2  C   UNL     1       1.473   9.061  18.554  0.00  0.00    +0.000 A 
ATOM      3  C   UNL     1       0.700   9.653  19.535  0.00  0.00    +0.000 A 
ATOM      4  N   UNL     1       0.590   9.171  20.784  0.00  0.00    +0.000 NA
ATOM      5  C   UNL     1       1.278   8.039  21.066  0.00  0.00    +0.000 A 
ATOM      6  C   UNL     1       2.078   7.348  20.157  0.00  0.00    +0.000 A 
ENDROOT
BRANCH   1   8
ATOM      7  O   UNL     1       3.021   7.710  16.687  0.00  0.00    +0.000 OA
ATOM      8  C   UNL     1       3.146   7.340  17.850  0.00  0.00    +0.000 C 
ATOM      9  N   UNL     1       4.089   6.457  18.347  0.00  0.00    +0.000 N 
ATOM     10  C   UNL     1       4.985   5.787  17.560  0.00  0.00    +0.000 A 
ATOM     11  N   UNL     1       5.035   5.656  16.264  0.00  0.00    +0.000 NA
ATOM     12  C   UNL     1       6.165   4.926  15.911  0.00  0.00    +0.000 A 
ATOM     13  C   UNL     1       6.967   4.549  16.974  0.00  0.00    +0.000 A 
ATOM     14  S   UNL     1       6.231   5.022  18.451  0.00  0.00    +0.000 S 
ATOM     15  H   UNL     1       4.184   6.269  19.332  0.00  0.00    +0.000 HD
BRANCH  12  16
ATOM     16  C   UNL     1       6.476   4.647  14.514  0.00  0.00    +0.000 A 
ATOM     17  C   UNL     1       7.522   5.345  13.894  0.00  0.00    +0.000 A 
ATOM     18  C   UNL     1       7.844   5.107  12.556  0.00  0.00    +0.000 A 
ATOM     19  C   UNL     1       7.119   4.173  11.821  0.00  0.00    +0.000 A 
ATOM     20  C   UNL     1       6.076   3.471  12.422  0.00  0.00    +0.000 A 
ATOM     21  C   UNL     1       5.755   3.707  13.762  0.00  0.00    +0.000 A 
ENDBRANCH  12  16
ENDBRANCH   1   8
BRANCH   6  22
ATOM     22  N   UNL     1       2.810   6.209  20.642  0.00  0.00    +0.000 N 
ATOM     23  H   UNL     1       3.486   6.379  21.397  0.00  0.00    +0.000 HD
BRANCH  22  24
ATOM     24  S   UNL     1       1.901   4.784  20.753  0.00  0.00    +0.000 S 
ATOM     25  O   UNL     1       2.108   4.225  22.069  0.00  0.00    +0.000 OA
ATOM     26  O   UNL     1       0.567   5.108  20.284  0.00  0.00    +0.000 OA
BRANCH  24  27
ATOM     27  C   UNL     1       2.549   3.608  19.613  0.00  0.00    +0.000 A 
ATOM     28  C   UNL     1       3.474   2.674  20.119  0.00  0.00    +0.000 A 
ATOM     29  C   UNL     1       4.039   1.724  19.274  0.00  0.00    +0.000 A 
ATOM     30  C   UNL     1       3.679   1.717  17.932  0.00  0.00    +0.000 A 
ATOM     31  F   UNL     1       4.226   0.808  17.111  0.00  0.00    +0.000 F 
ATOM     32  C   UNL     1       2.765   2.633  17.421  0.00  0.00    +0.000 A 
ATOM     33  C   UNL     1       2.200   3.577  18.274  0.00  0.00    +0.000 A 
ATOM     34  F   UNL     1       1.299   4.434  17.769  0.00  0.00    +0.000 F 
ENDBRANCH  24  27
ENDBRANCH  22  24
ENDBRANCH   6  22
TORSDOF 5
ENDMDL
MODEL 3
REMARK VINA RESULT:      -8.2      2.638      3.688
REMARK  Name = 
REMARK  5 active torsions:
REMARK  status: ('A' for Active; 'I' for Inactive)
REMARK    1  A    between atoms: C_2  and  C_15
REMARK    2  A    between atoms: C_6  and  C_7
REMARK    3  A    between atoms: C_20  and  N_21
REMARK    4  A    between atoms: N_21  and  S_22
REMARK    5  A    between atoms: S_22  and  C_25
REMARK                            x       y       z     vdW  Elec       q    Type
REMARK                         _______ _______ _______ _____ _____    ______ ____
ROOT
ATOM      1  C   UNL     1       2.352   5.098  20.127  0.00  0.00    +0.000 A 
ATOM      2  C   UNL     1       1.807   4.458  21.252  0.00  0.00    +0.000 A 
ATOM      3  C   UNL     1       2.134   3.136  21.494  0.00  0.00    +0.000 A 
ATOM      4  N   UNL     1       2.924   2.409  20.689  0.00  0.00    +0.000 NA
ATOM      5  C   UNL     1       3.405   3.026  19.583  0.00  0.00    +0.000 A 
ATOM      6  C   UNL     1       3.134   4.347  19.229  0.00  0.00    +0.000 A 
ENDROOT
BRANCH   1   8
ATOM      7  O   UNL     1       2.534   7.089  18.911  0.00  0.00    +0.000 OA
ATOM      8  C   UNL     1       2.095   6.559  19.927  0.00  0.00    +0.000 C 
ATOM      9  N   UNL     1       1.343   7.159  20.921  0.00  0.00    +0.000 N 
ATOM     10  C   UNL     1       1.052   8.497  20.945  0.00  0.00    +0.000 A 
ATOM     11  N   UNL     1       1.537   9.477  20.236  0.00  0.00    +0.000 NA
ATOM     12  C   UNL     1       0.896  10.663  20.577  0.00  0.00    +0.000 A 
ATOM     13  C   UNL     1      -0.097  10.531  21.532  0.00  0.00    +0.000 A 
ATOM     14  S   UNL     1      -0.149   8.909  22.092  0.00  0.00    +0.000 S 
ATOM     15  H   UNL     1       0.944   6.637  21.684  0.00  0.00    +0.000 HD
BRANCH  12  16
ATOM     16  C   UNL     1       1.233  11.919  19.918  0.00  0.00    +0.000 A 
ATOM     17  C   UNL     1       0.848  13.128  20.513  0.00  0.00    +0.000 A 
ATOM     18  C   UNL     1       1.150  14.350  19.905  0.00  0.00    +0.000 A 
ATOM     19  C   UNL     1       1.834  14.374  18.692  0.00  0.00    +0.000 A 
ATOM     20  C   UNL     1       2.222  13.180  18.087  0.00  0.00    +0.000 A 
ATOM     21  C   UNL     1       1.923  11.958  18.696  0.00  0.00    +0.000 A 
ENDBRANCH  12  16
ENDBRANCH   1   8
BRANCH   6  22
ATOM     22  N   UNL     1       3.796   4.876  18.067  0.00  0.00    +0.000 N 
ATOM     23  H   UNL     1       3.549   5.833  17.786  0.00  0.00    +0.000 HD
BRANCH  22  24
ATOM     24  S   UNL     1       5.431   4.454  17.936  0.00  0.00    +0.000 S 
ATOM     25  O   UNL     1       5.814   3.770  19.149  0.00  0.00    +0.000 OA
ATOM     26  O   UNL     1       5.591   3.817  16.642  0.00  0.00    +0.000 OA
BRANCH  24  27
ATOM     27  C   UNL     1       6.395   5.927  17.878  0.00  0.00    +0.000 A 
ATOM     28  C   UNL     1       7.504   5.997  18.744  0.00  0.00    +0.000 A 
ATOM     29  C   UNL     1       8.302   7.136  18.764  0.00  0.00    +0.000 A 
ATOM     30  C   UNL     1       7.985   8.196  17.923  0.00  0.00    +0.000 A 
ATOM     31  F   UNL     1       8.747   9.300  17.944  0.00  0.00    +0.000 F 
ATOM     32  C   UNL     1       6.894   8.138  17.062  0.00  0.00    +0.000 A 
ATOM     33  C   UNL     1       6.103   6.993  17.044  0.00  0.00    +0.000 A 
ATOM     34  F   UNL     1       5.072   6.944  16.186  0.00  0.00    +0.000 F 
ENDBRANCH  24  27
ENDBRANCH  22  24
ENDBRANCH   6  22
TORSDOF 5
ENDMDL
MODEL 4
REMARK VINA RESULT:      -8.2      5.576     10.091
REMARK  Name = 
REMARK  5 active torsions:
REMARK  status: ('A' for Active; 'I' for Inactive)
REMARK    1  A    between atoms: C_2  and  C_15
REMARK    2  A    between atoms: C_6  and  C_7
REMARK    3  A    between atoms: C_20  and  N_21
REMARK    4  A    between atoms: N_21  and  S_22
REMARK    5  A    between atoms: S_22  and  C_25
REMARK                            x       y       z     vdW  Elec       q    Type
REMARK                         _______ _______ _______ _____ _____    ______ ____
ROOT
ATOM      1  C   UNL     1       0.944  11.501  18.831  0.00  0.00    +0.000 A 
ATOM      2  C   UNL     1       2.096  12.244  18.526  0.00  0.00    +0.000 A 
ATOM      3  C   UNL     1       2.007  13.623  18.466  0.00  0.00    +0.000 A 
ATOM      4  N   UNL     1       0.862  14.300  18.650  0.00  0.00    +0.000 NA
ATOM      5  C   UNL     1      -0.250  13.567  18.897  0.00  0.00    +0.000 A 
ATOM      6  C   UNL     1      -0.285  12.176  18.968  0.00  0.00    +0.000 A 
ENDROOT
BRANCH   1   8
ATOM      7  O   UNL     1       0.221   9.454  19.703  0.00  0.00    +0.000 OA
ATOM      8  C   UNL     1       1.062  10.019  19.012  0.00  0.00    +0.000 C 
ATOM      9  N   UNL     1       2.117   9.433  18.336  0.00  0.00    +0.000 N 
ATOM     10  C   UNL     1       2.423   8.102  18.424  0.00  0.00    +0.000 A 
ATOM     11  N   UNL     1       1.984   7.189  19.244  0.00  0.00    +0.000 NA
ATOM     12  C   UNL     1       2.543   5.958  18.916  0.00  0.00    +0.000 A 
ATOM     13  C   UNL     1       3.379   5.976  17.814  0.00  0.00    +0.000 A 
ATOM     14  S   UNL     1       3.557   7.587  17.249  0.00  0.00    +0.000 S 
ATOM     15  H   UNL     1       2.716   9.953  17.717  0.00  0.00    +0.000 HD
BRANCH  12  16
ATOM     16  C   UNL     1       2.205   4.753  19.665  0.00  0.00    +0.000 A 
ATOM     17  C   UNL     1       1.617   3.673  18.992  0.00  0.00    +0.000 A 
ATOM     18  C   UNL     1       1.275   2.505  19.680  0.00  0.00    +0.000 A 
ATOM     19  C   UNL     1       1.513   2.408  21.049  0.00  0.00    +0.000 A 
ATOM     20  C   UNL     1       2.096   3.474  21.731  0.00  0.00    +0.000 A 
ATOM     21  C   UNL     1       2.440   4.641  21.044  0.00  0.00    +0.000 A 
ENDBRANCH  12  16
ENDBRANCH   1   8
BRANCH   6  22
ATOM     22  N   UNL     1      -1.532  11.556  19.327  0.00  0.00    +0.000 N 
ATOM     23  H   UNL     1      -2.025  11.941  20.141  0.00  0.00    +0.000 HD
BRANCH  22  24
ATOM     24  S   UNL     1      -2.495  11.102  18.009  0.00  0.00    +0.000 S 
ATOM     25  O   UNL     1      -2.000  11.786  16.838  0.00  0.00    +0.000 OA
ATOM     26  O   UNL     1      -2.585   9.654  18.043  0.00  0.00    +0.000 OA
BRANCH  24  27
ATOM     27  C   UNL     1      -4.131  11.699  18.271  0.00  0.00    +0.000 A 
ATOM     28  C   UNL     1      -4.390  12.329  19.504  0.00  0.00    +0.000 A 
ATOM     29  C   UNL     1      -5.663  12.813  19.787  0.00  0.00    +0.000 A 
ATOM     30  C   UNL     1      -6.668  12.661  18.839  0.00  0.00    +0.000 A 
ATOM     31  F   UNL     1      -7.899  13.120  19.109  0.00  0.00    +0.000 F 
ATOM     32  C   UNL     1      -6.424  12.044  17.616  0.00  0.00    +0.000 A 
ATOM     33  C   UNL     1      -5.146  11.567  17.338  0.00  0.00    +0.000 A 
ATOM     34  F   UNL     1      -4.924  11.000  16.142  0.00  0.00    +0.000 F 
ENDBRANCH  24  27
ENDBRANCH  22  24
ENDBRANCH   6  22
TORSDOF 5
ENDMDL
MODEL 5
REMARK VINA RESULT:      -8.1      5.468     10.280
REMARK  Name = 
REMARK  5 active torsions:
REMARK  status: ('A' for Active; 'I' for Inactive)
REMARK    1  A    between atoms: C_2  and  C_15
REMARK    2  A    between atoms: C_6  and  C_7
REMARK    3  A    between atoms: C_20  and  N_21
REMARK    4  A    between atoms: N_21  and  S_22
REMARK    5  A    between atoms: S_22  and  C_25
REMARK                            x       y       z     vdW  Elec       q    Type
REMARK                         _______ _______ _______ _____ _____    ______ ____
ROOT
ATOM      1  C   UNL     1       1.177  12.989  18.820  0.00  0.00    +0.000 A 
ATOM      2  C   UNL     1       1.985  13.946  19.457  0.00  0.00    +0.000 A 
ATOM      3  C   UNL     1       1.472  15.210  19.685  0.00  0.00    +0.000 A 
ATOM      4  N   UNL     1       0.244  15.592  19.299  0.00  0.00    +0.000 NA
ATOM      5  C   UNL     1      -0.506  14.671  18.646  0.00  0.00    +0.000 A 
ATOM      6  C   UNL     1      -0.092  13.375  18.348  0.00  0.00    +0.000 A 
ENDROOT
BRANCH   1   8
ATOM      7  O   UNL     1       2.501  11.358  17.789  0.00  0.00    +0.000 OA
ATOM      8  C   UNL     1       1.687  11.588  18.678  0.00  0.00    +0.000 C 
ATOM      9  N   UNL     1       1.194  10.692  19.610  0.00  0.00    +0.000 N 
ATOM     10  C   UNL     1       1.497   9.358  19.608  0.00  0.00    +0.000 A 
ATOM     11  N   UNL     1       2.085   8.629  18.702  0.00  0.00    +0.000 NA
ATOM     12  C   UNL     1       2.224   7.325  19.167  0.00  0.00    +0.000 A 
ATOM     13  C   UNL     1       1.754   7.116  20.451  0.00  0.00    +0.000 A 
ATOM     14  S   UNL     1       1.023   8.552  21.042  0.00  0.00    +0.000 S 
ATOM     15  H   UNL     1       0.593  10.977  20.365  0.00  0.00    +0.000 HD
BRANCH  12  16
ATOM     16  C   UNL     1       2.871   6.300  18.356  0.00  0.00    +0.000 A 
ATOM     17  C   UNL     1       3.966   6.652  17.556  0.00  0.00    +0.000 A 
ATOM     18  C   UNL     1       4.606   5.696  16.763  0.00  0.00    +0.000 A 
ATOM     19  C   UNL     1       4.154   4.379  16.758  0.00  0.00    +0.000 A 
ATOM     20  C   UNL     1       3.066   4.014  17.548  0.00  0.00    +0.000 A 
ATOM     21  C   UNL     1       2.426   4.969  18.343  0.00  0.00    +0.000 A 
ENDBRANCH  12  16
ENDBRANCH   1   8
BRANCH   6  22
ATOM     22  N   UNL     1      -1.044  12.495  17.725  0.00  0.00    +0.000 N 
ATOM     23  H   UNL     1      -0.751  12.034  16.856  0.00  0.00    +0.000 HD
BRANCH  22  24
ATOM     24  S   UNL     1      -1.945  11.555  18.809  0.00  0.00    +0.000 S 
ATOM     25  O   UNL     1      -1.748  10.166  18.464  0.00  0.00    +0.000 OA
ATOM     26  O   UNL     1      -1.631  12.043  20.139  0.00  0.00    +0.000 OA
BRANCH  24  27
ATOM     27  C   UNL     1      -3.657  11.885  18.558  0.00  0.00    +0.000 A 
ATOM     28  C   UNL     1      -4.374  12.397  19.656  0.00  0.00    +0.000 A 
ATOM     29  C   UNL     1      -5.734  12.668  19.536  0.00  0.00    +0.000 A 
ATOM     30  C   UNL     1      -6.366  12.422  18.323  0.00  0.00    +0.000 A 
ATOM     31  F   UNL     1      -7.678  12.675  18.204  0.00  0.00    +0.000 F 
ATOM     32  C   UNL     1      -5.667  11.919  17.230  0.00  0.00    +0.000 A 
ATOM     33  C   UNL     1      -4.306  11.655  17.356  0.00  0.00    +0.000 A 
ATOM     34  F   UNL     1      -3.643  11.197  16.283  0.00  0.00    +0.000 F 
ENDBRANCH  24  27
ENDBRANCH  22  24
ENDBRANCH   6  22
TORSDOF 5
ENDMDL
MODEL 6
REMARK VINA RESULT:      -8.1      2.196      2.954
REMARK  Name = 
REMARK  5 active torsions:
REMARK  status: ('A' for Active; 'I' for Inactive)
REMARK    1  A    between atoms: C_2  and  C_15
REMARK    2  A    between atoms: C_6  and  C_7
REMARK    3  A    between atoms: C_20  and  N_21
REMARK    4  A    between atoms: N_21  and  S_22
REMARK    5  A    between atoms: S_22  and  C_25
REMARK                            x       y       z     vdW  Elec       q    Type
REMARK                         _______ _______ _______ _____ _____    ______ ____
ROOT
ATOM      1  C   UNL     1       2.090   5.474  20.151  0.00  0.00    +0.000 A 
ATOM      2  C   UNL     1       1.049   4.660  20.627  0.00  0.00    +0.000 A 
ATOM      3  C   UNL     1       1.301   3.320  20.860  0.00  0.00    +0.000 A 
ATOM      4  N   UNL     1       2.487   2.737  20.622  0.00  0.00    +0.000 NA
ATOM      5  C   UNL     1       3.468   3.525  20.120  0.00  0.00    +0.000 A 
ATOM      6  C   UNL     1       3.327   4.882  19.833  0.00  0.00    +0.000 A 
ENDROOT
BRANCH   1   8
ATOM      7  O   UNL     1       2.216   7.492  18.973  0.00  0.00    +0.000 OA
ATOM      8  C   UNL     1       1.854   6.946  20.010  0.00  0.00    +0.000 C 
ATOM      9  N   UNL     1       1.207   7.537  21.081  0.00  0.00    +0.000 N 
ATOM     10  C   UNL     1       0.953   8.879  21.163  0.00  0.00    +0.000 A 
ATOM     11  N   UNL     1       1.399   9.866  20.439  0.00  0.00    +0.000 NA
ATOM     12  C   UNL     1       0.821  11.057  20.864  0.00  0.00    +0.000 A 
ATOM     13  C   UNL     1      -0.089  10.923  21.898  0.00  0.00    +0.000 A 
ATOM     14  S   UNL     1      -0.133   9.288  22.421  0.00  0.00    +0.000 S 
ATOM     15  H   UNL     1       0.862   7.003  21.863  0.00  0.00    +0.000 HD
BRANCH  12  16
ATOM     16  C   UNL     1       1.130  12.322  20.208  0.00  0.00    +0.000 A 
ATOM     17  C   UNL     1       1.737  12.307  18.945  0.00  0.00    +0.000 A 
ATOM     18  C   UNL     1       2.051  13.501  18.290  0.00  0.00    +0.000 A 
ATOM     19  C   UNL     1       1.769  14.723  18.896  0.00  0.00    +0.000 A 
ATOM     20  C   UNL     1       1.167  14.754  20.152  0.00  0.00    +0.000 A 
ATOM     21  C   UNL     1       0.850  13.560  20.806  0.00  0.00    +0.000 A 
ENDBRANCH  12  16
ENDBRANCH   1   8
BRANCH   6  22
ATOM     22  N   UNL     1       4.494   5.594  19.385  0.00  0.00    +0.000 N 
ATOM     23  H   UNL     1       4.702   6.485  19.852  0.00  0.00    +0.000 HD
BRANCH  22  24
ATOM     24  S   UNL     1       5.822   4.608  19.021  0.00  0.00    +0.000 S 
ATOM     25  O   UNL     1       7.009   5.250  19.536  0.00  0.00    +0.000 OA
ATOM     26  O   UNL     1       5.464   3.264  19.434  0.00  0.00    +0.000 OA
BRANCH  24  27
ATOM     27  C   UNL     1       6.019   4.546  17.271  0.00  0.00    +0.000 A 
ATOM     28  C   UNL     1       7.271   4.934  16.757  0.00  0.00    +0.000 A 
ATOM     29  C   UNL     1       7.495   4.924  15.384  0.00  0.00    +0.000 A 
ATOM     30  C   UNL     1       6.467   4.530  14.536  0.00  0.00    +0.000 A 
ATOM     31  F   UNL     1       6.674   4.525  13.211  0.00  0.00    +0.000 F 
ATOM     32  C   UNL     1       5.226   4.142  15.032  0.00  0.00    +0.000 A 
ATOM     33  C   UNL     1       5.012   4.149  16.408  0.00  0.00    +0.000 A 
ATOM     34  F   UNL     1       3.818   3.744  16.869  0.00  0.00    +0.000 F 
ENDBRANCH  24  27
ENDBRANCH  22  24
ENDBRANCH   6  22
TORSDOF 5
ENDMDL
MODEL 7
REMARK VINA RESULT:      -8.1      2.186      2.764
REMARK  Name = 
REMARK  5 active torsions:
REMARK  status: ('A' for Active; 'I' for Inactive)
REMARK    1  A    between atoms: C_2  and  C_15
REMARK    2  A    between atoms: C_6  and  C_7
REMARK    3  A    between atoms: C_20  and  N_21
REMARK    4  A    between atoms: N_21  and  S_22
REMARK    5  A    between atoms: S_22  and  C_25
REMARK                            x       y       z     vdW  Elec       q    Type
REMARK                         _______ _______ _______ _____ _____    ______ ____
ROOT
ATOM      1  C   UNL     1       2.519   4.127  19.427  0.00  0.00    +0.000 A 
ATOM      2  C   UNL     1       1.533   3.129  19.350  0.00  0.00    +0.000 A 
ATOM      3  C   UNL     1       1.912   1.836  19.039  0.00  0.00    +0.000 A 
ATOM      4  N   UNL     1       3.178   1.480  18.770  0.00  0.00    +0.000 NA
ATOM      5  C   UNL     1       4.111   2.462  18.803  0.00  0.00    +0.000 A 
ATOM      6  C   UNL     1       3.846   3.800  19.090  0.00  0.00    +0.000 A 
ENDROOT
BRANCH   1   8
ATOM      7  O   UNL     1       1.836   5.659  21.059  0.00  0.00    +0.000 OA
ATOM      8  C   UNL     1       2.128   5.501  19.878  0.00  0.00    +0.000 C 
ATOM      9  N   UNL     1       2.173   6.471  18.893  0.00  0.00    +0.000 N 
ATOM     10  C   UNL     1       1.798   7.771  19.096  0.00  0.00    +0.000 A 
ATOM     11  N   UNL     1       1.167   8.319  20.096  0.00  0.00    +0.000 NA
ATOM     12  C   UNL     1       1.054   9.689  19.884  0.00  0.00    +0.000 A 
ATOM     13  C   UNL     1       1.647  10.146  18.720  0.00  0.00    +0.000 A 
ATOM     14  S   UNL     1       2.256   8.817  17.820  0.00  0.00    +0.000 S 
ATOM     15  H   UNL     1       2.508   6.279  17.963  0.00  0.00    +0.000 HD
BRANCH  12  16
ATOM     16  C   UNL     1       0.405  10.553  20.864  0.00  0.00    +0.000 A 
ATOM     17  C   UNL     1      -0.286   9.973  21.936  0.00  0.00    +0.000 A 
ATOM     18  C   UNL     1      -0.923  10.771  22.889  0.00  0.00    +0.000 A 
ATOM     19  C   UNL     1      -0.881  12.158  22.776  0.00  0.00    +0.000 A 
ATOM     20  C   UNL     1      -0.199  12.750  21.716  0.00  0.00    +0.000 A 
ATOM     21  C   UNL     1       0.441  11.952  20.763  0.00  0.00    +0.000 A 
ENDBRANCH  12  16
ENDBRANCH   1   8
BRANCH   6  22
ATOM     22  N   UNL     1       4.965   4.700  19.170  0.00  0.00    +0.000 N 
ATOM     23  H   UNL     1       5.654   4.521  19.910  0.00  0.00    +0.000 HD
BRANCH  22  24
ATOM     24  S   UNL     1       5.583   5.188  17.670  0.00  0.00    +0.000 S 
ATOM     25  O   UNL     1       6.392   4.112  17.150  0.00  0.00    +0.000 OA
ATOM     26  O   UNL     1       4.461   5.709  16.911  0.00  0.00    +0.000 OA
BRANCH  24  27
ATOM     27  C   UNL     1       6.676   6.546  17.922  0.00  0.00    +0.000 A 
ATOM     28  C   UNL     1       6.385   7.735  17.225  0.00  0.00    +0.000 A 
ATOM     29  C   UNL     1       7.213   8.845  17.363  0.00  0.00    +0.000 A 
ATOM     30  C   UNL     1       8.324   8.758  18.192  0.00  0.00    +0.000 A 
ATOM     31  F   UNL     1       9.129   9.823  18.324  0.00  0.00    +0.000 F 
ATOM     32  C   UNL     1       8.620   7.590  18.888  0.00  0.00    +0.000 A 
ATOM     33  C   UNL     1       7.784   6.486  18.749  0.00  0.00    +0.000 A 
ATOM     34  F   UNL     1       8.070   5.378  19.450  0.00  0.00    +0.000 F 
ENDBRANCH  24  27
ENDBRANCH  22  24
ENDBRANCH   6  22
TORSDOF 5
ENDMDL
MODEL 8
REMARK VINA RESULT:      -8.1      0.961      1.568
REMARK  Name = 
REMARK  5 active torsions:
REMARK  status: ('A' for Active; 'I' for Inactive)
REMARK    1  A    between atoms: C_2  and  C_15
REMARK    2  A    between atoms: C_6  and  C_7
REMARK    3  A    between atoms: C_20  and  N_21
REMARK    4  A    between atoms: N_21  and  S_22
REMARK    5  A    between atoms: S_22  and  C_25
REMARK                            x       y       z     vdW  Elec       q    Type
REMARK                         _______ _______ _______ _____ _____    ______ ____
ROOT
ATOM      1  C   UNL     1       2.913   4.873  18.917  0.00  0.00    +0.000 A 
ATOM      2  C   UNL     1       2.008   3.931  18.402  0.00  0.00    +0.000 A 
ATOM      3  C   UNL     1       2.490   2.713  17.959  0.00  0.00    +0.000 A 
ATOM      4  N   UNL     1       3.792   2.386  17.961  0.00  0.00    +0.000 NA
ATOM      5  C   UNL     1       4.658   3.323  18.419  0.00  0.00    +0.000 A 
ATOM      6  C   UNL     1       4.291   4.587  18.877  0.00  0.00    +0.000 A 
ENDROOT
BRANCH   1   8
ATOM      7  O   UNL     1       2.098   6.153  20.699  0.00  0.00    +0.000 OA
ATOM      8  C   UNL     1       2.382   6.144  19.505  0.00  0.00    +0.000 C 
ATOM      9  N   UNL     1       2.300   7.205  18.621  0.00  0.00    +0.000 N 
ATOM     10  C   UNL     1       1.788   8.429  18.955  0.00  0.00    +0.000 A 
ATOM     11  N   UNL     1       1.120   8.803  20.009  0.00  0.00    +0.000 NA
ATOM     12  C   UNL     1       0.853  10.166  19.935  0.00  0.00    +0.000 A 
ATOM     13  C   UNL     1       1.369  10.797  18.817  0.00  0.00    +0.000 A 
ATOM     14  S   UNL     1       2.103   9.638  17.785  0.00  0.00    +0.000 S 
ATOM     15  H   UNL     1       2.636   7.143  17.673  0.00  0.00    +0.000 HD
BRANCH  12  16
ATOM     16  C   UNL     1       0.132  10.852  21.001  0.00  0.00    +0.000 A 
ATOM     17  C   UNL     1       0.033  12.250  20.969  0.00  0.00    +0.000 A 
ATOM     18  C   UNL     1      -0.646  12.940  21.976  0.00  0.00    +0.000 A 
ATOM     19  C   UNL     1      -1.228  12.239  23.030  0.00  0.00    +0.000 A 
ATOM     20  C   UNL     1      -1.137  10.849  23.076  0.00  0.00    +0.000 A 
ATOM     21  C   UNL     1      -0.460  10.159  22.067  0.00  0.00    +0.000 A 
ENDBRANCH  12  16
ENDBRANCH   1   8
BRANCH   6  22
ATOM     22  N   UNL     1       5.327   5.430  19.410  0.00  0.00    +0.000 N 
ATOM     23  H   UNL     1       5.517   5.352  20.416  0.00  0.00    +0.000 HD
BRANCH  22  24
ATOM     24  S   UNL     1       6.676   5.610  18.401  0.00  0.00    +0.000 S 
ATOM     25  O   UNL     1       7.032   7.010  18.380  0.00  0.00    +0.000 OA
ATOM     26  O   UNL     1       7.636   4.604  18.813  0.00  0.00    +0.000 OA
BRANCH  24  27
ATOM     27  C   UNL     1       6.210   5.198  16.753  0.00  0.00    +0.000 A 
ATOM     28  C   UNL     1       6.829   4.069  16.181  0.00  0.00    +0.000 A 
ATOM     29  C   UNL     1       6.522   3.692  14.877  0.00  0.00    +0.000 A 
ATOM     30  C   UNL     1       5.603   4.445  14.157  0.00  0.00    +0.000 A 
ATOM     31  F   UNL     1       5.308   4.089  12.897  0.00  0.00    +0.000 F 
ATOM     32  C   UNL     1       4.983   5.559  14.712  0.00  0.00    +0.000 A 
ATOM     33  C   UNL     1       5.291   5.928  16.018  0.00  0.00    +0.000 A 
ATOM     34  F   UNL     1       4.662   6.989  16.547  0.00  0.00    +0.000 F 
ENDBRANCH  24  27
ENDBRANCH  22  24
ENDBRANCH   6  22
TORSDOF 5
ENDMDL
MODEL 9
REMARK VINA RESULT:      -8.0      2.596      3.689
REMARK  Name = 
REMARK  5 active torsions:
REMARK  status: ('A' for Active; 'I' for Inactive)
REMARK    1  A    between atoms: C_2  and  C_15
REMARK    2  A    between atoms: C_6  and  C_7
REMARK    3  A    between atoms: C_20  and  N_21
REMARK    4  A    between atoms: N_21  and  S_22
REMARK    5  A    between atoms: S_22  and  C_25
REMARK                            x       y       z     vdW  Elec       q    Type
REMARK                         _______ _______ _______ _____ _____    ______ ____
ROOT
ATOM      1  C   UNL     1       2.313   5.196  20.049  0.00  0.00    +0.000 A 
ATOM      2  C   UNL     1       2.016   4.597  21.285  0.00  0.00    +0.000 A 
ATOM      3  C   UNL     1       2.334   3.265  21.476  0.00  0.00    +0.000 A 
ATOM      4  N   UNL     1       2.885   2.491  20.528  0.00  0.00    +0.000 NA
ATOM      5  C   UNL     1       3.123   3.070  19.326  0.00  0.00    +0.000 A 
ATOM      6  C   UNL     1       2.833   4.397  19.013  0.00  0.00    +0.000 A 
ENDROOT
BRANCH   1   8
ATOM      7  O   UNL     1       2.527   7.208  18.875  0.00  0.00    +0.000 OA
ATOM      8  C   UNL     1       2.079   6.665  19.879  0.00  0.00    +0.000 C 
ATOM      9  N   UNL     1       1.334   7.255  20.885  0.00  0.00    +0.000 N 
ATOM     10  C   UNL     1       1.064   8.596  20.936  0.00  0.00    +0.000 A 
ATOM     11  N   UNL     1       1.565   9.583  20.249  0.00  0.00    +0.000 NA
ATOM     12  C   UNL     1       0.942  10.772  20.614  0.00  0.00    +0.000 A 
ATOM     13  C   UNL     1      -0.055  10.635  21.564  0.00  0.00    +0.000 A 
ATOM     14  S   UNL     1      -0.133   9.003  22.091  0.00  0.00    +0.000 S 
ATOM     15  H   UNL     1       0.926   6.724  21.636  0.00  0.00    +0.000 HD
BRANCH  12  16
ATOM     16  C   UNL     1       1.298  12.036  19.981  0.00  0.00    +0.000 A 
ATOM     17  C   UNL     1       1.836  12.025  18.687  0.00  0.00    +0.000 A 
ATOM     18  C   UNL     1       2.194  13.217  18.053  0.00  0.00    +0.000 A 
ATOM     19  C   UNL     1       2.023  14.434  18.709  0.00  0.00    +0.000 A 
ATOM     20  C   UNL     1       1.490  14.461  19.997  0.00  0.00    +0.000 A 
ATOM     21  C   UNL     1       1.130  13.269  20.630  0.00  0.00    +0.000 A 
ENDBRANCH  12  16
ENDBRANCH   1   8
BRANCH   6  22
ATOM     22  N   UNL     1       3.230   4.879  17.717  0.00  0.00    +0.000 N 
ATOM     23  H   UNL     1       3.005   5.857  17.497  0.00  0.00    +0.000 HD
BRANCH  22  24
ATOM     24  S   UNL     1       4.738   4.317  17.189  0.00  0.00    +0.000 S 
ATOM     25  O   UNL     1       5.064   3.135  17.951  0.00  0.00    +0.000 OA
ATOM     26  O   UNL     1       4.678   4.275  15.740  0.00  0.00    +0.000 OA
BRANCH  24  27
ATOM     27  C   UNL     1       5.963   5.516  17.594  0.00  0.00    +0.000 A 
ATOM     28  C   UNL     1       6.893   5.164  18.591  0.00  0.00    +0.000 A 
ATOM     29  C   UNL     1       7.881   6.067  18.973  0.00  0.00    +0.000 A 
ATOM     30  C   UNL     1       7.930   7.312  18.360  0.00  0.00    +0.000 A 
ATOM     31  F   UNL     1       8.876   8.189  18.729  0.00  0.00    +0.000 F 
ATOM     32  C   UNL     1       7.019   7.670  17.371  0.00  0.00    +0.000 A 
ATOM     33  C   UNL     1       6.037   6.760  16.990  0.00  0.00    +0.000 A 
ATOM     34  F   UNL     1       5.184   7.113  16.015  0.00  0.00    +0.000 F 
ENDBRANCH  24  27
ENDBRANCH  22  24
ENDBRANCH   6  22
TORSDOF 5
ENDMDL
