MODEL 1
REMARK VINA RESULT:      -7.3      0.000      0.000
REMARK  Name = 
REMARK  9 active torsions:
REMARK  status: ('A' for Active; 'I' for Inactive)
REMARK    1  A    between atoms: C_1  and  O_2
REMARK    2  A    between atoms: O_2  and  C_3
REMARK    3  A    between atoms: C_7  and  C_8
REMARK    4  A    between atoms: C_8  and  N_9
REMARK    5  A    between atoms: N_9  and  C_10
REMARK    6  A    between atoms: N_9  and  C_11
REMARK    7  A    between atoms: C_11  and  C_12
REMARK    8  A    between atoms: N_14  and  C_15
REMARK    9  A    between atoms: C_15  and  C_16
REMARK                            x       y       z     vdW  Elec       q    Type
REMARK                         _______ _______ _______ _____ _____    ______ ____
ROOT
ATOM      1  C   UNL     1       7.594   4.644  17.811  0.00  0.00    +0.000 C 
ENDROOT
BRANCH   1   2
ATOM      2  C   UNL     1       6.348   4.436  18.682  0.00  0.00    +0.000 C 
ATOM      3  O   UNL     1       6.219   4.979  19.777  0.00  0.00    +0.000 OA
ATOM      4  N   UNL     1       5.371   3.620  18.136  0.00  0.00    +0.000 N 
ATOM      5  H   UNL     1       5.563   3.176  17.244  0.00  0.00    +0.000 HD
BRANCH   4   6
ATOM      6  C   UNL     1       4.076   3.375  18.799  0.00  0.00    +0.000 C 
ATOM      7  C   UNL     1       4.275   2.400  19.978  0.00  0.00    +0.000 C 
ATOM      8  C   UNL     1       3.499   4.708  19.333  0.00  0.00    +0.000 C 
ATOM      9  C   UNL     1       2.023   4.477  19.627  0.00  0.00    +0.000 C 
ATOM     10  S   UNL     1       1.455   3.468  18.278  0.00  0.00    +0.000 S 
ATOM     11  O   UNL     1       0.959   4.345  17.239  0.00  0.00    +0.000 OA
ATOM     12  O   UNL     1       0.660   2.385  18.821  0.00  0.00    +0.000 OA
ATOM     13  C   UNL     1       3.045   2.841  17.781  0.00  0.00    +0.000 C 
ENDBRANCH   4   6
ENDBRANCH   1   2
BRANCH   1  14
ATOM     14  N   UNL     1       7.473   5.778  16.862  0.00  0.00    +0.000 NA
ATOM     15  C   UNL     1       7.623   7.060  17.557  0.00  0.00    +0.000 C 
BRANCH  14  16
ATOM     16  C   UNL     1       6.232   5.706  16.087  0.00  0.00    +0.000 C 
BRANCH  16  21
ATOM     17  C   UNL     1       5.491   3.736  12.916  0.00  0.00    +0.000 A 
ATOM     18  C   UNL     1       6.682   3.906  12.209  0.00  0.00    +0.000 A 
ATOM     19  C   UNL     1       7.706   4.706  12.718  0.00  0.00    +0.000 A 
ATOM     20  C   UNL     1       7.557   5.319  13.959  0.00  0.00    +0.000 A 
ATOM     21  C   UNL     1       6.374   5.150  14.688  0.00  0.00    +0.000 A 
ATOM     22  C   UNL     1       5.331   4.380  14.141  0.00  0.00    +0.000 A 
BRANCH  17  24
ATOM     23  C   UNL     1       4.176   3.211  10.998  0.00  0.00    +0.000 C 
ATOM     24  O   UNL     1       4.583   2.899  12.324  0.00  0.00    +0.000 OA
ENDBRANCH  17  24
ENDBRANCH  16  21
ENDBRANCH  14  16
ENDBRANCH   1  14
TORSDOF 6
ENDMDL
MODEL 2
REMARK VINA RESULT:      -7.0      1.746      2.267
REMARK  Name = 
REMARK  9 active torsions:
REMARK  status: ('A' for Active; 'I' for Inactive)
REMARK    1  A    between atoms: C_1  and  O_2
REMARK    2  A    between atoms: O_2  and  C_3
REMARK    3  A    between atoms: C_7  and  C_8
REMARK    4  A    between atoms: C_8  and  N_9
REMARK    5  A    between atoms: N_9  and  C_10
REMARK    6  A    between atoms: N_9  and  C_11
REMARK    7  A    between atoms: C_11  and  C_12
REMARK    8  A    between atoms: N_14  and  C_15
REMARK    9  A    between atoms: C_15  and  C_16
REMARK                            x       y       z     vdW  Elec       q    Type
REMARK                         _______ _______ _______ _____ _____    ______ ____
ROOT
ATOM      1  C   UNL     1       6.359   6.036  17.872  0.00  0.00    +0.000 C 
ENDROOT
BRANCH   1   2
ATOM      2  C   UNL     1       4.969   5.652  18.395  0.00  0.00    +0.000 C 
ATOM      3  O   UNL     1       4.174   6.490  18.813  0.00  0.00    +0.000 OA
ATOM      4  N   UNL     1       4.664   4.302  18.337  0.00  0.00    +0.000 N 
ATOM      5  H   UNL     1       5.383   3.662  18.015  0.00  0.00    +0.000 HD
BRANCH   4   6
ATOM      6  C   UNL     1       3.345   3.765  18.722  0.00  0.00    +0.000 C 
ATOM      7  C   UNL     1       2.280   4.234  17.708  0.00  0.00    +0.000 C 
ATOM      8  C   UNL     1       3.391   2.218  18.733  0.00  0.00    +0.000 C 
ATOM      9  C   UNL     1       2.176   1.734  19.512  0.00  0.00    +0.000 C 
ATOM     10  S   UNL     1       2.047   2.864  20.879  0.00  0.00    +0.000 S 
ATOM     11  O   UNL     1       2.794   2.312  21.990  0.00  0.00    +0.000 OA
ATOM     12  O   UNL     1       0.663   3.273  21.005  0.00  0.00    +0.000 OA
ATOM     13  C   UNL     1       2.992   4.192  20.163  0.00  0.00    +0.000 C 
ENDBRANCH   4   6
ENDBRANCH   1   2
BRANCH   1  14
ATOM     14  N   UNL     1       6.457   6.042  16.392  0.00  0.00    +0.000 NA
ATOM     15  C   UNL     1       5.204   6.502  15.787  0.00  0.00    +0.000 C 
BRANCH  14  16
ATOM     16  C   UNL     1       6.882   4.739  15.872  0.00  0.00    +0.000 C 
BRANCH  16  21
ATOM     17  C   UNL     1       6.132   3.411  12.385  0.00  0.00    +0.000 A 
ATOM     18  C   UNL     1       7.005   4.176  11.612  0.00  0.00    +0.000 A 
ATOM     19  C   UNL     1       7.795   5.167  12.197  0.00  0.00    +0.000 A 
ATOM     20  C   UNL     1       7.739   5.379  13.572  0.00  0.00    +0.000 A 
ATOM     21  C   UNL     1       6.878   4.613  14.365  0.00  0.00    +0.000 A 
ATOM     22  C   UNL     1       6.051   3.650  13.755  0.00  0.00    +0.000 A 
BRANCH  17  24
ATOM     23  C   UNL     1       6.162   1.294  11.291  0.00  0.00    +0.000 C 
ATOM     24  O   UNL     1       5.442   2.450  11.696  0.00  0.00    +0.000 OA
ENDBRANCH  17  24
ENDBRANCH  16  21
ENDBRANCH  14  16
ENDBRANCH   1  14
TORSDOF 6
ENDMDL
MODEL 3
REMARK VINA RESULT:      -6.9      1.292      1.659
REMARK  Name = 
REMARK  9 active torsions:
REMARK  status: ('A' for Active; 'I' for Inactive)
REMARK    1  A    between atoms: C_1  and  O_2
REMARK    2  A    between atoms: O_2  and  C_3
REMARK    3  A    between atoms: C_7  and  C_8
REMARK    4  A    between atoms: C_8  and  N_9
REMARK    5  A    between atoms: N_9  and  C_10
REMARK    6  A    between atoms: N_9  and  C_11
REMARK    7  A    between atoms: C_11  and  C_12
REMARK    8  A    between atoms: N_14  and  C_15
REMARK    9  A    between atoms: C_15  and  C_16
REMARK                            x       y       z     vdW  Elec       q    Type
REMARK                         _______ _______ _______ _____ _____    ______ ____
ROOT
ATOM      1  C   UNL     1       7.227   4.808  17.610  0.00  0.00    +0.000 C 
ENDROOT
BRANCH   1   2
ATOM      2  C   UNL     1       6.064   4.809  18.610  0.00  0.00    +0.000 C 
ATOM      3  O   UNL     1       6.226   5.068  19.800  0.00  0.00    +0.000 OA
ATOM      4  N   UNL     1       4.818   4.528  18.074  0.00  0.00    +0.000 N 
ATOM      5  H   UNL     1       4.765   4.287  17.089  0.00  0.00    +0.000 HD
BRANCH   4   6
ATOM      6  C   UNL     1       3.579   4.565  18.873  0.00  0.00    +0.000 C 
ATOM      7  C   UNL     1       3.469   5.926  19.593  0.00  0.00    +0.000 C 
ATOM      8  C   UNL     1       2.352   4.379  17.947  0.00  0.00    +0.000 C 
ATOM      9  C   UNL     1       1.167   4.018  18.833  0.00  0.00    +0.000 C 
ATOM     10  S   UNL     1       1.841   2.903  20.042  0.00  0.00    +0.000 S 
ATOM     11  O   UNL     1       1.690   1.553  19.542  0.00  0.00    +0.000 OA
ATOM     12  O   UNL     1       1.361   3.303  21.349  0.00  0.00    +0.000 OA
ATOM     13  C   UNL     1       3.546   3.385  19.867  0.00  0.00    +0.000 C 
ENDBRANCH   4   6
ENDBRANCH   1   2
BRANCH   1  14
ATOM     14  N   UNL     1       7.064   5.785  16.506  0.00  0.00    +0.000 NA
ATOM     15  C   UNL     1       6.935   7.148  17.029  0.00  0.00    +0.000 C 
BRANCH  14  16
ATOM     16  C   UNL     1       5.955   5.421  15.620  0.00  0.00    +0.000 C 
BRANCH  16  21
ATOM     17  C   UNL     1       5.977   3.427  12.378  0.00  0.00    +0.000 A 
ATOM     18  C   UNL     1       7.177   3.853  11.808  0.00  0.00    +0.000 A 
ATOM     19  C   UNL     1       7.956   4.830  12.431  0.00  0.00    +0.000 A 
ATOM     20  C   UNL     1       7.553   5.366  13.651  0.00  0.00    +0.000 A 
ATOM     21  C   UNL     1       6.358   4.943  14.243  0.00  0.00    +0.000 A 
ATOM     22  C   UNL     1       5.557   3.993  13.580  0.00  0.00    +0.000 A 
BRANCH  17  24
ATOM     23  C   UNL     1       6.080   1.287  11.333  0.00  0.00    +0.000 C 
ATOM     24  O   UNL     1       5.327   2.441  11.685  0.00  0.00    +0.000 OA
ENDBRANCH  17  24
ENDBRANCH  16  21
ENDBRANCH  14  16
ENDBRANCH   1  14
TORSDOF 6
ENDMDL
MODEL 4
REMARK VINA RESULT:      -6.9      3.314      6.933
REMARK  Name = 
REMARK  9 active torsions:
REMARK  status: ('A' for Active; 'I' for Inactive)
REMARK    1  A    between atoms: C_1  and  O_2
REMARK    2  A    between atoms: O_2  and  C_3
REMARK    3  A    between atoms: C_7  and  C_8
REMARK    4  A    between atoms: C_8  and  N_9
REMARK    5  A    between atoms: N_9  and  C_10
REMARK    6  A    between atoms: N_9  and  C_11
REMARK    7  A    between atoms: C_11  and  C_12
REMARK    8  A    between atoms: N_14  and  C_15
REMARK    9  A    between atoms: C_15  and  C_16
REMARK                            x       y       z     vdW  Elec       q    Type
REMARK                         _______ _______ _______ _____ _____    ______ ____
ROOT
ATOM      1  C   UNL     1       3.698   2.547  19.834  0.00  0.00    +0.000 C 
ENDROOT
BRANCH   1   2
ATOM      2  C   UNL     1       4.575   3.347  18.862  0.00  0.00    +0.000 C 
ATOM      3  O   UNL     1       4.397   3.317  17.646  0.00  0.00    +0.000 OA
ATOM      4  N   UNL     1       5.557   4.126  19.451  0.00  0.00    +0.000 N 
ATOM      5  H   UNL     1       5.670   4.072  20.459  0.00  0.00    +0.000 HD
BRANCH   4   6
ATOM      6  C   UNL     1       6.437   5.021  18.676  0.00  0.00    +0.000 C 
ATOM      7  C   UNL     1       7.695   5.353  19.505  0.00  0.00    +0.000 C 
ATOM      8  C   UNL     1       6.864   4.325  17.361  0.00  0.00    +0.000 C 
ATOM      9  C   UNL     1       7.410   5.404  16.434  0.00  0.00    +0.000 C 
ATOM     10  S   UNL     1       6.316   6.785  16.670  0.00  0.00    +0.000 S 
ATOM     11  O   UNL     1       5.254   6.690  15.692  0.00  0.00    +0.000 OA
ATOM     12  O   UNL     1       7.119   7.981  16.827  0.00  0.00    +0.000 OA
ATOM     13  C   UNL     1       5.673   6.294  18.256  0.00  0.00    +0.000 C 
ENDBRANCH   4   6
ENDBRANCH   1   2
BRANCH   1  14
ATOM     14  N   UNL     1       2.697   3.373  20.550  0.00  0.00    +0.000 NA
ATOM     15  C   UNL     1       2.010   2.588  21.580  0.00  0.00    +0.000 C 
BRANCH  14  16
ATOM     16  C   UNL     1       1.761   4.015  19.623  0.00  0.00    +0.000 C 
BRANCH  16  21
ATOM     17  C   UNL     1       1.741   7.731  20.447  0.00  0.00    +0.000 A 
ATOM     18  C   UNL     1       1.985   8.286  19.191  0.00  0.00    +0.000 A 
ATOM     19  C   UNL     1       2.221   7.470  18.083  0.00  0.00    +0.000 A 
ATOM     20  C   UNL     1       2.182   6.085  18.219  0.00  0.00    +0.000 A 
ATOM     21  C   UNL     1       1.926   5.510  19.469  0.00  0.00    +0.000 A 
ATOM     22  C   UNL     1       1.738   6.344  20.588  0.00  0.00    +0.000 A 
BRANCH  17  24
ATOM     23  C   UNL     1       0.554   9.671  21.161  0.00  0.00    +0.000 C 
ATOM     24  O   UNL     1       1.490   8.638  21.441  0.00  0.00    +0.000 OA
ENDBRANCH  17  24
ENDBRANCH  16  21
ENDBRANCH  14  16
ENDBRANCH   1  14
TORSDOF 6
ENDMDL
MODEL 5
REMARK VINA RESULT:      -6.8      5.684      9.072
REMARK  Name = 
REMARK  9 active torsions:
REMARK  status: ('A' for Active; 'I' for Inactive)
REMARK    1  A    between atoms: C_1  and  O_2
REMARK    2  A    between atoms: O_2  and  C_3
REMARK    3  A    between atoms: C_7  and  C_8
REMARK    4  A    between atoms: C_8  and  N_9
REMARK    5  A    between atoms: N_9  and  C_10
REMARK    6  A    between atoms: N_9  and  C_11
REMARK    7  A    between atoms: C_11  and  C_12
REMARK    8  A    between atoms: N_14  and  C_15
REMARK    9  A    between atoms: C_15  and  C_16
REMARK                            x       y       z     vdW  Elec       q    Type
REMARK                         _______ _______ _______ _____ _____    ______ ____
ROOT
ATOM      1  C   UNL     1       2.305   9.233  17.881  0.00  0.00    +0.000 C 
ENDROOT
BRANCH   1   2
ATOM      2  C   UNL     1       2.799   7.783  17.974  0.00  0.00    +0.000 C 
ATOM      3  O   UNL     1       3.674   7.342  17.232  0.00  0.00    +0.000 OA
ATOM      4  N   UNL     1       2.211   7.017  18.967  0.00  0.00    +0.000 N 
ATOM      5  H   UNL     1       1.468   7.437  19.517  0.00  0.00    +0.000 HD
BRANCH   4   6
ATOM      6  C   UNL     1       2.620   5.629  19.251  0.00  0.00    +0.000 C 
ATOM      7  C   UNL     1       1.974   5.160  20.571  0.00  0.00    +0.000 C 
ATOM      8  C   UNL     1       2.160   4.701  18.101  0.00  0.00    +0.000 C 
ATOM      9  C   UNL     1       2.940   3.399  18.230  0.00  0.00    +0.000 C 
ATOM     10  S   UNL     1       4.584   3.909  18.671  0.00  0.00    +0.000 S 
ATOM     11  O   UNL     1       5.347   4.073  17.451  0.00  0.00    +0.000 OA
ATOM     12  O   UNL     1       5.043   3.077  19.765  0.00  0.00    +0.000 OA
ATOM     13  C   UNL     1       4.160   5.521  19.296  0.00  0.00    +0.000 C 
ENDBRANCH   4   6
ENDBRANCH   1   2
BRANCH   1  14
ATOM     14  N   UNL     1       1.035   9.476  18.606  0.00  0.00    +0.000 NA
ATOM     15  C   UNL     1      -0.084   9.618  17.670  0.00  0.00    +0.000 C 
BRANCH  14  16
ATOM     16  C   UNL     1       1.143  10.615  19.522  0.00  0.00    +0.000 C 
BRANCH  16  21
ATOM     17  C   UNL     1      -0.768  11.603  22.661  0.00  0.00    +0.000 A 
ATOM     18  C   UNL     1      -0.946  10.361  23.271  0.00  0.00    +0.000 A 
ATOM     19  C   UNL     1      -0.508   9.191  22.647  0.00  0.00    +0.000 A 
ATOM     20  C   UNL     1       0.142   9.260  21.418  0.00  0.00    +0.000 A 
ATOM     21  C   UNL     1       0.339  10.499  20.797  0.00  0.00    +0.000 A 
ATOM     22  C   UNL     1      -0.150  11.666  21.414  0.00  0.00    +0.000 A 
BRANCH  17  24
ATOM     23  C   UNL     1      -0.850  13.970  22.934  0.00  0.00    +0.000 C 
ATOM     24  O   UNL     1      -1.210  12.673  23.393  0.00  0.00    +0.000 OA
ENDBRANCH  17  24
ENDBRANCH  16  21
ENDBRANCH  14  16
ENDBRANCH   1  14
TORSDOF 6
ENDMDL
MODEL 6
REMARK VINA RESULT:      -6.8      5.588      7.856
REMARK  Name = 
REMARK  9 active torsions:
REMARK  status: ('A' for Active; 'I' for Inactive)
REMARK    1  A    between atoms: C_1  and  O_2
REMARK    2  A    between atoms: O_2  and  C_3
REMARK    3  A    between atoms: C_7  and  C_8
REMARK    4  A    between atoms: C_8  and  N_9
REMARK    5  A    between atoms: N_9  and  C_10
REMARK    6  A    between atoms: N_9  and  C_11
REMARK    7  A    between atoms: C_11  and  C_12
REMARK    8  A    between atoms: N_14  and  C_15
REMARK    9  A    between atoms: C_15  and  C_16
REMARK                            x       y       z     vdW  Elec       q    Type
REMARK                         _______ _______ _______ _____ _____    ______ ____
ROOT
ATOM      1  C   UNL     1       1.775   8.647  19.873  0.00  0.00    +0.000 C 
ENDROOT
BRANCH   1   2
ATOM      2  C   UNL     1       2.238   7.312  19.276  0.00  0.00    +0.000 C 
ATOM      3  O   UNL     1       2.731   7.234  18.154  0.00  0.00    +0.000 OA
ATOM      4  N   UNL     1       2.088   6.209  20.101  0.00  0.00    +0.000 N 
ATOM      5  H   UNL     1       1.638   6.342  21.001  0.00  0.00    +0.000 HD
BRANCH   4   6
ATOM      6  C   UNL     1       2.552   4.861  19.721  0.00  0.00    +0.000 C 
ATOM      7  C   UNL     1       4.090   4.862  19.591  0.00  0.00    +0.000 C 
ATOM      8  C   UNL     1       2.135   3.839  20.806  0.00  0.00    +0.000 C 
ATOM      9  C   UNL     1       2.264   2.451  20.193  0.00  0.00    +0.000 C 
ATOM     10  S   UNL     1       1.654   2.640  18.534  0.00  0.00    +0.000 S 
ATOM     11  O   UNL     1       0.237   2.344  18.539  0.00  0.00    +0.000 OA
ATOM     12  O   UNL     1       2.578   1.985  17.630  0.00  0.00    +0.000 OA
ATOM     13  C   UNL     1       1.865   4.404  18.417  0.00  0.00    +0.000 C 
ENDBRANCH   4   6
ENDBRANCH   1   2
BRANCH   1  14
ATOM     14  N   UNL     1       0.947   9.457  18.947  0.00  0.00    +0.000 NA
ATOM     15  C   UNL     1       1.781  10.369  18.159  0.00  0.00    +0.000 C 
BRANCH  14  16
ATOM     16  C   UNL     1      -0.130  10.157  19.654  0.00  0.00    +0.000 C 
BRANCH  16  21
ATOM     17  C   UNL     1      -2.663  10.057  16.815  0.00  0.00    +0.000 A 
ATOM     18  C   UNL     1      -3.449  11.169  17.117  0.00  0.00    +0.000 A 
ATOM     19  C   UNL     1      -3.210  11.922  18.268  0.00  0.00    +0.000 A 
ATOM     20  C   UNL     1      -2.156  11.583  19.113  0.00  0.00    +0.000 A 
ATOM     21  C   UNL     1      -1.349  10.477  18.820  0.00  0.00    +0.000 A 
ATOM     22  C   UNL     1      -1.632   9.699  17.682  0.00  0.00    +0.000 A 
BRANCH  17  24
ATOM     23  C   UNL     1      -3.052  10.231  14.470  0.00  0.00    +0.000 C 
ATOM     24  O   UNL     1      -2.979   9.428  15.641  0.00  0.00    +0.000 OA
ENDBRANCH  17  24
ENDBRANCH  16  21
ENDBRANCH  14  16
ENDBRANCH   1  14
TORSDOF 6
ENDMDL
MODEL 7
REMARK VINA RESULT:      -6.7      5.864      8.100
REMARK  Name = 
REMARK  9 active torsions:
REMARK  status: ('A' for Active; 'I' for Inactive)
REMARK    1  A    between atoms: C_1  and  O_2
REMARK    2  A    between atoms: O_2  and  C_3
REMARK    3  A    between atoms: C_7  and  C_8
REMARK    4  A    between atoms: C_8  and  N_9
REMARK    5  A    between atoms: N_9  and  C_10
REMARK    6  A    between atoms: N_9  and  C_11
REMARK    7  A    between atoms: C_11  and  C_12
REMARK    8  A    between atoms: N_14  and  C_15
REMARK    9  A    between atoms: C_15  and  C_16
REMARK                            x       y       z     vdW  Elec       q    Type
REMARK                         _______ _______ _______ _____ _____    ______ ____
ROOT
ATOM      1  C   UNL     1       1.374   9.028  20.055  0.00  0.00    +0.000 C 
ENDROOT
BRANCH   1   2
ATOM      2  C   UNL     1       1.974   7.737  19.482  0.00  0.00    +0.000 C 
ATOM      3  O   UNL     1       2.483   7.693  18.365  0.00  0.00    +0.000 OA
ATOM      4  N   UNL     1       1.927   6.636  20.322  0.00  0.00    +0.000 N 
ATOM      5  H   UNL     1       1.457   6.737  21.216  0.00  0.00    +0.000 HD
BRANCH   4   6
ATOM      6  C   UNL     1       2.527   5.336  19.966  0.00  0.00    +0.000 C 
ATOM      7  C   UNL     1       2.284   4.326  21.107  0.00  0.00    +0.000 C 
ATOM      8  C   UNL     1       1.882   4.799  18.666  0.00  0.00    +0.000 C 
ATOM      9  C   UNL     1       2.791   3.701  18.130  0.00  0.00    +0.000 C 
ATOM     10  S   UNL     1       4.437   4.319  18.395  0.00  0.00    +0.000 S 
ATOM     11  O   UNL     1       4.846   5.034  17.206  0.00  0.00    +0.000 OA
ATOM     12  O   UNL     1       5.235   3.257  18.973  0.00  0.00    +0.000 OA
ATOM     13  C   UNL     1       4.030   5.505  19.659  0.00  0.00    +0.000 C 
ENDBRANCH   4   6
ENDBRANCH   1   2
BRANCH   1  14
ATOM     14  N   UNL     1       0.711   9.878  19.037  0.00  0.00    +0.000 NA
ATOM     15  C   UNL     1       1.648  10.859  18.482  0.00  0.00    +0.000 C 
BRANCH  14  16
ATOM     16  C   UNL     1      -0.505  10.506  19.564  0.00  0.00    +0.000 C 
BRANCH  16  21
ATOM     17  C   UNL     1      -2.538  10.163  16.365  0.00  0.00    +0.000 A 
ATOM     18  C   UNL     1      -3.626  10.990  16.648  0.00  0.00    +0.000 A 
ATOM     19  C   UNL     1      -3.745  11.613  17.891  0.00  0.00    +0.000 A 
ATOM     20  C   UNL     1      -2.754  11.437  18.854  0.00  0.00    +0.000 A 
ATOM     21  C   UNL     1      -1.650  10.621  18.584  0.00  0.00    +0.000 A 
ATOM     22  C   UNL     1      -1.567   9.960  17.344  0.00  0.00    +0.000 A 
BRANCH  17  24
ATOM     23  C   UNL     1      -3.553  10.055  14.211  0.00  0.00    +0.000 C 
ATOM     24  O   UNL     1      -2.522   9.642  15.099  0.00  0.00    +0.000 OA
ENDBRANCH  17  24
ENDBRANCH  16  21
ENDBRANCH  14  16
ENDBRANCH   1  14
TORSDOF 6
ENDMDL
MODEL 8
REMARK VINA RESULT:      -6.7      6.091      9.556
REMARK  Name = 
REMARK  9 active torsions:
REMARK  status: ('A' for Active; 'I' for Inactive)
REMARK    1  A    between atoms: C_1  and  O_2
REMARK    2  A    between atoms: O_2  and  C_3
REMARK    3  A    between atoms: C_7  and  C_8
REMARK    4  A    between atoms: C_8  and  N_9
REMARK    5  A    between atoms: N_9  and  C_10
REMARK    6  A    between atoms: N_9  and  C_11
REMARK    7  A    between atoms: C_11  and  C_12
REMARK    8  A    between atoms: N_14  and  C_15
REMARK    9  A    between atoms: C_15  and  C_16
REMARK                            x       y       z     vdW  Elec       q    Type
REMARK                         _______ _______ _______ _____ _____    ______ ____
ROOT
ATOM      1  C   UNL     1       1.904   9.285  18.260  0.00  0.00    +0.000 C 
ENDROOT
BRANCH   1   2
ATOM      2  C   UNL     1       2.323   7.866  18.664  0.00  0.00    +0.000 C 
ATOM      3  O   UNL     1       2.002   7.373  19.743  0.00  0.00    +0.000 OA
ATOM      4  N   UNL     1       3.061   7.172  17.720  0.00  0.00    +0.000 N 
ATOM      5  H   UNL     1       3.321   7.656  16.866  0.00  0.00    +0.000 HD
BRANCH   4   6
ATOM      6  C   UNL     1       3.479   5.770  17.908  0.00  0.00    +0.000 C 
ATOM      7  C   UNL     1       2.245   4.847  17.825  0.00  0.00    +0.000 C 
ATOM      8  C   UNL     1       4.486   5.371  16.802  0.00  0.00    +0.000 C 
ATOM      9  C   UNL     1       5.183   4.098  17.263  0.00  0.00    +0.000 C 
ATOM     10  S   UNL     1       5.463   4.349  19.001  0.00  0.00    +0.000 S 
ATOM     11  O   UNL     1       6.771   4.948  19.163  0.00  0.00    +0.000 OA
ATOM     12  O   UNL     1       5.069   3.146  19.706  0.00  0.00    +0.000 OA
ATOM     13  C   UNL     1       4.229   5.608  19.247  0.00  0.00    +0.000 C 
ENDBRANCH   4   6
ENDBRANCH   1   2
BRANCH   1  14
ATOM     14  N   UNL     1       0.637   9.733  18.887  0.00  0.00    +0.000 NA
ATOM     15  C   UNL     1      -0.389   9.988  17.871  0.00  0.00    +0.000 C 
BRANCH  14  16
ATOM     16  C   UNL     1       0.846  10.885  19.769  0.00  0.00    +0.000 C 
BRANCH  16  21
ATOM     17  C   UNL     1      -1.829  12.211  22.129  0.00  0.00    +0.000 A 
ATOM     18  C   UNL     1      -1.699  11.332  23.205  0.00  0.00    +0.000 A 
ATOM     19  C   UNL     1      -0.794  10.270  23.153  0.00  0.00    +0.000 A 
ATOM     20  C   UNL     1       0.013  10.098  22.031  0.00  0.00    +0.000 A 
ATOM     21  C   UNL     1      -0.096  10.977  20.947  0.00  0.00    +0.000 A 
ATOM     22  C   UNL     1      -1.047  12.015  20.992  0.00  0.00    +0.000 A 
BRANCH  17  24
ATOM     23  C   UNL     1      -3.998  12.886  22.851  0.00  0.00    +0.000 C 
ATOM     24  O   UNL     1      -2.725  13.229  22.320  0.00  0.00    +0.000 OA
ENDBRANCH  17  24
ENDBRANCH  16  21
ENDBRANCH  14  16
ENDBRANCH   1  14
TORSDOF 6
ENDMDL
MODEL 9
REMARK VINA RESULT:      -6.5      5.712      7.956
REMARK  Name = 
REMARK  9 active torsions:
REMARK  status: ('A' for Active; 'I' for Inactive)
REMARK    1  A    between atoms: C_1  and  O_2
REMARK    2  A    between atoms: O_2  and  C_3
REMARK    3  A    between atoms: C_7  and  C_8
REMARK    4  A    between atoms: C_8  and  N_9
REMARK    5  A    between atoms: N_9  and  C_10
REMARK    6  A    between atoms: N_9  and  C_11
REMARK    7  A    between atoms: C_11  and  C_12
REMARK    8  A    between atoms: N_14  and  C_15
REMARK    9  A    between atoms: C_15  and  C_16
REMARK                            x       y       z     vdW  Elec       q    Type
REMARK                         _______ _______ _______ _____ _____    ______ ____
ROOT
ATOM      1  C   UNL     1       1.801   8.636  19.500  0.00  0.00    +0.000 C 
ENDROOT
BRANCH   1   2
ATOM      2  C   UNL     1       2.184   7.419  18.647  0.00  0.00    +0.000 C 
ATOM      3  O   UNL     1       2.520   7.526  17.470  0.00  0.00    +0.000 OA
ATOM      4  N   UNL     1       2.150   6.199  19.303  0.00  0.00    +0.000 N 
ATOM      5  H   UNL     1       1.826   6.182  20.265  0.00  0.00    +0.000 HD
BRANCH   4   6
ATOM      6  C   UNL     1       2.564   4.937  18.661  0.00  0.00    +0.000 C 
ATOM      7  C   UNL     1       1.509   4.521  17.614  0.00  0.00    +0.000 C 
ATOM      8  C   UNL     1       3.929   5.130  17.958  0.00  0.00    +0.000 C 
ATOM      9  C   UNL     1       4.493   3.743  17.677  0.00  0.00    +0.000 C 
ATOM     10  S   UNL     1       4.102   2.802  19.134  0.00  0.00    +0.000 S 
ATOM     11  O   UNL     1       5.218   2.908  20.050  0.00  0.00    +0.000 OA
ATOM     12  O   UNL     1       3.559   1.524  18.720  0.00  0.00    +0.000 OA
ATOM     13  C   UNL     1       2.782   3.840  19.724  0.00  0.00    +0.000 C 
ENDBRANCH   4   6
ENDBRANCH   1   2
BRANCH   1  14
ATOM     14  N   UNL     1       1.061   9.679  18.750  0.00  0.00    +0.000 NA
ATOM     15  C   UNL     1       1.939  10.804  18.413  0.00  0.00    +0.000 C 
BRANCH  14  16
ATOM     16  C   UNL     1      -0.145  10.108  19.464  0.00  0.00    +0.000 C 
BRANCH  16  21
ATOM     17  C   UNL     1      -2.440  10.212  16.431  0.00  0.00    +0.000 A 
ATOM     18  C   UNL     1      -3.395  11.140  16.847  0.00  0.00    +0.000 A 
ATOM     19  C   UNL     1      -3.344  11.690  18.130  0.00  0.00    +0.000 A 
ATOM     20  C   UNL     1      -2.312  11.338  18.996  0.00  0.00    +0.000 A 
ATOM     21  C   UNL     1      -1.338  10.419  18.591  0.00  0.00    +0.000 A 
ATOM     22  C   UNL     1      -1.430   9.834  17.313  0.00  0.00    +0.000 A 
BRANCH  17  24
ATOM     23  C   UNL     1      -3.757  10.174  14.444  0.00  0.00    +0.000 C 
ATOM     24  O   UNL     1      -2.583   9.776  15.141  0.00  0.00    +0.000 OA
ENDBRANCH  17  24
ENDBRANCH  16  21
ENDBRANCH  14  16
ENDBRANCH   1  14
TORSDOF 6
ENDMDL
