MODEL 1
REMARK VINA RESULT:      -8.4      0.000      0.000
REMARK  Name = 
REMARK  8 active torsions:
REMARK  status: ('A' for Active; 'I' for Inactive)
REMARK    1  A    between atoms: C_1  and  O_2
REMARK    2  A    between atoms: O_2  and  C_3
REMARK    3  A    between atoms: C_3  and  C_5
REMARK    4  A    between atoms: C_8  and  O_9
REMARK    5  A    between atoms: O_9  and  C_10
REMARK    6  A    between atoms: C_12  and  C_13
REMARK    7  A    between atoms: C_15  and  O_16
REMARK    8  A    between atoms: O_16  and  C_17
REMARK                            x       y       z     vdW  Elec       q    Type
REMARK                         _______ _______ _______ _____ _____    ______ ____
ROOT
ATOM      1  C   UNL     1       3.785   4.146  19.551  0.00  0.00    +0.000 A 
ATOM      2  N   UNL     1       2.905   3.175  19.275  0.00  0.00    +0.000 NA
ATOM      3  C   UNL     1       1.614   3.431  19.584  0.00  0.00    +0.000 A 
ATOM      4  C   UNL     1       0.622   2.340  19.312  0.00  0.00    +0.000 C 
ATOM      5  C   UNL     1       1.198   4.629  20.141  0.00  0.00    +0.000 A 
ATOM      6  C   UNL     1       2.179   5.571  20.321  0.00  0.00    +0.000 A 
ATOM      7  N   UNL     1       3.468   5.346  20.046  0.00  0.00    +0.000 NA
ENDROOT
BRANCH   1   8
ATOM      8  O   UNL     1       5.127   3.862  19.315  0.00  0.00    +0.000 OA
BRANCH   8  12
ATOM      9  C   UNL     1       6.594   4.576  15.460  0.00  0.00    +0.000 A 
ATOM     10  C   UNL     1       5.303   4.071  15.623  0.00  0.00    +0.000 A 
ATOM     11  C   UNL     1       4.790   3.857  16.898  0.00  0.00    +0.000 A 
ATOM     12  C   UNL     1       5.584   4.086  18.030  0.00  0.00    +0.000 A 
ATOM     13  C   UNL     1       6.872   4.605  17.878  0.00  0.00    +0.000 A 
ATOM     14  C   UNL     1       7.378   4.852  16.591  0.00  0.00    +0.000 A 
BRANCH   9  15
ATOM     15  C   UNL     1       7.054   4.813  14.065  0.00  0.00    +0.000 C 
ATOM     16  O   UNL     1       7.961   5.580  13.785  0.00  0.00    +0.000 OA
BRANCH  15  18
ATOM     17  C   UNL     1       7.069   3.823  11.963  0.00  0.00    +0.000 C 
ATOM     18  O   UNL     1       6.360   4.052  13.183  0.00  0.00    +0.000 OA
ENDBRANCH  15  18
ENDBRANCH   9  15
ENDBRANCH   8  12
ENDBRANCH   1   8
BRANCH   6  19
ATOM     19  O   UNL     1       1.815   6.812  20.834  0.00  0.00    +0.000 OA
BRANCH  19  20
ATOM     20  C   UNL     1       1.723   7.852  19.929  0.00  0.00    +0.000 A 
ATOM     21  C   UNL     1       2.289   7.787  18.651  0.00  0.00    +0.000 A 
ATOM     22  C   UNL     1       2.209   8.876  17.785  0.00  0.00    +0.000 A 
ATOM     23  C   UNL     1       1.513  10.016  18.173  0.00  0.00    +0.000 A 
ATOM     24  C   UNL     1       0.902  10.070  19.425  0.00  0.00    +0.000 A 
ATOM     25  C   UNL     1       1.005   8.989  20.308  0.00  0.00    +0.000 A 
ENDBRANCH  19  20
ENDBRANCH   6  19
TORSDOF 6
ENDMDL
MODEL 2
REMARK VINA RESULT:      -8.0      2.752      7.475
REMARK  Name = 
REMARK  8 active torsions:
REMARK  status: ('A' for Active; 'I' for Inactive)
REMARK    1  A    between atoms: C_1  and  O_2
REMARK    2  A    between atoms: O_2  and  C_3
REMARK    3  A    between atoms: C_3  and  C_5
REMARK    4  A    between atoms: C_8  and  O_9
REMARK    5  A    between atoms: O_9  and  C_10
REMARK    6  A    between atoms: C_12  and  C_13
REMARK    7  A    between atoms: C_15  and  O_16
REMARK    8  A    between atoms: O_16  and  C_17
REMARK                            x       y       z     vdW  Elec       q    Type
REMARK                         _______ _______ _______ _____ _____    ______ ____
ROOT
ATOM      1  C   UNL     1       4.301   6.654  17.370  0.00  0.00    +0.000 A 
ATOM      2  N   UNL     1       5.583   6.983  17.574  0.00  0.00    +0.000 NA
ATOM      3  C   UNL     1       6.387   5.999  18.038  0.00  0.00    +0.000 A 
ATOM      4  C   UNL     1       7.816   6.361  18.304  0.00  0.00    +0.000 C 
ATOM      5  C   UNL     1       5.936   4.713  18.281  0.00  0.00    +0.000 A 
ATOM      6  C   UNL     1       4.619   4.478  17.976  0.00  0.00    +0.000 A 
ATOM      7  N   UNL     1       3.790   5.430  17.535  0.00  0.00    +0.000 NA
ENDROOT
BRANCH   1   8
ATOM      8  O   UNL     1       3.446   7.678  16.972  0.00  0.00    +0.000 OA
BRANCH   8  12
ATOM      9  C   UNL     1       0.982   9.201  19.993  0.00  0.00    +0.000 A 
ATOM     10  C   UNL     1       1.139   9.918  18.806  0.00  0.00    +0.000 A 
ATOM     11  C   UNL     1       1.930   9.411  17.781  0.00  0.00    +0.000 A 
ATOM     12  C   UNL     1       2.627   8.207  17.952  0.00  0.00    +0.000 A 
ATOM     13  C   UNL     1       2.466   7.476  19.130  0.00  0.00    +0.000 A 
ATOM     14  C   UNL     1       1.641   7.973  20.153  0.00  0.00    +0.000 A 
BRANCH   9  15
ATOM     15  C   UNL     1       0.088   9.794  21.025  0.00  0.00    +0.000 C 
ATOM     16  O   UNL     1      -0.378  10.918  20.935  0.00  0.00    +0.000 OA
BRANCH  15  18
ATOM     17  C   UNL     1      -0.164   9.535  23.321  0.00  0.00    +0.000 C 
ATOM     18  O   UNL     1      -0.149   8.917  22.032  0.00  0.00    +0.000 OA
ENDBRANCH  15  18
ENDBRANCH   9  15
ENDBRANCH   8  12
ENDBRANCH   1   8
BRANCH   6  19
ATOM     19  O   UNL     1       4.120   3.191  18.155  0.00  0.00    +0.000 OA
BRANCH  19  20
ATOM     20  C   UNL     1       3.103   3.046  19.079  0.00  0.00    +0.000 A 
ATOM     21  C   UNL     1       1.765   2.877  18.705  0.00  0.00    +0.000 A 
ATOM     22  C   UNL     1       0.766   2.777  19.670  0.00  0.00    +0.000 A 
ATOM     23  C   UNL     1       1.108   2.789  21.019  0.00  0.00    +0.000 A 
ATOM     24  C   UNL     1       2.443   2.905  21.402  0.00  0.00    +0.000 A 
ATOM     25  C   UNL     1       3.446   3.035  20.434  0.00  0.00    +0.000 A 
ENDBRANCH  19  20
ENDBRANCH   6  19
TORSDOF 6
ENDMDL
MODEL 3
REMARK VINA RESULT:      -7.9      2.820      7.826
REMARK  Name = 
REMARK  8 active torsions:
REMARK  status: ('A' for Active; 'I' for Inactive)
REMARK    1  A    between atoms: C_1  and  O_2
REMARK    2  A    between atoms: O_2  and  C_3
REMARK    3  A    between atoms: C_3  and  C_5
REMARK    4  A    between atoms: C_8  and  O_9
REMARK    5  A    between atoms: O_9  and  C_10
REMARK    6  A    between atoms: C_12  and  C_13
REMARK    7  A    between atoms: C_15  and  O_16
REMARK    8  A    between atoms: O_16  and  C_17
REMARK                            x       y       z     vdW  Elec       q    Type
REMARK                         _______ _______ _______ _____ _____    ______ ____
ROOT
ATOM      1  C   UNL     1       3.567   6.942  17.494  0.00  0.00    +0.000 A 
ATOM      2  N   UNL     1       4.857   7.295  17.426  0.00  0.00    +0.000 NA
ATOM      3  C   UNL     1       5.760   6.310  17.637  0.00  0.00    +0.000 A 
ATOM      4  C   UNL     1       7.207   6.697  17.597  0.00  0.00    +0.000 C 
ATOM      5  C   UNL     1       5.394   5.000  17.896  0.00  0.00    +0.000 A 
ATOM      6  C   UNL     1       4.046   4.746  17.881  0.00  0.00    +0.000 A 
ATOM      7  N   UNL     1       3.125   5.697  17.695  0.00  0.00    +0.000 NA
ENDROOT
BRANCH   1   8
ATOM      8  O   UNL     1       2.630   7.963  17.361  0.00  0.00    +0.000 OA
BRANCH   8  12
ATOM      9  C   UNL     1       0.873   9.445  20.859  0.00  0.00    +0.000 A 
ATOM     10  C   UNL     1       1.467   8.182  20.869  0.00  0.00    +0.000 A 
ATOM     11  C   UNL     1       2.082   7.688  19.723  0.00  0.00    +0.000 A 
ATOM     12  C   UNL     1       2.057   8.424  18.531  0.00  0.00    +0.000 A 
ATOM     13  C   UNL     1       1.477   9.695  18.515  0.00  0.00    +0.000 A 
ATOM     14  C   UNL     1       0.885  10.207  19.681  0.00  0.00    +0.000 A 
BRANCH   9  15
ATOM     15  C   UNL     1       0.271   9.916  22.136  0.00  0.00    +0.000 C 
ATOM     16  O   UNL     1       0.719   9.620  23.232  0.00  0.00    +0.000 OA
BRANCH  15  18
ATOM     17  C   UNL     1      -1.410  11.190  23.111  0.00  0.00    +0.000 C 
ATOM     18  O   UNL     1      -0.794  10.724  21.909  0.00  0.00    +0.000 OA
ENDBRANCH  15  18
ENDBRANCH   9  15
ENDBRANCH   8  12
ENDBRANCH   1   8
BRANCH   6  19
ATOM     19  O   UNL     1       3.619   3.437  18.088  0.00  0.00    +0.000 OA
BRANCH  19  20
ATOM     20  C   UNL     1       2.882   3.203  19.233  0.00  0.00    +0.000 A 
ATOM     21  C   UNL     1       3.471   2.803  20.438  0.00  0.00    +0.000 A 
ATOM     22  C   UNL     1       2.685   2.535  21.556  0.00  0.00    +0.000 A 
ATOM     23  C   UNL     1       1.308   2.721  21.492  0.00  0.00    +0.000 A 
ATOM     24  C   UNL     1       0.717   3.170  20.312  0.00  0.00    +0.000 A 
ATOM     25  C   UNL     1       1.501   3.411  19.177  0.00  0.00    +0.000 A 
ENDBRANCH  19  20
ENDBRANCH   6  19
TORSDOF 6
ENDMDL
MODEL 4
REMARK VINA RESULT:      -7.9      2.768      7.681
REMARK  Name = 
REMARK  8 active torsions:
REMARK  status: ('A' for Active; 'I' for Inactive)
REMARK    1  A    between atoms: C_1  and  O_2
REMARK    2  A    between atoms: O_2  and  C_3
REMARK    3  A    between atoms: C_3  and  C_5
REMARK    4  A    between atoms: C_8  and  O_9
REMARK    5  A    between atoms: O_9  and  C_10
REMARK    6  A    between atoms: C_12  and  C_13
REMARK    7  A    between atoms: C_15  and  O_16
REMARK    8  A    between atoms: O_16  and  C_17
REMARK                            x       y       z     vdW  Elec       q    Type
REMARK                         _______ _______ _______ _____ _____    ______ ____
ROOT
ATOM      1  C   UNL     1       3.864   6.765  17.411  0.00  0.00    +0.000 A 
ATOM      2  N   UNL     1       5.158   7.109  17.405  0.00  0.00    +0.000 NA
ATOM      3  C   UNL     1       6.040   6.124  17.688  0.00  0.00    +0.000 A 
ATOM      4  C   UNL     1       7.491   6.501  17.718  0.00  0.00    +0.000 C 
ATOM      5  C   UNL     1       5.652   4.823  17.959  0.00  0.00    +0.000 A 
ATOM      6  C   UNL     1       4.305   4.576  17.876  0.00  0.00    +0.000 A 
ATOM      7  N   UNL     1       3.402   5.528  17.618  0.00  0.00    +0.000 NA
ENDROOT
BRANCH   1   8
ATOM      8  O   UNL     1       2.942   7.788  17.203  0.00  0.00    +0.000 OA
BRANCH   8  12
ATOM      9  C   UNL     1       0.969   9.329  20.557  0.00  0.00    +0.000 A 
ATOM     10  C   UNL     1       1.590   8.082  20.636  0.00  0.00    +0.000 A 
ATOM     11  C   UNL     1       2.275   7.569  19.540  0.00  0.00    +0.000 A 
ATOM     12  C   UNL     1       2.297   8.269  18.327  0.00  0.00    +0.000 A 
ATOM     13  C   UNL     1       1.692   9.525  18.242  0.00  0.00    +0.000 A 
ATOM     14  C   UNL     1       1.026  10.057  19.359  0.00  0.00    +0.000 A 
BRANCH   9  15
ATOM     15  C   UNL     1       0.289   9.823  21.785  0.00  0.00    +0.000 C 
ATOM     16  O   UNL     1       0.675   9.556  22.912  0.00  0.00    +0.000 OA
BRANCH  15  18
ATOM     17  C   UNL     1      -0.724  11.886  22.127  0.00  0.00    +0.000 C 
ATOM     18  O   UNL     1      -0.769  10.613  21.478  0.00  0.00    +0.000 OA
ENDBRANCH  15  18
ENDBRANCH   9  15
ENDBRANCH   8  12
ENDBRANCH   1   8
BRANCH   6  19
ATOM     19  O   UNL     1       3.858   3.276  18.092  0.00  0.00    +0.000 OA
BRANCH  19  20
ATOM     20  C   UNL     1       2.982   3.090  19.144  0.00  0.00    +0.000 A 
ATOM     21  C   UNL     1       1.593   3.162  18.988  0.00  0.00    +0.000 A 
ATOM     22  C   UNL     1       0.748   3.011  20.084  0.00  0.00    +0.000 A 
ATOM     23  C   UNL     1       1.286   2.730  21.337  0.00  0.00    +0.000 A 
ATOM     24  C   UNL     1       2.666   2.605  21.493  0.00  0.00    +0.000 A 
ATOM     25  C   UNL     1       3.519   2.786  20.398  0.00  0.00    +0.000 A 
ENDBRANCH  19  20
ENDBRANCH   6  19
TORSDOF 6
ENDMDL
MODEL 5
REMARK VINA RESULT:      -7.9      2.771      7.561
REMARK  Name = 
REMARK  8 active torsions:
REMARK  status: ('A' for Active; 'I' for Inactive)
REMARK    1  A    between atoms: C_1  and  O_2
REMARK    2  A    between atoms: O_2  and  C_3
REMARK    3  A    between atoms: C_3  and  C_5
REMARK    4  A    between atoms: C_8  and  O_9
REMARK    5  A    between atoms: O_9  and  C_10
REMARK    6  A    between atoms: C_12  and  C_13
REMARK    7  A    between atoms: C_15  and  O_16
REMARK    8  A    between atoms: O_16  and  C_17
REMARK                            x       y       z     vdW  Elec       q    Type
REMARK                         _______ _______ _______ _____ _____    ______ ____
ROOT
ATOM      1  C   UNL     1       4.110   6.814  17.278  0.00  0.00    +0.000 A 
ATOM      2  N   UNL     1       5.392   7.191  17.365  0.00  0.00    +0.000 NA
ATOM      3  C   UNL     1       6.266   6.251  17.791  0.00  0.00    +0.000 A 
ATOM      4  C   UNL     1       7.699   6.669  17.927  0.00  0.00    +0.000 C 
ATOM      5  C   UNL     1       5.882   4.959  18.109  0.00  0.00    +0.000 A 
ATOM      6  C   UNL     1       4.554   4.671  17.922  0.00  0.00    +0.000 A 
ATOM      7  N   UNL     1       3.658   5.580  17.522  0.00  0.00    +0.000 NA
ENDROOT
BRANCH   1   8
ATOM      8  O   UNL     1       3.190   7.796  16.921  0.00  0.00    +0.000 OA
BRANCH   8  12
ATOM      9  C   UNL     1       0.998   9.599  19.997  0.00  0.00    +0.000 A 
ATOM     10  C   UNL     1       1.529   8.322  20.187  0.00  0.00    +0.000 A 
ATOM     11  C   UNL     1       2.285   7.722  19.186  0.00  0.00    +0.000 A 
ATOM     12  C   UNL     1       2.470   8.364  17.954  0.00  0.00    +0.000 A 
ATOM     13  C   UNL     1       1.955   9.648  17.760  0.00  0.00    +0.000 A 
ATOM     14  C   UNL     1       1.218  10.268  18.783  0.00  0.00    +0.000 A 
BRANCH   9  15
ATOM     15  C   UNL     1       0.234  10.187  21.130  0.00  0.00    +0.000 C 
ATOM     16  O   UNL     1      -0.818  10.787  20.984  0.00  0.00    +0.000 OA
BRANCH  15  18
ATOM     17  C   UNL     1      -0.071   9.551  23.345  0.00  0.00    +0.000 C 
ATOM     18  O   UNL     1       0.843   9.937  22.316  0.00  0.00    +0.000 OA
ENDBRANCH  15  18
ENDBRANCH   9  15
ENDBRANCH   8  12
ENDBRANCH   1   8
BRANCH   6  19
ATOM     19  O   UNL     1       4.117   3.375  18.180  0.00  0.00    +0.000 OA
BRANCH  19  20
ATOM     20  C   UNL     1       3.066   3.243  19.067  0.00  0.00    +0.000 A 
ATOM     21  C   UNL     1       3.150   3.663  20.399  0.00  0.00    +0.000 A 
ATOM     22  C   UNL     1       2.080   3.471  21.271  0.00  0.00    +0.000 A 
ATOM     23  C   UNL     1       0.898   2.909  20.799  0.00  0.00    +0.000 A 
ATOM     24  C   UNL     1       0.787   2.536  19.460  0.00  0.00    +0.000 A 
ATOM     25  C   UNL     1       1.870   2.700  18.589  0.00  0.00    +0.000 A 
ENDBRANCH  19  20
ENDBRANCH   6  19
TORSDOF 6
ENDMDL
MODEL 6
REMARK VINA RESULT:      -7.9      4.310      9.310
REMARK  Name = 
REMARK  8 active torsions:
REMARK  status: ('A' for Active; 'I' for Inactive)
REMARK    1  A    between atoms: C_1  and  O_2
REMARK    2  A    between atoms: O_2  and  C_3
REMARK    3  A    between atoms: C_3  and  C_5
REMARK    4  A    between atoms: C_8  and  O_9
REMARK    5  A    between atoms: O_9  and  C_10
REMARK    6  A    between atoms: C_12  and  C_13
REMARK    7  A    between atoms: C_15  and  O_16
REMARK    8  A    between atoms: O_16  and  C_17
REMARK                            x       y       z     vdW  Elec       q    Type
REMARK                         _______ _______ _______ _____ _____    ______ ____
ROOT
ATOM      1  C   UNL     1       0.776   9.651  19.343  0.00  0.00    +0.000 A 
ATOM      2  N   UNL     1       0.297   9.943  20.559  0.00  0.00    +0.000 NA
ATOM      3  C   UNL     1       0.630   9.091  21.554  0.00  0.00    +0.000 A 
ATOM      4  C   UNL     1       0.073   9.385  22.914  0.00  0.00    +0.000 C 
ATOM      5  C   UNL     1       1.434   7.981  21.355  0.00  0.00    +0.000 A 
ATOM      6  C   UNL     1       1.916   7.818  20.081  0.00  0.00    +0.000 A 
ATOM      7  N   UNL     1       1.592   8.629  19.068  0.00  0.00    +0.000 NA
ENDROOT
BRANCH   1   8
ATOM      8  O   UNL     1       0.371  10.474  18.295  0.00  0.00    +0.000 OA
BRANCH   8  12
ATOM      9  C   UNL     1      -3.731  11.259  18.018  0.00  0.00    +0.000 A 
ATOM     10  C   UNL     1      -2.930  12.056  18.838  0.00  0.00    +0.000 A 
ATOM     11  C   UNL     1      -1.561  11.827  18.917  0.00  0.00    +0.000 A 
ATOM     12  C   UNL     1      -0.980  10.757  18.225  0.00  0.00    +0.000 A 
ATOM     13  C   UNL     1      -1.769   9.962  17.391  0.00  0.00    +0.000 A 
ATOM     14  C   UNL     1      -3.147  10.213  17.286  0.00  0.00    +0.000 A 
BRANCH   9  15
ATOM     15  C   UNL     1      -5.179  11.593  17.959  0.00  0.00    +0.000 C 
ATOM     16  O   UNL     1      -5.713  12.068  16.970  0.00  0.00    +0.000 OA
BRANCH  15  18
ATOM     17  C   UNL     1      -6.765  10.225  18.967  0.00  0.00    +0.000 C 
ATOM     18  O   UNL     1      -5.805  11.273  19.119  0.00  0.00    +0.000 OA
ENDBRANCH  15  18
ENDBRANCH   9  15
ENDBRANCH   8  12
ENDBRANCH   1   8
BRANCH   6  19
ATOM     19  O   UNL     1       2.768   6.747  19.829  0.00  0.00    +0.000 OA
BRANCH  19  20
ATOM     20  C   UNL     1       2.168   5.537  19.536  0.00  0.00    +0.000 A 
ATOM     21  C   UNL     1       1.565   4.740  20.516  0.00  0.00    +0.000 A 
ATOM     22  C   UNL     1       1.010   3.507  20.183  0.00  0.00    +0.000 A 
ATOM     23  C   UNL     1       1.004   3.089  18.855  0.00  0.00    +0.000 A 
ATOM     24  C   UNL     1       1.556   3.899  17.864  0.00  0.00    +0.000 A 
ATOM     25  C   UNL     1       2.142   5.126  18.201  0.00  0.00    +0.000 A 
ENDBRANCH  19  20
ENDBRANCH   6  19
TORSDOF 6
ENDMDL
MODEL 7
REMARK VINA RESULT:      -7.8      2.763      7.593
REMARK  Name = 
REMARK  8 active torsions:
REMARK  status: ('A' for Active; 'I' for Inactive)
REMARK    1  A    between atoms: C_1  and  O_2
REMARK    2  A    between atoms: O_2  and  C_3
REMARK    3  A    between atoms: C_3  and  C_5
REMARK    4  A    between atoms: C_8  and  O_9
REMARK    5  A    between atoms: O_9  and  C_10
REMARK    6  A    between atoms: C_12  and  C_13
REMARK    7  A    between atoms: C_15  and  O_16
REMARK    8  A    between atoms: O_16  and  C_17
REMARK                            x       y       z     vdW  Elec       q    Type
REMARK                         _______ _______ _______ _____ _____    ______ ____
ROOT
ATOM      1  C   UNL     1       4.110   6.691  17.415  0.00  0.00    +0.000 A 
ATOM      2  N   UNL     1       5.408   7.002  17.524  0.00  0.00    +0.000 NA
ATOM      3  C   UNL     1       6.233   6.004  17.911  0.00  0.00    +0.000 A 
ATOM      4  C   UNL     1       7.684   6.346  18.071  0.00  0.00    +0.000 C 
ATOM      5  C   UNL     1       5.787   4.719  18.172  0.00  0.00    +0.000 A 
ATOM      6  C   UNL     1       4.447   4.503  17.967  0.00  0.00    +0.000 A 
ATOM      7  N   UNL     1       3.599   5.471  17.603  0.00  0.00    +0.000 NA
ENDROOT
BRANCH   1   8
ATOM      8  O   UNL     1       3.240   7.730  17.098  0.00  0.00    +0.000 OA
BRANCH   8  12
ATOM      9  C   UNL     1       0.896   9.108  20.280  0.00  0.00    +0.000 A 
ATOM     10  C   UNL     1       0.955   9.847  19.097  0.00  0.00    +0.000 A 
ATOM     11  C   UNL     1       1.705   9.388  18.020  0.00  0.00    +0.000 A 
ATOM     12  C   UNL     1       2.459   8.212  18.131  0.00  0.00    +0.000 A 
ATOM     13  C   UNL     1       2.396   7.458  19.305  0.00  0.00    +0.000 A 
ATOM     14  C   UNL     1       1.612   7.906  20.382  0.00  0.00    +0.000 A 
BRANCH   9  15
ATOM     15  C   UNL     1       0.041   9.649  21.371  0.00  0.00    +0.000 C 
ATOM     16  O   UNL     1      -0.180   9.043  22.406  0.00  0.00    +0.000 OA
BRANCH  15  18
ATOM     17  C   UNL     1      -1.088  11.521  22.160  0.00  0.00    +0.000 C 
ATOM     18  O   UNL     1      -0.416  10.890  21.068  0.00  0.00    +0.000 OA
ENDBRANCH  15  18
ENDBRANCH   9  15
ENDBRANCH   8  12
ENDBRANCH   1   8
BRANCH   6  19
ATOM     19  O   UNL     1       3.948   3.220  18.166  0.00  0.00    +0.000 OA
BRANCH  19  20
ATOM     20  C   UNL     1       3.074   3.055  19.224  0.00  0.00    +0.000 A 
ATOM     21  C   UNL     1       3.512   2.790  20.526  0.00  0.00    +0.000 A 
ATOM     22  C   UNL     1       2.594   2.588  21.555  0.00  0.00    +0.000 A 
ATOM     23  C   UNL     1       1.232   2.707  21.297  0.00  0.00    +0.000 A 
ATOM     24  C   UNL     1       0.788   3.021  20.013  0.00  0.00    +0.000 A 
ATOM     25  C   UNL     1       1.707   3.196  18.971  0.00  0.00    +0.000 A 
ENDBRANCH  19  20
ENDBRANCH   6  19
TORSDOF 6
ENDMDL
MODEL 8
REMARK VINA RESULT:      -7.8      2.490      7.456
REMARK  Name = 
REMARK  8 active torsions:
REMARK  status: ('A' for Active; 'I' for Inactive)
REMARK    1  A    between atoms: C_1  and  O_2
REMARK    2  A    between atoms: O_2  and  C_3
REMARK    3  A    between atoms: C_3  and  C_5
REMARK    4  A    between atoms: C_8  and  O_9
REMARK    5  A    between atoms: O_9  and  C_10
REMARK    6  A    between atoms: C_12  and  C_13
REMARK    7  A    between atoms: C_15  and  O_16
REMARK    8  A    between atoms: O_16  and  C_17
REMARK                            x       y       z     vdW  Elec       q    Type
REMARK                         _______ _______ _______ _____ _____    ______ ____
ROOT
ATOM      1  C   UNL     1       4.045   6.407  17.208  0.00  0.00    +0.000 A 
ATOM      2  N   UNL     1       5.358   6.377  16.946  0.00  0.00    +0.000 NA
ATOM      3  C   UNL     1       5.958   5.168  17.033  0.00  0.00    +0.000 A 
ATOM      4  C   UNL     1       7.434   5.124  16.777  0.00  0.00    +0.000 C 
ATOM      5  C   UNL     1       5.272   4.010  17.358  0.00  0.00    +0.000 A 
ATOM      6  C   UNL     1       3.920   4.154  17.544  0.00  0.00    +0.000 A 
ATOM      7  N   UNL     1       3.296   5.336  17.485  0.00  0.00    +0.000 NA
ENDROOT
BRANCH   1   8
ATOM      8  O   UNL     1       3.433   7.657  17.203  0.00  0.00    +0.000 OA
BRANCH   8  12
ATOM      9  C   UNL     1       0.997   8.640  20.461  0.00  0.00    +0.000 A 
ATOM     10  C   UNL     1       1.798   7.499  20.520  0.00  0.00    +0.000 A 
ATOM     11  C   UNL     1       2.635   7.175  19.458  0.00  0.00    +0.000 A 
ATOM     12  C   UNL     1       2.638   7.955  18.293  0.00  0.00    +0.000 A 
ATOM     13  C   UNL     1       1.851   9.107  18.230  0.00  0.00    +0.000 A 
ATOM     14  C   UNL     1       1.029   9.451  19.316  0.00  0.00    +0.000 A 
BRANCH   9  15
ATOM     15  C   UNL     1       0.158   8.937  21.654  0.00  0.00    +0.000 C 
ATOM     16  O   UNL     1      -0.747   8.210  22.029  0.00  0.00    +0.000 OA
BRANCH  15  18
ATOM     17  C   UNL     1      -0.431  11.114  22.216  0.00  0.00    +0.000 C 
ATOM     18  O   UNL     1       0.557  10.082  22.263  0.00  0.00    +0.000 OA
ENDBRANCH  15  18
ENDBRANCH   9  15
ENDBRANCH   8  12
ENDBRANCH   1   8
BRANCH   6  19
ATOM     19  O   UNL     1       3.168   3.018  17.827  0.00  0.00    +0.000 OA
BRANCH  19  20
ATOM     20  C   UNL     1       2.592   2.954  19.081  0.00  0.00    +0.000 A 
ATOM     21  C   UNL     1       3.340   2.719  20.240  0.00  0.00    +0.000 A 
ATOM     22  C   UNL     1       2.713   2.620  21.481  0.00  0.00    +0.000 A 
ATOM     23  C   UNL     1       1.338   2.813  21.575  0.00  0.00    +0.000 A 
ATOM     24  C   UNL     1       0.592   3.099  20.433  0.00  0.00    +0.000 A 
ATOM     25  C   UNL     1       1.216   3.170  19.181  0.00  0.00    +0.000 A 
ENDBRANCH  19  20
ENDBRANCH   6  19
TORSDOF 6
ENDMDL
MODEL 9
REMARK VINA RESULT:      -7.8      2.724      7.306
REMARK  Name = 
REMARK  8 active torsions:
REMARK  status: ('A' for Active; 'I' for Inactive)
REMARK    1  A    between atoms: C_1  and  O_2
REMARK    2  A    between atoms: O_2  and  C_3
REMARK    3  A    between atoms: C_3  and  C_5
REMARK    4  A    between atoms: C_8  and  O_9
REMARK    5  A    between atoms: O_9  and  C_10
REMARK    6  A    between atoms: C_12  and  C_13
REMARK    7  A    between atoms: C_15  and  O_16
REMARK    8  A    between atoms: O_16  and  C_17
REMARK                            x       y       z     vdW  Elec       q    Type
REMARK                         _______ _______ _______ _____ _____    ______ ____
ROOT
ATOM      1  C   UNL     1       2.234   6.601  20.111  0.00  0.00    +0.000 A 
ATOM      2  N   UNL     1       1.481   5.549  20.454  0.00  0.00    +0.000 NA
ATOM      3  C   UNL     1       1.666   4.419  19.734  0.00  0.00    +0.000 A 
ATOM      4  C   UNL     1       0.805   3.243  20.085  0.00  0.00    +0.000 C 
ATOM      5  C   UNL     1       2.587   4.328  18.705  0.00  0.00    +0.000 A 
ATOM      6  C   UNL     1       3.344   5.451  18.484  0.00  0.00    +0.000 A 
ATOM      7  N   UNL     1       3.175   6.591  19.163  0.00  0.00    +0.000 NA
ENDROOT
BRANCH   1   8
ATOM      8  O   UNL     1       1.994   7.793  20.789  0.00  0.00    +0.000 OA
BRANCH   8  12
ATOM      9  C   UNL     1      -0.478  10.598  18.907  0.00  0.00    +0.000 A 
ATOM     10  C   UNL     1       0.583  10.030  18.200  0.00  0.00    +0.000 A 
ATOM     11  C   UNL     1       1.395   9.075  18.801  0.00  0.00    +0.000 A 
ATOM     12  C   UNL     1       1.196   8.717  20.142  0.00  0.00    +0.000 A 
ATOM     13  C   UNL     1       0.128   9.268  20.853  0.00  0.00    +0.000 A 
ATOM     14  C   UNL     1      -0.712  10.210  20.236  0.00  0.00    +0.000 A 
BRANCH   9  15
ATOM     15  C   UNL     1      -1.322  11.584  18.180  0.00  0.00    +0.000 C 
ATOM     16  O   UNL     1      -0.961  12.726  17.947  0.00  0.00    +0.000 OA
BRANCH  15  18
ATOM     17  C   UNL     1      -2.549  10.724  16.402  0.00  0.00    +0.000 C 
ATOM     18  O   UNL     1      -2.502  11.033  17.797  0.00  0.00    +0.000 OA
ENDBRANCH  15  18
ENDBRANCH   9  15
ENDBRANCH   8  12
ENDBRANCH   1   8
BRANCH   6  19
ATOM     19  O   UNL     1       4.320   5.404  17.493  0.00  0.00    +0.000 OA
BRANCH  19  20
ATOM     20  C   UNL     1       5.578   5.856  17.842  0.00  0.00    +0.000 A 
ATOM     21  C   UNL     1       6.347   5.242  18.836  0.00  0.00    +0.000 A 
ATOM     22  C   UNL     1       7.594   5.756  19.187  0.00  0.00    +0.000 A 
ATOM     23  C   UNL     1       8.102   6.858  18.504  0.00  0.00    +0.000 A 
ATOM     24  C   UNL     1       7.364   7.445  17.477  0.00  0.00    +0.000 A 
ATOM     25  C   UNL     1       6.099   6.948  17.143  0.00  0.00    +0.000 A 
ENDBRANCH  19  20
ENDBRANCH   6  19
TORSDOF 6
ENDMDL
