MODEL 1
REMARK VINA RESULT:      -9.1      0.000      0.000
REMARK  Name = 
REMARK  5 active torsions:
REMARK  status: ('A' for Active; 'I' for Inactive)
REMARK    1  A    between atoms: N_1  and  C_2
REMARK    2  A    between atoms: C_3  and  C_4
REMARK    3  A    between atoms: N_6  and  C_7
REMARK    4  A    between atoms: C_15  and  C_16
REMARK    5  A    between atoms: C_22  and  C_23
REMARK                            x       y       z     vdW  Elec       q    Type
REMARK                         _______ _______ _______ _____ _____    ______ ____
ROOT
ATOM      1  C   UNL     1       4.259   3.839  18.500  0.00  0.00    +0.000 A 
ATOM      2  C   UNL     1       4.965   4.651  17.628  0.00  0.00    +0.000 A 
ATOM      3  O   UNL     1       4.525   5.947  17.774  0.00  0.00    +0.000 OA
ATOM      4  C   UNL     1       3.558   5.956  18.735  0.00  0.00    +0.000 A 
ATOM      5  N   UNL     1       2.939   7.085  19.123  0.00  0.00    +0.000 NA
ATOM      6  C   UNL     1       2.041   6.901  20.117  0.00  0.00    +0.000 A 
ATOM      7  C   UNL     1       1.731   5.658  20.667  0.00  0.00    +0.000 A 
ATOM      8  C   UNL     1       2.389   4.493  20.233  0.00  0.00    +0.000 A 
ATOM      9  C   UNL     1       3.356   4.668  19.222  0.00  0.00    +0.000 A 
ENDROOT
BRANCH   6  10
ATOM     10  C   UNL     1       1.398   8.138  20.594  0.00  0.00    +0.000 A 
ATOM     11  C   UNL     1       0.975   8.464  21.871  0.00  0.00    +0.000 A 
ATOM     12  C   UNL     1       0.385   9.761  21.948  0.00  0.00    +0.000 A 
ATOM     13  C   UNL     1       0.357  10.388  20.723  0.00  0.00    +0.000 A 
ATOM     14  S   UNL     1       1.035   9.415  19.495  0.00  0.00    +0.000 S 
ENDBRANCH   6  10
BRANCH   2  15
ATOM     15  C   UNL     1       6.020   4.384  16.660  0.00  0.00    +0.000 C 
ATOM     16  O   UNL     1       7.210   4.300  16.956  0.00  0.00    +0.000 OA
ATOM     17  N   UNL     1       5.547   4.228  15.373  0.00  0.00    +0.000 N 
ATOM     18  H   UNL     1       4.542   4.311  15.268  0.00  0.00    +0.000 HD
BRANCH  17  19
ATOM     19  C   UNL     1       6.314   3.915  14.185  0.00  0.00    +0.000 C 
ATOM     20  C   UNL     1       5.521   3.461  12.964  0.00  0.00    +0.000 C 
ATOM     21  C   UNL     1       6.574   3.466  11.859  0.00  0.00    +0.000 C 
ATOM     22  C   UNL     1       7.558   4.579  12.227  0.00  0.00    +0.000 C 
ATOM     23  C   UNL     1       7.172   5.048  13.632  0.00  0.00    +0.000 C 
ENDBRANCH  17  19
ENDBRANCH   2  15
BRANCH   8  24
ATOM     24  C   UNL     1       2.066   3.165  20.844  0.00  0.00    +0.000 C 
ATOM     25  F   UNL     1       3.125   2.590  21.481  0.00  0.00    +0.000 F 
ATOM     26  F   UNL     1       1.074   3.238  21.773  0.00  0.00    +0.000 F 
ATOM     27  F   UNL     1       1.648   2.249  19.927  0.00  0.00    +0.000 F 
ENDBRANCH   8  24
BRANCH   1  28
ATOM     28  N   UNL     1       4.403   2.509  18.647  0.00  0.00    +0.000 N 
ATOM     29  H   UNL     1       3.732   1.853  18.244  0.00  0.00    +0.000 HD
ATOM     30  H   UNL     1       5.191   2.053  19.100  0.00  0.00    +0.000 HD
ENDBRANCH   1  28
TORSDOF 5
ENDMDL
MODEL 2
REMARK VINA RESULT:      -8.7      0.643      1.099
REMARK  Name = 
REMARK  5 active torsions:
REMARK  status: ('A' for Active; 'I' for Inactive)
REMARK    1  A    between atoms: N_1  and  C_2
REMARK    2  A    between atoms: C_3  and  C_4
REMARK    3  A    between atoms: N_6  and  C_7
REMARK    4  A    between atoms: C_15  and  C_16
REMARK    5  A    between atoms: C_22  and  C_23
REMARK                            x       y       z     vdW  Elec       q    Type
REMARK                         _______ _______ _______ _____ _____    ______ ____
ROOT
ATOM      1  C   UNL     1       4.265   3.959  18.385  0.00  0.00    +0.000 A 
ATOM      2  C   UNL     1       4.968   4.726  17.471  0.00  0.00    +0.000 A 
ATOM      3  O   UNL     1       4.530   6.028  17.554  0.00  0.00    +0.000 OA
ATOM      4  C   UNL     1       3.569   6.086  18.519  0.00  0.00    +0.000 A 
ATOM      5  N   UNL     1       2.953   7.235  18.853  0.00  0.00    +0.000 NA
ATOM      6  C   UNL     1       2.060   7.102  19.859  0.00  0.00    +0.000 A 
ATOM      7  C   UNL     1       1.750   5.889  20.471  0.00  0.00    +0.000 A 
ATOM      8  C   UNL     1       2.405   4.702  20.092  0.00  0.00    +0.000 A 
ATOM      9  C   UNL     1       3.367   4.824  19.069  0.00  0.00    +0.000 A 
ENDROOT
BRANCH   6  10
ATOM     10  C   UNL     1       1.421   8.363  20.277  0.00  0.00    +0.000 A 
ATOM     11  C   UNL     1       0.993   9.424  19.497  0.00  0.00    +0.000 A 
ATOM     12  C   UNL     1       0.425  10.484  20.263  0.00  0.00    +0.000 A 
ATOM     13  C   UNL     1       0.449  10.215  21.613  0.00  0.00    +0.000 A 
ATOM     14  S   UNL     1       1.153   8.696  21.946  0.00  0.00    +0.000 S 
ENDBRANCH   6  10
BRANCH   2  15
ATOM     15  C   UNL     1       6.018   4.409  16.513  0.00  0.00    +0.000 C 
ATOM     16  O   UNL     1       7.204   4.291  16.815  0.00  0.00    +0.000 OA
ATOM     17  N   UNL     1       5.546   4.247  15.226  0.00  0.00    +0.000 N 
ATOM     18  H   UNL     1       4.544   4.360  15.115  0.00  0.00    +0.000 HD
BRANCH  17  19
ATOM     19  C   UNL     1       6.307   3.889  14.047  0.00  0.00    +0.000 C 
ATOM     20  C   UNL     1       5.509   3.379  12.851  0.00  0.00    +0.000 C 
ATOM     21  C   UNL     1       6.556   3.345  11.740  0.00  0.00    +0.000 C 
ATOM     22  C   UNL     1       7.534   4.480  12.055  0.00  0.00    +0.000 C 
ATOM     23  C   UNL     1       7.154   5.004  13.441  0.00  0.00    +0.000 C 
ENDBRANCH  17  19
ENDBRANCH   2  15
BRANCH   8  24
ATOM     24  C   UNL     1       2.082   3.407  20.771  0.00  0.00    +0.000 C 
ATOM     25  F   UNL     1       1.660   2.436  19.912  0.00  0.00    +0.000 F 
ATOM     26  F   UNL     1       3.147   2.876  21.431  0.00  0.00    +0.000 F 
ATOM     27  F   UNL     1       1.094   3.528  21.700  0.00  0.00    +0.000 F 
ENDBRANCH   8  24
BRANCH   1  28
ATOM     28  N   UNL     1       4.407   2.638  18.598  0.00  0.00    +0.000 N 
ATOM     29  H   UNL     1       3.986   2.182  19.409  0.00  0.00    +0.000 HD
ATOM     30  H   UNL     1       4.872   1.991  17.967  0.00  0.00    +0.000 HD
ENDBRANCH   1  28
TORSDOF 5
ENDMDL
MODEL 3
REMARK VINA RESULT:      -8.1      2.510      7.532
REMARK  Name = 
REMARK  5 active torsions:
REMARK  status: ('A' for Active; 'I' for Inactive)
REMARK    1  A    between atoms: N_1  and  C_2
REMARK    2  A    between atoms: C_3  and  C_4
REMARK    3  A    between atoms: N_6  and  C_7
REMARK    4  A    between atoms: C_15  and  C_16
REMARK    5  A    between atoms: C_22  and  C_23
REMARK                            x       y       z     vdW  Elec       q    Type
REMARK                         _______ _______ _______ _____ _____    ______ ____
ROOT
ATOM      1  C   UNL     1       2.202   5.521  19.748  0.00  0.00    +0.000 A 
ATOM      2  C   UNL     1       2.260   6.891  19.551  0.00  0.00    +0.000 A 
ATOM      3  O   UNL     1       3.089   7.151  18.483  0.00  0.00    +0.000 OA
ATOM      4  C   UNL     1       3.540   5.958  18.002  0.00  0.00    +0.000 A 
ATOM      5  N   UNL     1       4.360   5.875  16.939  0.00  0.00    +0.000 NA
ATOM      6  C   UNL     1       4.665   4.606  16.584  0.00  0.00    +0.000 A 
ATOM      7  C   UNL     1       4.225   3.477  17.273  0.00  0.00    +0.000 A 
ATOM      8  C   UNL     1       3.375   3.598  18.387  0.00  0.00    +0.000 A 
ATOM      9  C   UNL     1       3.015   4.910  18.753  0.00  0.00    +0.000 A 
ENDROOT
BRANCH   6  10
ATOM     10  C   UNL     1       5.515   4.497  15.385  0.00  0.00    +0.000 A 
ATOM     11  C   UNL     1       5.233   3.899  14.168  0.00  0.00    +0.000 A 
ATOM     12  C   UNL     1       6.314   3.986  13.242  0.00  0.00    +0.000 A 
ATOM     13  C   UNL     1       7.403   4.634  13.780  0.00  0.00    +0.000 A 
ATOM     14  S   UNL     1       7.119   5.128  15.388  0.00  0.00    +0.000 S 
ENDBRANCH   6  10
BRANCH   2  15
ATOM     15  C   UNL     1       1.635   8.017  20.232  0.00  0.00    +0.000 C 
ATOM     16  O   UNL     1       1.382   8.029  21.435  0.00  0.00    +0.000 OA
ATOM     17  N   UNL     1       1.359   9.075  19.390  0.00  0.00    +0.000 N 
ATOM     18  H   UNL     1       1.629   8.938  18.422  0.00  0.00    +0.000 HD
BRANCH  17  19
ATOM     19  C   UNL     1       0.782  10.354  19.743  0.00  0.00    +0.000 C 
ATOM     20  C   UNL     1       1.242  11.557  18.925  0.00  0.00    +0.000 C 
ATOM     21  C   UNL     1       0.279  12.654  19.373  0.00  0.00    +0.000 C 
ATOM     22  C   UNL     1      -1.034  11.943  19.712  0.00  0.00    +0.000 C 
ATOM     23  C   UNL     1      -0.738  10.443  19.655  0.00  0.00    +0.000 C 
ENDBRANCH  17  19
ENDBRANCH   2  15
BRANCH   8  24
ATOM     24  C   UNL     1       2.889   2.378  19.108  0.00  0.00    +0.000 C 
ATOM     25  F   UNL     1       1.531   2.270  19.134  0.00  0.00    +0.000 F 
ATOM     26  F   UNL     1       3.340   1.220  18.552  0.00  0.00    +0.000 F 
ATOM     27  F   UNL     1       3.285   2.342  20.411  0.00  0.00    +0.000 F 
ENDBRANCH   8  24
BRANCH   1  28
ATOM     28  N   UNL     1       1.499   4.879  20.698  0.00  0.00    +0.000 N 
ATOM     29  H   UNL     1       0.560   5.183  20.962  0.00  0.00    +0.000 HD
ATOM     30  H   UNL     1       1.798   4.033  21.175  0.00  0.00    +0.000 HD
ENDBRANCH   1  28
TORSDOF 5
ENDMDL
MODEL 4
REMARK VINA RESULT:      -8.1      0.601      1.185
REMARK  Name = 
REMARK  5 active torsions:
REMARK  status: ('A' for Active; 'I' for Inactive)
REMARK    1  A    between atoms: N_1  and  C_2
REMARK    2  A    between atoms: C_3  and  C_4
REMARK    3  A    between atoms: N_6  and  C_7
REMARK    4  A    between atoms: C_15  and  C_16
REMARK    5  A    between atoms: C_22  and  C_23
REMARK                            x       y       z     vdW  Elec       q    Type
REMARK                         _______ _______ _______ _____ _____    ______ ____
ROOT
ATOM      1  C   UNL     1       3.858   3.656  18.262  0.00  0.00    +0.000 A 
ATOM      2  C   UNL     1       4.402   4.412  17.237  0.00  0.00    +0.000 A 
ATOM      3  O   UNL     1       3.999   5.720  17.388  0.00  0.00    +0.000 OA
ATOM      4  C   UNL     1       3.219   5.792  18.504  0.00  0.00    +0.000 A 
ATOM      5  N   UNL     1       2.683   6.949  18.933  0.00  0.00    +0.000 NA
ATOM      6  C   UNL     1       1.975   6.829  20.079  0.00  0.00    +0.000 A 
ATOM      7  C   UNL     1       1.763   5.621  20.742  0.00  0.00    +0.000 A 
ATOM      8  C   UNL     1       2.329   4.426  20.261  0.00  0.00    +0.000 A 
ATOM      9  C   UNL     1       3.101   4.534  19.087  0.00  0.00    +0.000 A 
ENDROOT
BRANCH   6  10
ATOM     10  C   UNL     1       1.432   8.098  20.594  0.00  0.00    +0.000 A 
ATOM     11  C   UNL     1       1.083   8.434  21.891  0.00  0.00    +0.000 A 
ATOM     12  C   UNL     1       0.581   9.764  22.006  0.00  0.00    +0.000 A 
ATOM     13  C   UNL     1       0.541  10.407  20.789  0.00  0.00    +0.000 A 
ATOM     14  S   UNL     1       1.105   9.409  19.524  0.00  0.00    +0.000 S 
ENDBRANCH   6  10
BRANCH   2  15
ATOM     15  C   UNL     1       5.267   4.080  16.113  0.00  0.00    +0.000 C 
ATOM     16  O   UNL     1       5.992   3.088  16.083  0.00  0.00    +0.000 OA
ATOM     17  N   UNL     1       5.187   4.991  15.079  0.00  0.00    +0.000 N 
ATOM     18  H   UNL     1       4.541   5.758  15.229  0.00  0.00    +0.000 HD
BRANCH  17  19
ATOM     19  C   UNL     1       5.875   4.942  13.807  0.00  0.00    +0.000 C 
ATOM     20  C   UNL     1       7.383   5.174  13.841  0.00  0.00    +0.000 C 
ATOM     21  C   UNL     1       7.810   4.808  12.421  0.00  0.00    +0.000 C 
ATOM     22  C   UNL     1       6.836   3.720  11.961  0.00  0.00    +0.000 C 
ATOM     23  C   UNL     1       5.750   3.632  13.035  0.00  0.00    +0.000 C 
ENDBRANCH  17  19
ENDBRANCH   2  15
BRANCH   8  24
ATOM     24  C   UNL     1       2.114   3.136  20.991  0.00  0.00    +0.000 C 
ATOM     25  F   UNL     1       1.366   3.272  22.122  0.00  0.00    +0.000 F 
ATOM     26  F   UNL     1       1.473   2.202  20.236  0.00  0.00    +0.000 F 
ATOM     27  F   UNL     1       3.278   2.554  21.390  0.00  0.00    +0.000 F 
ENDBRANCH   8  24
BRANCH   1  28
ATOM     28  N   UNL     1       4.021   2.334  18.454  0.00  0.00    +0.000 N 
ATOM     29  H   UNL     1       3.406   1.652  18.007  0.00  0.00    +0.000 HD
ATOM     30  H   UNL     1       4.775   1.909  18.987  0.00  0.00    +0.000 HD
ENDBRANCH   1  28
TORSDOF 5
ENDMDL
MODEL 5
REMARK VINA RESULT:      -7.9      1.013      1.275
REMARK  Name = 
REMARK  5 active torsions:
REMARK  status: ('A' for Active; 'I' for Inactive)
REMARK    1  A    between atoms: N_1  and  C_2
REMARK    2  A    between atoms: C_3  and  C_4
REMARK    3  A    between atoms: N_6  and  C_7
REMARK    4  A    between atoms: C_15  and  C_16
REMARK    5  A    between atoms: C_22  and  C_23
REMARK                            x       y       z     vdW  Elec       q    Type
REMARK                         _______ _______ _______ _____ _____    ______ ____
ROOT
ATOM      1  C   UNL     1       3.797   4.767  18.024  0.00  0.00    +0.000 A 
ATOM      2  C   UNL     1       4.256   5.723  17.134  0.00  0.00    +0.000 A 
ATOM      3  O   UNL     1       3.725   6.945  17.481  0.00  0.00    +0.000 OA
ATOM      4  C   UNL     1       2.947   6.764  18.587  0.00  0.00    +0.000 A 
ATOM      5  N   UNL     1       2.300   7.781  19.184  0.00  0.00    +0.000 NA
ATOM      6  C   UNL     1       1.613   7.415  20.290  0.00  0.00    +0.000 A 
ATOM      7  C   UNL     1       1.527   6.103  20.755  0.00  0.00    +0.000 A 
ATOM      8  C   UNL     1       2.207   5.060  20.101  0.00  0.00    +0.000 A 
ATOM      9  C   UNL     1       2.959   5.426  18.967  0.00  0.00    +0.000 A 
ENDROOT
BRANCH   6  10
ATOM     10  C   UNL     1       0.949   8.528  20.990  0.00  0.00    +0.000 A 
ATOM     11  C   UNL     1       0.353   8.540  22.240  0.00  0.00    +0.000 A 
ATOM     12  C   UNL     1      -0.198   9.811  22.582  0.00  0.00    +0.000 A 
ATOM     13  C   UNL     1      -0.026  10.734  21.575  0.00  0.00    +0.000 A 
ATOM     14  S   UNL     1       0.792  10.069  20.234  0.00  0.00    +0.000 S 
ENDBRANCH   6  10
BRANCH   2  15
ATOM     15  C   UNL     1       5.145   5.658  15.982  0.00  0.00    +0.000 C 
ATOM     16  O   UNL     1       5.754   6.627  15.536  0.00  0.00    +0.000 OA
ATOM     17  N   UNL     1       5.239   4.391  15.442  0.00  0.00    +0.000 N 
ATOM     18  H   UNL     1       4.693   3.678  15.913  0.00  0.00    +0.000 HD
BRANCH  17  19
ATOM     19  C   UNL     1       6.059   3.968  14.326  0.00  0.00    +0.000 C 
ATOM     20  C   UNL     1       5.324   3.636  13.030  0.00  0.00    +0.000 C 
ATOM     21  C   UNL     1       6.466   3.486  12.027  0.00  0.00    +0.000 C 
ATOM     22  C   UNL     1       7.563   4.443  12.499  0.00  0.00    +0.000 C 
ATOM     23  C   UNL     1       7.121   4.964  13.869  0.00  0.00    +0.000 C 
ENDBRANCH  17  19
ENDBRANCH   2  15
BRANCH   8  24
ATOM     24  C   UNL     1       2.126   3.658  20.620  0.00  0.00    +0.000 C 
ATOM     25  F   UNL     1       1.526   2.794  19.755  0.00  0.00    +0.000 F 
ATOM     26  F   UNL     1       3.349   3.121  20.887  0.00  0.00    +0.000 F 
ATOM     27  F   UNL     1       1.421   3.564  21.781  0.00  0.00    +0.000 F 
ENDBRANCH   8  24
BRANCH   1  28
ATOM     28  N   UNL     1       4.092   3.454  18.010  0.00  0.00    +0.000 N 
ATOM     29  H   UNL     1       3.522   2.775  18.518  0.00  0.00    +0.000 HD
ATOM     30  H   UNL     1       4.838   3.028  17.466  0.00  0.00    +0.000 HD
ENDBRANCH   1  28
TORSDOF 5
ENDMDL
MODEL 6
REMARK VINA RESULT:      -7.8      2.623      7.488
REMARK  Name = 
REMARK  5 active torsions:
REMARK  status: ('A' for Active; 'I' for Inactive)
REMARK    1  A    between atoms: N_1  and  C_2
REMARK    2  A    between atoms: C_3  and  C_4
REMARK    3  A    between atoms: N_6  and  C_7
REMARK    4  A    between atoms: C_15  and  C_16
REMARK    5  A    between atoms: C_22  and  C_23
REMARK                            x       y       z     vdW  Elec       q    Type
REMARK                         _______ _______ _______ _____ _____    ______ ____
ROOT
ATOM      1  C   UNL     1       2.390   5.468  19.506  0.00  0.00    +0.000 A 
ATOM      2  C   UNL     1       2.414   6.840  19.321  0.00  0.00    +0.000 A 
ATOM      3  O   UNL     1       3.247   7.132  18.266  0.00  0.00    +0.000 OA
ATOM      4  C   UNL     1       3.736   5.955  17.780  0.00  0.00    +0.000 A 
ATOM      5  N   UNL     1       4.570   5.903  16.726  0.00  0.00    +0.000 NA
ATOM      6  C   UNL     1       4.914   4.646  16.364  0.00  0.00    +0.000 A 
ATOM      7  C   UNL     1       4.496   3.499  17.039  0.00  0.00    +0.000 A 
ATOM      8  C   UNL     1       3.630   3.588  18.144  0.00  0.00    +0.000 A 
ATOM      9  C   UNL     1       3.231   4.887  18.516  0.00  0.00    +0.000 A 
ENDROOT
BRANCH   6  10
ATOM     10  C   UNL     1       5.780   4.570  15.175  0.00  0.00    +0.000 A 
ATOM     11  C   UNL     1       7.023   5.141  14.964  0.00  0.00    +0.000 A 
ATOM     12  C   UNL     1       7.557   4.851  13.674  0.00  0.00    +0.000 A 
ATOM     13  C   UNL     1       6.699   4.079  12.923  0.00  0.00    +0.000 A 
ATOM     14  S   UNL     1       5.265   3.712  13.771  0.00  0.00    +0.000 S 
ENDBRANCH   6  10
BRANCH   2  15
ATOM     15  C   UNL     1       1.750   7.943  20.004  0.00  0.00    +0.000 C 
ATOM     16  O   UNL     1       1.480   7.936  21.203  0.00  0.00    +0.000 OA
ATOM     17  N   UNL     1       1.460   9.002  19.168  0.00  0.00    +0.000 N 
ATOM     18  H   UNL     1       1.748   8.883  18.203  0.00  0.00    +0.000 HD
BRANCH  17  19
ATOM     19  C   UNL     1       0.846  10.263  19.526  0.00  0.00    +0.000 C 
ATOM     20  C   UNL     1       1.375  11.504  18.813  0.00  0.00    +0.000 C 
ATOM     21  C   UNL     1       0.369  12.578  19.219  0.00  0.00    +0.000 C 
ATOM     22  C   UNL     1      -0.966  11.851  19.398  0.00  0.00    +0.000 C 
ATOM     23  C   UNL     1      -0.660  10.356  19.298  0.00  0.00    +0.000 C 
ENDBRANCH  17  19
ENDBRANCH   2  15
BRANCH   8  24
ATOM     24  C   UNL     1       3.169   2.350  18.849  0.00  0.00    +0.000 C 
ATOM     25  F   UNL     1       3.670   1.202  18.312  0.00  0.00    +0.000 F 
ATOM     26  F   UNL     1       3.523   2.326  20.163  0.00  0.00    +0.000 F 
ATOM     27  F   UNL     1       1.815   2.203  18.828  0.00  0.00    +0.000 F 
ENDBRANCH   8  24
BRANCH   1  28
ATOM     28  N   UNL     1       1.693   4.799  20.443  0.00  0.00    +0.000 N 
ATOM     29  H   UNL     1       0.917   5.237  20.943  0.00  0.00    +0.000 HD
ATOM     30  H   UNL     1       1.827   3.820  20.684  0.00  0.00    +0.000 HD
ENDBRANCH   1  28
TORSDOF 5
ENDMDL
MODEL 7
REMARK VINA RESULT:      -7.7      2.497      7.592
REMARK  Name = 
REMARK  5 active torsions:
REMARK  status: ('A' for Active; 'I' for Inactive)
REMARK    1  A    between atoms: N_1  and  C_2
REMARK    2  A    between atoms: C_3  and  C_4
REMARK    3  A    between atoms: N_6  and  C_7
REMARK    4  A    between atoms: C_15  and  C_16
REMARK    5  A    between atoms: C_22  and  C_23
REMARK                            x       y       z     vdW  Elec       q    Type
REMARK                         _______ _______ _______ _____ _____    ______ ____
ROOT
ATOM      1  C   UNL     1       2.240   5.642  19.826  0.00  0.00    +0.000 A 
ATOM      2  C   UNL     1       2.207   6.998  19.547  0.00  0.00    +0.000 A 
ATOM      3  O   UNL     1       3.004   7.246  18.453  0.00  0.00    +0.000 OA
ATOM      4  C   UNL     1       3.526   6.057  18.036  0.00  0.00    +0.000 A 
ATOM      5  N   UNL     1       4.337   5.963  16.967  0.00  0.00    +0.000 NA
ATOM      6  C   UNL     1       4.720   4.697  16.683  0.00  0.00    +0.000 A 
ATOM      7  C   UNL     1       4.362   3.585  17.445  0.00  0.00    +0.000 A 
ATOM      8  C   UNL     1       3.520   3.719  18.564  0.00  0.00    +0.000 A 
ATOM      9  C   UNL     1       3.080   5.025  18.857  0.00  0.00    +0.000 A 
ENDROOT
BRANCH   6  10
ATOM     10  C   UNL     1       5.559   4.571  15.480  0.00  0.00    +0.000 A 
ATOM     11  C   UNL     1       5.248   4.004  14.255  0.00  0.00    +0.000 A 
ATOM     12  C   UNL     1       6.329   4.060  13.325  0.00  0.00    +0.000 A 
ATOM     13  C   UNL     1       7.447   4.651  13.869  0.00  0.00    +0.000 A 
ATOM     14  S   UNL     1       7.189   5.132  15.486  0.00  0.00    +0.000 S 
ENDBRANCH   6  10
BRANCH   2  15
ATOM     15  C   UNL     1       1.518   8.120  20.170  0.00  0.00    +0.000 C 
ATOM     16  O   UNL     1       1.189   8.144  21.354  0.00  0.00    +0.000 OA
ATOM     17  N   UNL     1       1.277   9.161  19.296  0.00  0.00    +0.000 N 
ATOM     18  H   UNL     1       1.611   9.016  18.349  0.00  0.00    +0.000 HD
BRANCH  17  19
ATOM     19  C   UNL     1       0.653  10.433  19.593  0.00  0.00    +0.000 C 
ATOM     20  C   UNL     1      -0.869  10.438  19.693  0.00  0.00    +0.000 C 
ATOM     21  C   UNL     1      -1.163  11.827  20.253  0.00  0.00    +0.000 C 
ATOM     22  C   UNL     1       0.036  12.184  21.134  0.00  0.00    +0.000 C 
ATOM     23  C   UNL     1       1.083  11.093  20.900  0.00  0.00    +0.000 C 
ENDBRANCH  17  19
ENDBRANCH   2  15
BRANCH   8  24
ATOM     24  C   UNL     1       3.123   2.516  19.364  0.00  0.00    +0.000 C 
ATOM     25  F   UNL     1       3.509   2.583  20.669  0.00  0.00    +0.000 F 
ATOM     26  F   UNL     1       1.777   2.318  19.388  0.00  0.00    +0.000 F 
ATOM     27  F   UNL     1       3.659   1.361  18.882  0.00  0.00    +0.000 F 
ENDBRANCH   8  24
BRANCH   1  28
ATOM     28  N   UNL     1       1.592   5.014  20.824  0.00  0.00    +0.000 N 
ATOM     29  H   UNL     1       2.031   4.256  21.350  0.00  0.00    +0.000 HD
ATOM     30  H   UNL     1       0.672   5.267  21.174  0.00  0.00    +0.000 HD
ENDBRANCH   1  28
TORSDOF 5
ENDMDL
MODEL 8
REMARK VINA RESULT:      -7.5      0.821      1.243
REMARK  Name = 
REMARK  5 active torsions:
REMARK  status: ('A' for Active; 'I' for Inactive)
REMARK    1  A    between atoms: N_1  and  C_2
REMARK    2  A    between atoms: C_3  and  C_4
REMARK    3  A    between atoms: N_6  and  C_7
REMARK    4  A    between atoms: C_15  and  C_16
REMARK    5  A    between atoms: C_22  and  C_23
REMARK                            x       y       z     vdW  Elec       q    Type
REMARK                         _______ _______ _______ _____ _____    ______ ____
ROOT
ATOM      1  C   UNL     1       4.032   3.918  18.123  0.00  0.00    +0.000 A 
ATOM      2  C   UNL     1       4.576   4.655  17.083  0.00  0.00    +0.000 A 
ATOM      3  O   UNL     1       4.134   5.954  17.180  0.00  0.00    +0.000 OA
ATOM      4  C   UNL     1       3.328   6.042  18.276  0.00  0.00    +0.000 A 
ATOM      5  N   UNL     1       2.750   7.197  18.654  0.00  0.00    +0.000 NA
ATOM      6  C   UNL     1       2.021   7.096  19.789  0.00  0.00    +0.000 A 
ATOM      7  C   UNL     1       1.828   5.905  20.488  0.00  0.00    +0.000 A 
ATOM      8  C   UNL     1       2.438   4.712  20.061  0.00  0.00    +0.000 A 
ATOM      9  C   UNL     1       3.232   4.802  18.900  0.00  0.00    +0.000 A 
ENDROOT
BRANCH   6  10
ATOM     10  C   UNL     1       1.432   8.365  20.248  0.00  0.00    +0.000 A 
ATOM     11  C   UNL     1       1.042   9.466  19.504  0.00  0.00    +0.000 A 
ATOM     12  C   UNL     1       0.516  10.522  20.305  0.00  0.00    +0.000 A 
ATOM     13  C   UNL     1       0.534  10.209  21.646  0.00  0.00    +0.000 A 
ATOM     14  S   UNL     1       1.180   8.656  21.929  0.00  0.00    +0.000 S 
ENDBRANCH   6  10
BRANCH   2  15
ATOM     15  C   UNL     1       5.475   4.309  15.990  0.00  0.00    +0.000 C 
ATOM     16  O   UNL     1       6.476   3.610  16.127  0.00  0.00    +0.000 OA
ATOM     17  N   UNL     1       5.084   4.844  14.779  0.00  0.00    +0.000 N 
ATOM     18  H   UNL     1       4.232   5.393  14.803  0.00  0.00    +0.000 HD
BRANCH  17  19
ATOM     19  C   UNL     1       5.722   4.665  13.491  0.00  0.00    +0.000 C 
ATOM     20  C   UNL     1       7.227   4.909  13.439  0.00  0.00    +0.000 C 
ATOM     21  C   UNL     1       7.601   4.398  12.049  0.00  0.00    +0.000 C 
ATOM     22  C   UNL     1       6.621   3.262  11.746  0.00  0.00    +0.000 C 
ATOM     23  C   UNL     1       5.580   3.281  12.866  0.00  0.00    +0.000 C 
ENDBRANCH  17  19
ENDBRANCH   2  15
BRANCH   8  24
ATOM     24  C   UNL     1       2.243   3.441  20.831  0.00  0.00    +0.000 C 
ATOM     25  F   UNL     1       3.412   2.853  21.209  0.00  0.00    +0.000 F 
ATOM     26  F   UNL     1       1.534   3.622  21.978  0.00  0.00    +0.000 F 
ATOM     27  F   UNL     1       1.568   2.494  20.124  0.00  0.00    +0.000 F 
ENDBRANCH   8  24
BRANCH   1  28
ATOM     28  N   UNL     1       4.227   2.609  18.363  0.00  0.00    +0.000 N 
ATOM     29  H   UNL     1       4.313   1.935  17.601  0.00  0.00    +0.000 HD
ATOM     30  H   UNL     1       4.364   2.198  19.283  0.00  0.00    +0.000 HD
ENDBRANCH   1  28
TORSDOF 5
ENDMDL
MODEL 9
REMARK VINA RESULT:      -7.5      4.130      6.192
REMARK  Name = 
REMARK  5 active torsions:
REMARK  status: ('A' for Active; 'I' for Inactive)
REMARK    1  A    between atoms: N_1  and  C_2
REMARK    2  A    between atoms: C_3  and  C_4
REMARK    3  A    between atoms: N_6  and  C_7
REMARK    4  A    between atoms: C_15  and  C_16
REMARK    5  A    between atoms: C_22  and  C_23
REMARK                            x       y       z     vdW  Elec       q    Type
REMARK                         _______ _______ _______ _____ _____    ______ ____
ROOT
ATOM      1  C   UNL     1       1.391   8.430  20.248  0.00  0.00    +0.000 A 
ATOM      2  C   UNL     1       1.964   8.419  18.987  0.00  0.00    +0.000 A 
ATOM      3  O   UNL     1       1.756   9.644  18.394  0.00  0.00    +0.000 OA
ATOM      4  C   UNL     1       1.070  10.425  19.276  0.00  0.00    +0.000 A 
ATOM      5  N   UNL     1       0.729  11.696  18.997  0.00  0.00    +0.000 NA
ATOM      6  C   UNL     1       0.089  12.324  20.009  0.00  0.00    +0.000 A 
ATOM      7  C   UNL     1      -0.243  11.714  21.218  0.00  0.00    +0.000 A 
ATOM      8  C   UNL     1       0.119  10.380  21.476  0.00  0.00    +0.000 A 
ATOM      9  C   UNL     1       0.819   9.717  20.447  0.00  0.00    +0.000 A 
ENDROOT
BRANCH   6  10
ATOM     10  C   UNL     1      -0.237  13.735  19.741  0.00  0.00    +0.000 A 
ATOM     11  C   UNL     1       0.193  14.549  18.706  0.00  0.00    +0.000 A 
ATOM     12  C   UNL     1      -0.334  15.872  18.782  0.00  0.00    +0.000 A 
ATOM     13  C   UNL     1      -1.140  16.043  19.885  0.00  0.00    +0.000 A 
ATOM     14  S   UNL     1      -1.256  14.618  20.816  0.00  0.00    +0.000 S 
ENDBRANCH   6  10
BRANCH   2  15
ATOM     15  C   UNL     1       2.698   7.406  18.241  0.00  0.00    +0.000 C 
ATOM     16  O   UNL     1       3.682   7.650  17.548  0.00  0.00    +0.000 OA
ATOM     17  N   UNL     1       2.178   6.136  18.398  0.00  0.00    +0.000 N 
ATOM     18  H   UNL     1       1.370   6.072  19.007  0.00  0.00    +0.000 HD
BRANCH  17  19
ATOM     19  C   UNL     1       2.685   4.903  17.835  0.00  0.00    +0.000 C 
ATOM     20  C   UNL     1       3.900   4.289  18.523  0.00  0.00    +0.000 C 
ATOM     21  C   UNL     1       4.004   2.918  17.860  0.00  0.00    +0.000 C 
ATOM     22  C   UNL     1       2.570   2.514  17.511  0.00  0.00    +0.000 C 
ATOM     23  C   UNL     1       1.698   3.740  17.787  0.00  0.00    +0.000 C 
ENDBRANCH  17  19
ENDBRANCH   2  15
BRANCH   8  24
ATOM     24  C   UNL     1      -0.222   9.739  22.786  0.00  0.00    +0.000 C 
ATOM     25  F   UNL     1      -0.962  10.540  23.604  0.00  0.00    +0.000 F 
ATOM     26  F   UNL     1      -0.943   8.593  22.643  0.00  0.00    +0.000 F 
ATOM     27  F   UNL     1       0.879   9.395  23.509  0.00  0.00    +0.000 F 
ENDBRANCH   8  24
BRANCH   1  28
ATOM     28  N   UNL     1       1.382   7.415  21.131  0.00  0.00    +0.000 N 
ATOM     29  H   UNL     1       0.704   6.654  21.060  0.00  0.00    +0.000 HD
ATOM     30  H   UNL     1       2.058   7.284  21.879  0.00  0.00    +0.000 HD
ENDBRANCH   1  28
TORSDOF 5
ENDMDL
