MODEL 1
REMARK VINA RESULT:      -7.7      0.000      0.000
REMARK  Name = 
REMARK  8 active torsions:
REMARK  status: ('A' for Active; 'I' for Inactive)
REMARK    1  A    between atoms: C_1  and  C_2
REMARK    2  A    between atoms: C_2  and  C_3
REMARK    3  A    between atoms: C_2  and  C_4
REMARK    4  A    between atoms: C_2  and  C_13
REMARK    5  A    between atoms: N_6  and  C_7
REMARK    6  A    between atoms: C_16  and  S_17
REMARK    7  A    between atoms: S_17  and  C_20
REMARK    8  A    between atoms: C_21  and  C_22
REMARK                            x       y       z     vdW  Elec       q    Type
REMARK                         _______ _______ _______ _____ _____    ______ ____
ROOT
ATOM      1  C   UNL     1       1.503   3.885  18.173  0.00  0.00    +0.000 C 
ATOM      2  C   UNL     1       2.644   4.566  18.968  0.00  0.00    +0.000 C 
ATOM      3  C   UNL     1       2.855   3.757  20.268  0.00  0.00    +0.000 C 
ENDROOT
BRANCH   2   4
ATOM      4  C   UNL     1       2.238   6.031  19.246  0.00  0.00    +0.000 A 
ATOM      5  C   UNL     1       2.394   7.039  18.270  0.00  0.00    +0.000 A 
ATOM      6  C   UNL     1       2.006   8.363  18.511  0.00  0.00    +0.000 A 
ATOM      7  C   UNL     1       1.449   8.704  19.742  0.00  0.00    +0.000 A 
ATOM      8  C   UNL     1       1.365   7.750  20.758  0.00  0.00    +0.000 A 
ATOM      9  C   UNL     1       1.766   6.429  20.510  0.00  0.00    +0.000 A 
BRANCH   7  10
ATOM     10  S   UNL     1       0.889  10.373  20.026  0.00  0.00    +0.000 S 
ATOM     11  O   UNL     1       1.019  10.638  21.444  0.00  0.00    +0.000 OA
ATOM     12  O   UNL     1       1.550  11.223  19.053  0.00  0.00    +0.000 OA
BRANCH  10  13
ATOM     13  C   UNL     1      -0.791  10.290  19.631  0.00  0.00    +0.000 C 
ATOM     14  C   UNL     1      -1.134  10.356  18.325  0.00  0.00    +0.000 C 
BRANCH  14  15
ATOM     15  C   UNL     1      -2.499  10.287  17.929  0.00  0.00    +0.000 C 
ATOM     16  N   UNL     1      -3.608  10.221  17.593  0.00  0.00    +0.000 NA
ENDBRANCH  14  15
ENDBRANCH  10  13
ENDBRANCH   7  10
ENDBRANCH   2   4
BRANCH   2  17
ATOM     17  C   UNL     1       3.934   4.419  18.104  0.00  0.00    +0.000 C 
ATOM     18  O   UNL     1       3.923   3.785  17.045  0.00  0.00    +0.000 OA
ATOM     19  N   UNL     1       5.109   5.000  18.562  0.00  0.00    +0.000 N 
ATOM     20  H   UNL     1       5.030   5.747  19.244  0.00  0.00    +0.000 HD
BRANCH  19  21
ATOM     21  C   UNL     1       6.293   4.964  17.692  0.00  0.00    +0.000 C 
ATOM     22  C   UNL     1       6.210   6.049  16.610  0.00  0.00    +0.000 C 
ATOM     23  C   UNL     1       6.563   7.433  17.148  0.00  0.00    +0.000 C 
ATOM     24  C   UNL     1       7.946   7.437  17.790  0.00  0.00    +0.000 C 
ATOM     25  C   UNL     1       8.038   6.408  18.912  0.00  0.00    +0.000 C 
ATOM     26  C   UNL     1       7.629   5.015  18.446  0.00  0.00    +0.000 C 
ENDBRANCH  19  21
ENDBRANCH   2  17
TORSDOF 6
ENDMDL
MODEL 2
REMARK VINA RESULT:      -7.3      2.429      8.113
REMARK  Name = 
REMARK  8 active torsions:
REMARK  status: ('A' for Active; 'I' for Inactive)
REMARK    1  A    between atoms: C_1  and  C_2
REMARK    2  A    between atoms: C_2  and  C_3
REMARK    3  A    between atoms: C_2  and  C_4
REMARK    4  A    between atoms: C_2  and  C_13
REMARK    5  A    between atoms: N_6  and  C_7
REMARK    6  A    between atoms: C_16  and  S_17
REMARK    7  A    between atoms: S_17  and  C_20
REMARK    8  A    between atoms: C_21  and  C_22
REMARK                            x       y       z     vdW  Elec       q    Type
REMARK                         _______ _______ _______ _____ _____    ______ ____
ROOT
ATOM      1  C   UNL     1       1.768   9.403  22.002  0.00  0.00    +0.000 C 
ATOM      2  C   UNL     1       0.830   8.763  20.949  0.00  0.00    +0.000 C 
ATOM      3  C   UNL     1      -0.464   8.334  21.676  0.00  0.00    +0.000 C 
ENDROOT
BRANCH   2   4
ATOM      4  C   UNL     1       1.567   7.569  20.303  0.00  0.00    +0.000 A 
ATOM      5  C   UNL     1       2.255   7.700  19.077  0.00  0.00    +0.000 A 
ATOM      6  C   UNL     1       2.943   6.625  18.500  0.00  0.00    +0.000 A 
ATOM      7  C   UNL     1       2.954   5.390  19.145  0.00  0.00    +0.000 A 
ATOM      8  C   UNL     1       2.209   5.204  20.311  0.00  0.00    +0.000 A 
ATOM      9  C   UNL     1       1.515   6.284  20.875  0.00  0.00    +0.000 A 
BRANCH   7  10
ATOM     10  S   UNL     1       3.888   4.039  18.449  0.00  0.00    +0.000 S 
ATOM     11  O   UNL     1       4.464   3.296  19.552  0.00  0.00    +0.000 OA
ATOM     12  O   UNL     1       3.034   3.376  17.481  0.00  0.00    +0.000 OA
BRANCH  10  13
ATOM     13  C   UNL     1       5.160   4.844  17.601  0.00  0.00    +0.000 C 
ATOM     14  C   UNL     1       5.568   4.312  16.427  0.00  0.00    +0.000 C 
BRANCH  14  15
ATOM     15  C   UNL     1       6.606   4.927  15.673  0.00  0.00    +0.000 C 
ATOM     16  N   UNL     1       7.447   5.443  15.063  0.00  0.00    +0.000 NA
ENDBRANCH  14  15
ENDBRANCH  10  13
ENDBRANCH   7  10
ENDBRANCH   2   4
BRANCH   2  17
ATOM     17  C   UNL     1       0.455   9.896  19.944  0.00  0.00    +0.000 C 
ATOM     18  O   UNL     1       1.244  10.811  19.691  0.00  0.00    +0.000 OA
ATOM     19  N   UNL     1      -0.800   9.868  19.352  0.00  0.00    +0.000 N 
ATOM     20  H   UNL     1      -1.293   8.981  19.333  0.00  0.00    +0.000 HD
BRANCH  19  21
ATOM     21  C   UNL     1      -1.108  10.865  18.318  0.00  0.00    +0.000 C 
ATOM     22  C   UNL     1      -1.822  10.214  17.125  0.00  0.00    +0.000 C 
ATOM     23  C   UNL     1      -3.299   9.950  17.407  0.00  0.00    +0.000 C 
ATOM     24  C   UNL     1      -4.018  11.231  17.814  0.00  0.00    +0.000 C 
ATOM     25  C   UNL     1      -3.366  11.868  19.036  0.00  0.00    +0.000 C 
ATOM     26  C   UNL     1      -1.871  12.093  18.835  0.00  0.00    +0.000 C 
ENDBRANCH  19  21
ENDBRANCH   2  17
TORSDOF 6
ENDMDL
MODEL 3
REMARK VINA RESULT:      -7.3      2.427      8.196
REMARK  Name = 
REMARK  8 active torsions:
REMARK  status: ('A' for Active; 'I' for Inactive)
REMARK    1  A    between atoms: C_1  and  C_2
REMARK    2  A    between atoms: C_2  and  C_3
REMARK    3  A    between atoms: C_2  and  C_4
REMARK    4  A    between atoms: C_2  and  C_13
REMARK    5  A    between atoms: N_6  and  C_7
REMARK    6  A    between atoms: C_16  and  S_17
REMARK    7  A    between atoms: S_17  and  C_20
REMARK    8  A    between atoms: C_21  and  C_22
REMARK                            x       y       z     vdW  Elec       q    Type
REMARK                         _______ _______ _______ _____ _____    ______ ____
ROOT
ATOM      1  C   UNL     1       1.767   9.397  21.957  0.00  0.00    +0.000 C 
ATOM      2  C   UNL     1       0.823   8.779  20.896  0.00  0.00    +0.000 C 
ATOM      3  C   UNL     1      -0.460   8.318  21.624  0.00  0.00    +0.000 C 
ENDROOT
BRANCH   2   4
ATOM      4  C   UNL     1       1.563   7.609  20.209  0.00  0.00    +0.000 A 
ATOM      5  C   UNL     1       1.670   6.341  20.820  0.00  0.00    +0.000 A 
ATOM      6  C   UNL     1       2.320   5.272  20.191  0.00  0.00    +0.000 A 
ATOM      7  C   UNL     1       2.879   5.455  18.927  0.00  0.00    +0.000 A 
ATOM      8  C   UNL     1       2.868   6.720  18.336  0.00  0.00    +0.000 A 
ATOM      9  C   UNL     1       2.224   7.786  18.979  0.00  0.00    +0.000 A 
BRANCH   7  10
ATOM     10  S   UNL     1       3.645   4.078  18.093  0.00  0.00    +0.000 S 
ATOM     11  O   UNL     1       4.488   3.401  19.057  0.00  0.00    +0.000 OA
ATOM     12  O   UNL     1       2.597   3.356  17.396  0.00  0.00    +0.000 OA
BRANCH  10  13
ATOM     13  C   UNL     1       4.654   4.848  16.921  0.00  0.00    +0.000 C 
ATOM     14  C   UNL     1       5.892   4.341  16.726  0.00  0.00    +0.000 C 
BRANCH  14  15
ATOM     15  C   UNL     1       6.773   4.923  15.772  0.00  0.00    +0.000 C 
ATOM     16  N   UNL     1       7.478   5.399  14.984  0.00  0.00    +0.000 NA
ENDBRANCH  14  15
ENDBRANCH  10  13
ENDBRANCH   7  10
ENDBRANCH   2   4
BRANCH   2  17
ATOM     17  C   UNL     1       0.429   9.936  19.927  0.00  0.00    +0.000 C 
ATOM     18  O   UNL     1       1.198  10.877  19.712  0.00  0.00    +0.000 OA
ATOM     19  N   UNL     1      -0.820   9.898  19.323  0.00  0.00    +0.000 N 
ATOM     20  H   UNL     1      -1.291   9.001  19.270  0.00  0.00    +0.000 HD
BRANCH  19  21
ATOM     21  C   UNL     1      -1.144  10.923  18.321  0.00  0.00    +0.000 C 
ATOM     22  C   UNL     1      -1.856  10.301  17.112  0.00  0.00    +0.000 C 
ATOM     23  C   UNL     1      -3.329  10.011  17.393  0.00  0.00    +0.000 C 
ATOM     24  C   UNL     1      -4.060  11.272  17.841  0.00  0.00    +0.000 C 
ATOM     25  C   UNL     1      -3.409  11.879  19.080  0.00  0.00    +0.000 C 
ATOM     26  C   UNL     1      -1.918  12.126  18.878  0.00  0.00    +0.000 C 
ENDBRANCH  19  21
ENDBRANCH   2  17
TORSDOF 6
ENDMDL
MODEL 4
REMARK VINA RESULT:      -7.3      0.292      1.007
REMARK  Name = 
REMARK  8 active torsions:
REMARK  status: ('A' for Active; 'I' for Inactive)
REMARK    1  A    between atoms: C_1  and  C_2
REMARK    2  A    between atoms: C_2  and  C_3
REMARK    3  A    between atoms: C_2  and  C_4
REMARK    4  A    between atoms: C_2  and  C_13
REMARK    5  A    between atoms: N_6  and  C_7
REMARK    6  A    between atoms: C_16  and  S_17
REMARK    7  A    between atoms: S_17  and  C_20
REMARK    8  A    between atoms: C_21  and  C_22
REMARK                            x       y       z     vdW  Elec       q    Type
REMARK                         _______ _______ _______ _____ _____    ______ ____
ROOT
ATOM      1  C   UNL     1       1.534   4.080  18.072  0.00  0.00    +0.000 C 
ATOM      2  C   UNL     1       2.640   4.786  18.895  0.00  0.00    +0.000 C 
ATOM      3  C   UNL     1       2.812   4.003  20.216  0.00  0.00    +0.000 C 
ENDROOT
BRANCH   2   4
ATOM      4  C   UNL     1       2.210   6.252  19.130  0.00  0.00    +0.000 A 
ATOM      5  C   UNL     1       1.699   6.682  20.374  0.00  0.00    +0.000 A 
ATOM      6  C   UNL     1       1.329   8.014  20.597  0.00  0.00    +0.000 A 
ATOM      7  C   UNL     1       1.467   8.947  19.572  0.00  0.00    +0.000 A 
ATOM      8  C   UNL     1       1.885   8.536  18.305  0.00  0.00    +0.000 A 
ATOM      9  C   UNL     1       2.242   7.197  18.089  0.00  0.00    +0.000 A 
BRANCH   7  10
ATOM     10  S   UNL     1       1.065  10.658  19.875  0.00  0.00    +0.000 S 
ATOM     11  O   UNL     1       1.231  10.898  21.295  0.00  0.00    +0.000 OA
ATOM     12  O   UNL     1       1.792  11.453  18.903  0.00  0.00    +0.000 OA
BRANCH  10  13
ATOM     13  C   UNL     1      -0.619  10.733  19.496  0.00  0.00    +0.000 C 
ATOM     14  C   UNL     1      -1.017  10.246  18.299  0.00  0.00    +0.000 C 
BRANCH  14  15
ATOM     15  C   UNL     1      -2.390  10.271  17.925  0.00  0.00    +0.000 C 
ATOM     16  N   UNL     1      -3.512  10.302  17.633  0.00  0.00    +0.000 NA
ENDBRANCH  14  15
ENDBRANCH  10  13
ENDBRANCH   7  10
ENDBRANCH   2   4
BRANCH   2  17
ATOM     17  C   UNL     1       3.961   4.637  18.080  0.00  0.00    +0.000 C 
ATOM     18  O   UNL     1       4.019   3.906  17.086  0.00  0.00    +0.000 OA
ATOM     19  N   UNL     1       5.086   5.329  18.508  0.00  0.00    +0.000 N 
ATOM     20  H   UNL     1       4.944   6.130  19.114  0.00  0.00    +0.000 HD
BRANCH  19  21
ATOM     21  C   UNL     1       6.296   5.282  17.675  0.00  0.00    +0.000 C 
ATOM     22  C   UNL     1       6.294   6.419  16.644  0.00  0.00    +0.000 C 
ATOM     23  C   UNL     1       6.687   7.760  17.260  0.00  0.00    +0.000 C 
ATOM     24  C   UNL     1       8.046   7.673  17.944  0.00  0.00    +0.000 C 
ATOM     25  C   UNL     1       8.058   6.590  19.017  0.00  0.00    +0.000 C 
ATOM     26  C   UNL     1       7.607   5.240  18.471  0.00  0.00    +0.000 C 
ENDBRANCH  19  21
ENDBRANCH   2  17
TORSDOF 6
ENDMDL
MODEL 5
REMARK VINA RESULT:      -7.3      2.099      2.307
REMARK  Name = 
REMARK  8 active torsions:
REMARK  status: ('A' for Active; 'I' for Inactive)
REMARK    1  A    between atoms: C_1  and  C_2
REMARK    2  A    between atoms: C_2  and  C_3
REMARK    3  A    between atoms: C_2  and  C_4
REMARK    4  A    between atoms: C_2  and  C_13
REMARK    5  A    between atoms: N_6  and  C_7
REMARK    6  A    between atoms: C_16  and  S_17
REMARK    7  A    between atoms: S_17  and  C_20
REMARK    8  A    between atoms: C_21  and  C_22
REMARK                            x       y       z     vdW  Elec       q    Type
REMARK                         _______ _______ _______ _____ _____    ______ ____
ROOT
ATOM      1  C   UNL     1       1.497   3.994  18.154  0.00  0.00    +0.000 C 
ATOM      2  C   UNL     1       2.646   4.692  18.923  0.00  0.00    +0.000 C 
ATOM      3  C   UNL     1       2.936   3.856  20.189  0.00  0.00    +0.000 C 
ENDROOT
BRANCH   2   4
ATOM      4  C   UNL     1       2.200   6.134  19.258  0.00  0.00    +0.000 A 
ATOM      5  C   UNL     1       2.303   7.178  18.315  0.00  0.00    +0.000 A 
ATOM      6  C   UNL     1       1.880   8.480  18.608  0.00  0.00    +0.000 A 
ATOM      7  C   UNL     1       1.340   8.762  19.861  0.00  0.00    +0.000 A 
ATOM      8  C   UNL     1       1.308   7.773  20.846  0.00  0.00    +0.000 A 
ATOM      9  C   UNL     1       1.744   6.474  20.545  0.00  0.00    +0.000 A 
BRANCH   7  10
ATOM     10  S   UNL     1       0.734  10.402  20.214  0.00  0.00    +0.000 S 
ATOM     11  O   UNL     1      -0.663  10.440  19.831  0.00  0.00    +0.000 OA
ATOM     12  O   UNL     1       1.137  10.731  21.569  0.00  0.00    +0.000 OA
BRANCH  10  13
ATOM     13  C   UNL     1       1.634  11.391  19.119  0.00  0.00    +0.000 C 
ATOM     14  C   UNL     1       1.768  12.702  19.420  0.00  0.00    +0.000 C 
BRANCH  14  15
ATOM     15  C   UNL     1       2.501  13.571  18.564  0.00  0.00    +0.000 C 
ATOM     16  N   UNL     1       3.090  14.293  17.873  0.00  0.00    +0.000 NA
ENDBRANCH  14  15
ENDBRANCH  10  13
ENDBRANCH   7  10
ENDBRANCH   2   4
BRANCH   2  17
ATOM     17  C   UNL     1       3.904   4.616  18.004  0.00  0.00    +0.000 C 
ATOM     18  O   UNL     1       3.828   4.171  16.855  0.00  0.00    +0.000 OA
ATOM     19  N   UNL     1       5.124   5.039  18.514  0.00  0.00    +0.000 N 
ATOM     20  H   UNL     1       5.109   5.664  19.314  0.00  0.00    +0.000 HD
BRANCH  19  21
ATOM     21  C   UNL     1       6.283   5.079  17.613  0.00  0.00    +0.000 C 
ATOM     22  C   UNL     1       6.164   6.241  16.618  0.00  0.00    +0.000 C 
ATOM     23  C   UNL     1       6.522   7.584  17.249  0.00  0.00    +0.000 C 
ATOM     24  C   UNL     1       7.922   7.551  17.852  0.00  0.00    +0.000 C 
ATOM     25  C   UNL     1       8.052   6.442  18.891  0.00  0.00    +0.000 C 
ATOM     26  C   UNL     1       7.639   5.084  18.332  0.00  0.00    +0.000 C 
ENDBRANCH  19  21
ENDBRANCH   2  17
TORSDOF 6
ENDMDL
MODEL 6
REMARK VINA RESULT:      -7.2      1.532      1.659
REMARK  Name = 
REMARK  8 active torsions:
REMARK  status: ('A' for Active; 'I' for Inactive)
REMARK    1  A    between atoms: C_1  and  C_2
REMARK    2  A    between atoms: C_2  and  C_3
REMARK    3  A    between atoms: C_2  and  C_4
REMARK    4  A    between atoms: C_2  and  C_13
REMARK    5  A    between atoms: N_6  and  C_7
REMARK    6  A    between atoms: C_16  and  S_17
REMARK    7  A    between atoms: S_17  and  C_20
REMARK    8  A    between atoms: C_21  and  C_22
REMARK                            x       y       z     vdW  Elec       q    Type
REMARK                         _______ _______ _______ _____ _____    ______ ____
ROOT
ATOM      1  C   UNL     1       1.819   3.433  17.475  0.00  0.00    +0.000 C 
ATOM      2  C   UNL     1       2.936   3.891  18.445  0.00  0.00    +0.000 C 
ATOM      3  C   UNL     1       3.226   2.720  19.411  0.00  0.00    +0.000 C 
ENDROOT
BRANCH   2   4
ATOM      4  C   UNL     1       2.449   5.158  19.184  0.00  0.00    +0.000 A 
ATOM      5  C   UNL     1       2.664   6.450  18.659  0.00  0.00    +0.000 A 
ATOM      6  C   UNL     1       2.204   7.598  19.315  0.00  0.00    +0.000 A 
ATOM      7  C   UNL     1       1.514   7.473  20.518  0.00  0.00    +0.000 A 
ATOM      8  C   UNL     1       1.363   6.217  21.109  0.00  0.00    +0.000 A 
ATOM      9  C   UNL     1       1.837   5.074  20.448  0.00  0.00    +0.000 A 
BRANCH   7  10
ATOM     10  S   UNL     1       0.864   8.927  21.321  0.00  0.00    +0.000 S 
ATOM     11  O   UNL     1      -0.462   8.601  21.803  0.00  0.00    +0.000 OA
ATOM     12  O   UNL     1       1.883   9.409  22.235  0.00  0.00    +0.000 OA
BRANCH  10  13
ATOM     13  C   UNL     1       0.717  10.054  20.019  0.00  0.00    +0.000 C 
ATOM     14  C   UNL     1      -0.291  10.953  20.076  0.00  0.00    +0.000 C 
BRANCH  14  15
ATOM     15  C   UNL     1      -0.466  11.913  19.040  0.00  0.00    +0.000 C 
ATOM     16  N   UNL     1      -0.594  12.692  18.191  0.00  0.00    +0.000 NA
ENDBRANCH  14  15
ENDBRANCH  10  13
ENDBRANCH   7  10
ENDBRANCH   2   4
BRANCH   2  17
ATOM     17  C   UNL     1       4.212   4.116  17.576  0.00  0.00    +0.000 C 
ATOM     18  O   UNL     1       4.167   4.037  16.345  0.00  0.00    +0.000 OA
ATOM     19  N   UNL     1       5.412   4.388  18.219  0.00  0.00    +0.000 N 
ATOM     20  H   UNL     1       5.369   4.742  19.169  0.00  0.00    +0.000 HD
BRANCH  19  21
ATOM     21  C   UNL     1       6.586   4.716  17.399  0.00  0.00    +0.000 C 
ATOM     22  C   UNL     1       6.304   5.929  16.502  0.00  0.00    +0.000 C 
ATOM     23  C   UNL     1       6.384   7.248  17.267  0.00  0.00    +0.000 C 
ATOM     24  C   UNL     1       7.737   7.404  17.951  0.00  0.00    +0.000 C 
ATOM     25  C   UNL     1       8.017   6.241  18.897  0.00  0.00    +0.000 C 
ATOM     26  C   UNL     1       7.884   4.892  18.200  0.00  0.00    +0.000 C 
ENDBRANCH  19  21
ENDBRANCH   2  17
TORSDOF 6
ENDMDL
MODEL 7
REMARK VINA RESULT:      -7.2      1.977      2.158
REMARK  Name = 
REMARK  8 active torsions:
REMARK  status: ('A' for Active; 'I' for Inactive)
REMARK    1  A    between atoms: C_1  and  C_2
REMARK    2  A    between atoms: C_2  and  C_3
REMARK    3  A    between atoms: C_2  and  C_4
REMARK    4  A    between atoms: C_2  and  C_13
REMARK    5  A    between atoms: N_6  and  C_7
REMARK    6  A    between atoms: C_16  and  S_17
REMARK    7  A    between atoms: S_17  and  C_20
REMARK    8  A    between atoms: C_21  and  C_22
REMARK                            x       y       z     vdW  Elec       q    Type
REMARK                         _______ _______ _______ _____ _____    ______ ____
ROOT
ATOM      1  C   UNL     1       1.468   3.728  19.150  0.00  0.00    +0.000 C 
ATOM      2  C   UNL     1       2.544   4.592  19.852  0.00  0.00    +0.000 C 
ATOM      3  C   UNL     1       2.520   4.238  21.356  0.00  0.00    +0.000 C 
ENDROOT
BRANCH   2   4
ATOM      4  C   UNL     1       2.219   6.081  19.593  0.00  0.00    +0.000 A 
ATOM      5  C   UNL     1       2.405   6.668  18.323  0.00  0.00    +0.000 A 
ATOM      6  C   UNL     1       2.090   8.010  18.079  0.00  0.00    +0.000 A 
ATOM      7  C   UNL     1       1.578   8.795  19.110  0.00  0.00    +0.000 A 
ATOM      8  C   UNL     1       1.467   8.269  20.398  0.00  0.00    +0.000 A 
ATOM      9  C   UNL     1       1.795   6.926  20.634  0.00  0.00    +0.000 A 
BRANCH   7  10
ATOM     10  S   UNL     1       1.109  10.485  18.784  0.00  0.00    +0.000 S 
ATOM     11  O   UNL     1       2.240  11.134  18.152  0.00  0.00    +0.000 OA
ATOM     12  O   UNL     1      -0.185  10.457  18.129  0.00  0.00    +0.000 OA
BRANCH  10  13
ATOM     13  C   UNL     1       0.908  11.143  20.369  0.00  0.00    +0.000 C 
ATOM     14  C   UNL     1      -0.351  11.399  20.789  0.00  0.00    +0.000 C 
BRANCH  14  15
ATOM     15  C   UNL     1      -0.589  11.935  22.085  0.00  0.00    +0.000 C 
ATOM     16  N   UNL     1      -0.793  12.384  23.135  0.00  0.00    +0.000 NA
ENDBRANCH  14  15
ENDBRANCH  10  13
ENDBRANCH   7  10
ENDBRANCH   2   4
BRANCH   2  17
ATOM     17  C   UNL     1       3.921   4.135  19.279  0.00  0.00    +0.000 C 
ATOM     18  O   UNL     1       4.104   2.971  18.912  0.00  0.00    +0.000 OA
ATOM     19  N   UNL     1       4.951   5.064  19.210  0.00  0.00    +0.000 N 
ATOM     20  H   UNL     1       4.701   6.047  19.223  0.00  0.00    +0.000 HD
BRANCH  19  21
ATOM     21  C   UNL     1       6.208   4.667  18.562  0.00  0.00    +0.000 C 
ATOM     22  C   UNL     1       6.072   4.704  17.034  0.00  0.00    +0.000 C 
ATOM     23  C   UNL     1       6.154   6.124  16.479  0.00  0.00    +0.000 C 
ATOM     24  C   UNL     1       7.449   6.806  16.907  0.00  0.00    +0.000 C 
ATOM     25  C   UNL     1       7.582   6.838  18.426  0.00  0.00    +0.000 C 
ATOM     26  C   UNL     1       7.438   5.450  19.041  0.00  0.00    +0.000 C 
ENDBRANCH  19  21
ENDBRANCH   2  17
TORSDOF 6
ENDMDL
MODEL 8
REMARK VINA RESULT:      -7.0      1.835      1.991
REMARK  Name = 
REMARK  8 active torsions:
REMARK  status: ('A' for Active; 'I' for Inactive)
REMARK    1  A    between atoms: C_1  and  C_2
REMARK    2  A    between atoms: C_2  and  C_3
REMARK    3  A    between atoms: C_2  and  C_4
REMARK    4  A    between atoms: C_2  and  C_13
REMARK    5  A    between atoms: N_6  and  C_7
REMARK    6  A    between atoms: C_16  and  S_17
REMARK    7  A    between atoms: S_17  and  C_20
REMARK    8  A    between atoms: C_21  and  C_22
REMARK                            x       y       z     vdW  Elec       q    Type
REMARK                         _______ _______ _______ _____ _____    ______ ____
ROOT
ATOM      1  C   UNL     1       1.545   4.307  18.017  0.00  0.00    +0.000 C 
ATOM      2  C   UNL     1       2.641   5.079  18.791  0.00  0.00    +0.000 C 
ATOM      3  C   UNL     1       2.766   4.436  20.190  0.00  0.00    +0.000 C 
ENDROOT
BRANCH   2   4
ATOM      4  C   UNL     1       2.231   6.568  18.861  0.00  0.00    +0.000 A 
ATOM      5  C   UNL     1       2.278   7.402  17.723  0.00  0.00    +0.000 A 
ATOM      6  C   UNL     1       1.885   8.745  17.778  0.00  0.00    +0.000 A 
ATOM      7  C   UNL     1       1.434   9.281  18.982  0.00  0.00    +0.000 A 
ATOM      8  C   UNL     1       1.461   8.508  20.144  0.00  0.00    +0.000 A 
ATOM      9  C   UNL     1       1.866   7.166  20.080  0.00  0.00    +0.000 A 
BRANCH   7  10
ATOM     10  S   UNL     1       0.867  10.971  19.039  0.00  0.00    +0.000 S 
ATOM     11  O   UNL     1       1.990  11.817  18.691  0.00  0.00    +0.000 OA
ATOM     12  O   UNL     1      -0.369  11.039  18.282  0.00  0.00    +0.000 OA
BRANCH  10  13
ATOM     13  C   UNL     1       0.500  11.200  20.712  0.00  0.00    +0.000 C 
ATOM     14  C   UNL     1      -0.802  11.294  21.063  0.00  0.00    +0.000 C 
BRANCH  14  15
ATOM     15  C   UNL     1      -1.175  11.477  22.424  0.00  0.00    +0.000 C 
ATOM     16  N   UNL     1      -1.490  11.638  23.529  0.00  0.00    +0.000 NA
ENDBRANCH  14  15
ENDBRANCH  10  13
ENDBRANCH   7  10
ENDBRANCH   2   4
BRANCH   2  17
ATOM     17  C   UNL     1       3.980   4.826  18.032  0.00  0.00    +0.000 C 
ATOM     18  O   UNL     1       4.002   4.200  16.968  0.00  0.00    +0.000 OA
ATOM     19  N   UNL     1       5.159   5.302  18.590  0.00  0.00    +0.000 N 
ATOM     20  H   UNL     1       5.089   6.050  19.273  0.00  0.00    +0.000 HD
BRANCH  19  21
ATOM     21  C   UNL     1       6.402   5.168  17.819  0.00  0.00    +0.000 C 
ATOM     22  C   UNL     1       6.489   6.245  16.729  0.00  0.00    +0.000 C 
ATOM     23  C   UNL     1       6.902   7.605  17.289  0.00  0.00    +0.000 C 
ATOM     24  C   UNL     1       8.225   7.510  18.040  0.00  0.00    +0.000 C 
ATOM     25  C   UNL     1       8.148   6.489  19.170  0.00  0.00    +0.000 C 
ATOM     26  C   UNL     1       7.674   5.126  18.678  0.00  0.00    +0.000 C 
ENDBRANCH  19  21
ENDBRANCH   2  17
TORSDOF 6
ENDMDL
MODEL 9
REMARK VINA RESULT:      -7.0      1.559      4.066
REMARK  Name = 
REMARK  8 active torsions:
REMARK  status: ('A' for Active; 'I' for Inactive)
REMARK    1  A    between atoms: C_1  and  C_2
REMARK    2  A    between atoms: C_2  and  C_3
REMARK    3  A    between atoms: C_2  and  C_4
REMARK    4  A    between atoms: C_2  and  C_13
REMARK    5  A    between atoms: N_6  and  C_7
REMARK    6  A    between atoms: C_16  and  S_17
REMARK    7  A    between atoms: S_17  and  C_20
REMARK    8  A    between atoms: C_21  and  C_22
REMARK                            x       y       z     vdW  Elec       q    Type
REMARK                         _______ _______ _______ _____ _____    ______ ____
ROOT
ATOM      1  C   UNL     1       6.193   6.310  18.204  0.00  0.00    +0.000 C 
ATOM      2  C   UNL     1       4.818   5.766  17.742  0.00  0.00    +0.000 C 
ATOM      3  C   UNL     1       4.890   5.552  16.214  0.00  0.00    +0.000 C 
ENDROOT
BRANCH   2   4
ATOM      4  C   UNL     1       3.731   6.788  18.144  0.00  0.00    +0.000 A 
ATOM      5  C   UNL     1       3.016   6.669  19.356  0.00  0.00    +0.000 A 
ATOM      6  C   UNL     1       2.046   7.606  19.733  0.00  0.00    +0.000 A 
ATOM      7  C   UNL     1       1.772   8.687  18.898  0.00  0.00    +0.000 A 
ATOM      8  C   UNL     1       2.396   8.783  17.653  0.00  0.00    +0.000 A 
ATOM      9  C   UNL     1       3.359   7.834  17.280  0.00  0.00    +0.000 A 
BRANCH   7  10
ATOM     10  S   UNL     1       0.588   9.920  19.408  0.00  0.00    +0.000 S 
ATOM     11  O   UNL     1      -0.098   9.405  20.576  0.00  0.00    +0.000 OA
ATOM     12  O   UNL     1       1.284  11.192  19.463  0.00  0.00    +0.000 OA
BRANCH  10  13
ATOM     13  C   UNL     1      -0.524   9.959  18.086  0.00  0.00    +0.000 C 
ATOM     14  C   UNL     1      -1.444  10.949  18.067  0.00  0.00    +0.000 C 
BRANCH  14  15
ATOM     15  C   UNL     1      -2.386  11.044  17.005  0.00  0.00    +0.000 C 
ATOM     16  N   UNL     1      -3.149  11.138  16.137  0.00  0.00    +0.000 NA
ENDBRANCH  14  15
ENDBRANCH  10  13
ENDBRANCH   7  10
ENDBRANCH   2   4
BRANCH   2  17
ATOM     17  C   UNL     1       4.650   4.366  18.409  0.00  0.00    +0.000 C 
ATOM     18  O   UNL     1       5.595   3.814  18.981  0.00  0.00    +0.000 OA
ATOM     19  N   UNL     1       3.414   3.738  18.329  0.00  0.00    +0.000 N 
ATOM     20  H   UNL     1       2.603   4.316  18.137  0.00  0.00    +0.000 HD
BRANCH  19  21
ATOM     21  C   UNL     1       3.222   2.476  19.057  0.00  0.00    +0.000 C 
ATOM     22  C   UNL     1       3.624   2.629  20.531  0.00  0.00    +0.000 C 
ATOM     23  C   UNL     1       2.555   3.346  21.352  0.00  0.00    +0.000 C 
ATOM     24  C   UNL     1       1.211   2.633  21.245  0.00  0.00    +0.000 C 
ATOM     25  C   UNL     1       0.758   2.522  19.793  0.00  0.00    +0.000 C 
ATOM     26  C   UNL     1       1.818   1.873  18.911  0.00  0.00    +0.000 C 
ENDBRANCH  19  21
ENDBRANCH   2  17
TORSDOF 6
ENDMDL
