MODEL 1
REMARK VINA RESULT:      -7.9      0.000      0.000
REMARK  Name = 
REMARK  7 active torsions:
REMARK  status: ('A' for Active; 'I' for Inactive)
REMARK    1  A    between atoms: C_1  and  C_2
REMARK    2  A    between atoms: C_2  and  N_3
REMARK    3  A    between atoms: N_3  and  C_4
REMARK    4  A    between atoms: C_4  and  C_5
REMARK    5  A    between atoms: C_6  and  C_8
REMARK    6  A    between atoms: C_10  and  N_11
REMARK    7  A    between atoms: C_14  and  C_16
REMARK                            x       y       z     vdW  Elec       q    Type
REMARK                         _______ _______ _______ _____ _____    ______ ____
ROOT
ATOM      1  C   UNL     1       3.306   4.403  19.222  0.00  0.00    +0.000 C 
ATOM      2  C   UNL     1       2.550   3.130  19.673  0.00  0.00    +0.000 C 
ATOM      3  C   UNL     1       1.621   3.568  20.797  0.00  0.00    +0.000 C 
ATOM      4  C   UNL     1       1.403   5.061  20.534  0.00  0.00    +0.000 C 
ATOM      5  N   UNL     1       2.325   5.476  19.486  0.00  0.00    +0.000 N 
ATOM      6  C   UNL     1       2.561   6.774  19.048  0.00  0.00    +0.000 C 
ATOM      7  O   UNL     1       3.351   7.015  18.154  0.00  0.00    +0.000 OA
ENDROOT
BRANCH   6   8
ATOM      8  C   UNL     1       1.880   7.922  19.737  0.00  0.00    +0.000 A 
ATOM      9  C   UNL     1       1.620   7.962  21.050  0.00  0.00    +0.000 A 
ATOM     10  C   UNL     1       1.033   9.126  21.633  0.00  0.00    +0.000 A 
ATOM     11  C   UNL     1       0.964  10.278  20.959  0.00  0.00    +0.000 A 
ATOM     12  N   UNL     1       1.143  10.267  19.604  0.00  0.00    +0.000 N 
ATOM     13  C   UNL     1       1.336   9.077  18.919  0.00  0.00    +0.000 A 
ATOM     14  O   UNL     1       1.039   9.003  17.730  0.00  0.00    +0.000 OA
ATOM     15  C   UNL     1       0.149  11.286  21.686  0.00  0.00    +0.000 C 
ATOM     16  C   UNL     1      -0.826  10.306  22.342  0.00  0.00    +0.000 C 
ATOM     17  C   UNL     1       0.065   9.121  22.765  0.00  0.00    +0.000 C 
ATOM     18  H   UNL     1       0.731  11.005  19.048  0.00  0.00    +0.000 HD
ENDBRANCH   6   8
BRANCH   1  20
ATOM     19  N   UNL     1       5.151   4.420  17.460  0.00  0.00    +0.000 N 
ATOM     20  C   UNL     1       3.797   4.199  17.762  0.00  0.00    +0.000 C 
ATOM     21  O   UNL     1       3.001   3.840  16.887  0.00  0.00    +0.000 OA
BRANCH  19  23
ATOM     22  C   UNL     1       5.565   5.221  15.134  0.00  0.00    +0.000 C 
ATOM     23  C   UNL     1       5.597   4.057  16.115  0.00  0.00    +0.000 C 
ENDBRANCH  19  23
BRANCH  19  24
ATOM     24  C   UNL     1       6.165   4.882  18.423  0.00  0.00    +0.000 C 
ATOM     25  C   UNL     1       7.616   4.739  17.976  0.00  0.00    +0.000 C 
ENDBRANCH  19  24
ENDBRANCH   1  20
BRANCH   3  26
ATOM     26  N   UNL     1       2.134   3.307  22.141  0.00  0.00    +0.000 NA
ATOM     27  H   UNL     1       1.654   2.519  22.571  0.00  0.00    +0.000 HD
ATOM     28  H   UNL     1       1.962   4.117  22.736  0.00  0.00    +0.000 HD
ENDBRANCH   3  26
TORSDOF 5
ENDMDL
MODEL 2
REMARK VINA RESULT:      -6.7      7.322      9.455
REMARK  Name = 
REMARK  7 active torsions:
REMARK  status: ('A' for Active; 'I' for Inactive)
REMARK    1  A    between atoms: C_1  and  C_2
REMARK    2  A    between atoms: C_2  and  N_3
REMARK    3  A    between atoms: N_3  and  C_4
REMARK    4  A    between atoms: C_4  and  C_5
REMARK    5  A    between atoms: C_6  and  C_8
REMARK    6  A    between atoms: C_10  and  N_11
REMARK    7  A    between atoms: C_14  and  C_16
REMARK                            x       y       z     vdW  Elec       q    Type
REMARK                         _______ _______ _______ _____ _____    ______ ____
ROOT
ATOM      1  C   UNL     1      -5.224  11.092  18.758  0.00  0.00    +0.000 C 
ATOM      2  C   UNL     1      -6.751  10.855  18.671  0.00  0.00    +0.000 C 
ATOM      3  C   UNL     1      -7.291  11.077  20.077  0.00  0.00    +0.000 C 
ATOM      4  C   UNL     1      -6.257  12.000  20.728  0.00  0.00    +0.000 C 
ATOM      5  N   UNL     1      -5.110  12.096  19.837  0.00  0.00    +0.000 N 
ATOM      6  C   UNL     1      -3.892  12.709  20.106  0.00  0.00    +0.000 C 
ATOM      7  O   UNL     1      -2.994  12.741  19.285  0.00  0.00    +0.000 OA
ENDROOT
BRANCH   6   8
ATOM      8  C   UNL     1      -3.643  13.292  21.469  0.00  0.00    +0.000 A 
ATOM      9  C   UNL     1      -4.030  14.518  21.842  0.00  0.00    +0.000 A 
ATOM     10  C   UNL     1      -3.815  14.966  23.181  0.00  0.00    +0.000 A 
ATOM     11  C   UNL     1      -3.467  14.111  24.148  0.00  0.00    +0.000 A 
ATOM     12  N   UNL     1      -2.990  12.878  23.805  0.00  0.00    +0.000 N 
ATOM     13  C   UNL     1      -2.808  12.526  22.476  0.00  0.00    +0.000 A 
ATOM     14  O   UNL     1      -1.987  11.663  22.180  0.00  0.00    +0.000 OA
ATOM     15  C   UNL     1      -3.114  14.824  25.403  0.00  0.00    +0.000 C 
ATOM     16  C   UNL     1      -2.536  16.082  24.752  0.00  0.00    +0.000 C 
ATOM     17  C   UNL     1      -3.490  16.364  23.575  0.00  0.00    +0.000 C 
ATOM     18  H   UNL     1      -2.384  12.388  24.451  0.00  0.00    +0.000 HD
ENDBRANCH   6   8
BRANCH   1  20
ATOM     19  N   UNL     1      -3.576  10.798  16.833  0.00  0.00    +0.000 N 
ATOM     20  C   UNL     1      -4.698  11.470  17.345  0.00  0.00    +0.000 C 
ATOM     21  O   UNL     1      -5.271  12.344  16.687  0.00  0.00    +0.000 OA
BRANCH  19  23
ATOM     22  C   UNL     1      -3.660   9.972  14.480  0.00  0.00    +0.000 C 
ATOM     23  C   UNL     1      -3.220  11.070  15.440  0.00  0.00    +0.000 C 
ENDBRANCH  19  23
BRANCH  19  24
ATOM     24  C   UNL     1      -2.807   9.769  17.554  0.00  0.00    +0.000 C 
ATOM     25  C   UNL     1      -1.308  10.025  17.674  0.00  0.00    +0.000 C 
ENDBRANCH  19  24
ENDBRANCH   1  20
BRANCH   3  26
ATOM     26  N   UNL     1      -7.505   9.850  20.844  0.00  0.00    +0.000 NA
ATOM     27  H   UNL     1      -6.867   9.796  21.635  0.00  0.00    +0.000 HD
ATOM     28  H   UNL     1      -7.314   9.041  20.254  0.00  0.00    +0.000 HD
ENDBRANCH   3  26
TORSDOF 5
ENDMDL
MODEL 3
REMARK VINA RESULT:      -6.6      1.906      2.375
REMARK  Name = 
REMARK  7 active torsions:
REMARK  status: ('A' for Active; 'I' for Inactive)
REMARK    1  A    between atoms: C_1  and  C_2
REMARK    2  A    between atoms: C_2  and  N_3
REMARK    3  A    between atoms: N_3  and  C_4
REMARK    4  A    between atoms: C_4  and  C_5
REMARK    5  A    between atoms: C_6  and  C_8
REMARK    6  A    between atoms: C_10  and  N_11
REMARK    7  A    between atoms: C_14  and  C_16
REMARK                            x       y       z     vdW  Elec       q    Type
REMARK                         _______ _______ _______ _____ _____    ______ ____
ROOT
ATOM      1  C   UNL     1       3.756   4.271  17.745  0.00  0.00    +0.000 C 
ATOM      2  C   UNL     1       2.796   3.083  17.495  0.00  0.00    +0.000 C 
ATOM      3  C   UNL     1       1.486   3.450  18.180  0.00  0.00    +0.000 C 
ATOM      4  C   UNL     1       1.511   4.980  18.229  0.00  0.00    +0.000 C 
ATOM      5  N   UNL     1       2.835   5.425  17.818  0.00  0.00    +0.000 N 
ATOM      6  C   UNL     1       3.330   6.723  17.861  0.00  0.00    +0.000 C 
ATOM      7  O   UNL     1       4.456   6.993  17.484  0.00  0.00    +0.000 OA
ENDROOT
BRANCH   6   8
ATOM      8  C   UNL     1       2.486   7.818  18.450  0.00  0.00    +0.000 A 
ATOM      9  C   UNL     1       2.237   8.983  17.840  0.00  0.00    +0.000 A 
ATOM     10  C   UNL     1       1.364   9.940  18.442  0.00  0.00    +0.000 A 
ATOM     11  C   UNL     1       0.584   9.610  19.477  0.00  0.00    +0.000 A 
ATOM     12  N   UNL     1       0.857   8.469  20.177  0.00  0.00    +0.000 N 
ATOM     13  C   UNL     1       1.958   7.685  19.865  0.00  0.00    +0.000 A 
ATOM     14  O   UNL     1       2.459   6.968  20.726  0.00  0.00    +0.000 OA
ATOM     15  C   UNL     1      -0.088  10.803  20.054  0.00  0.00    +0.000 C 
ATOM     16  C   UNL     1       1.025  11.811  19.759  0.00  0.00    +0.000 C 
ATOM     17  C   UNL     1       1.522  11.418  18.354  0.00  0.00    +0.000 C 
ATOM     18  H   UNL     1       0.557   8.400  21.141  0.00  0.00    +0.000 HD
ENDBRANCH   6   8
BRANCH   1  20
ATOM     19  N   UNL     1       6.194   4.406  17.008  0.00  0.00    +0.000 N 
ATOM     20  C   UNL     1       4.847   4.271  16.638  0.00  0.00    +0.000 C 
ATOM     21  O   UNL     1       4.522   4.145  15.452  0.00  0.00    +0.000 OA
BRANCH  19  23
ATOM     22  C   UNL     1       7.214   5.380  14.950  0.00  0.00    +0.000 C 
ATOM     23  C   UNL     1       7.192   4.233  15.951  0.00  0.00    +0.000 C 
ENDBRANCH  19  23
BRANCH  19  24
ATOM     24  C   UNL     1       6.675   4.595  18.387  0.00  0.00    +0.000 C 
ATOM     25  C   UNL     1       7.599   5.788  18.609  0.00  0.00    +0.000 C 
ENDBRANCH  19  24
ENDBRANCH   1  20
BRANCH   3  26
ATOM     26  N   UNL     1       1.308   2.852  19.503  0.00  0.00    +0.000 NA
ATOM     27  H   UNL     1       0.856   1.943  19.438  0.00  0.00    +0.000 HD
ATOM     28  H   UNL     1       0.699   3.445  20.067  0.00  0.00    +0.000 HD
ENDBRANCH   3  26
TORSDOF 5
ENDMDL
MODEL 4
REMARK VINA RESULT:      -6.6      1.407      1.642
REMARK  Name = 
REMARK  7 active torsions:
REMARK  status: ('A' for Active; 'I' for Inactive)
REMARK    1  A    between atoms: C_1  and  C_2
REMARK    2  A    between atoms: C_2  and  N_3
REMARK    3  A    between atoms: N_3  and  C_4
REMARK    4  A    between atoms: C_4  and  C_5
REMARK    5  A    between atoms: C_6  and  C_8
REMARK    6  A    between atoms: C_10  and  N_11
REMARK    7  A    between atoms: C_14  and  C_16
REMARK                            x       y       z     vdW  Elec       q    Type
REMARK                         _______ _______ _______ _____ _____    ______ ____
ROOT
ATOM      1  C   UNL     1       4.200   4.409  17.669  0.00  0.00    +0.000 C 
ATOM      2  C   UNL     1       3.433   3.076  17.497  0.00  0.00    +0.000 C 
ATOM      3  C   UNL     1       2.236   3.156  18.436  0.00  0.00    +0.000 C 
ATOM      4  C   UNL     1       2.003   4.659  18.609  0.00  0.00    +0.000 C 
ATOM      5  N   UNL     1       3.124   5.365  18.004  0.00  0.00    +0.000 N 
ATOM      6  C   UNL     1       3.384   6.728  18.067  0.00  0.00    +0.000 C 
ATOM      7  O   UNL     1       4.351   7.223  17.517  0.00  0.00    +0.000 OA
ENDROOT
BRANCH   6   8
ATOM      8  C   UNL     1       2.492   7.614  18.890  0.00  0.00    +0.000 A 
ATOM      9  C   UNL     1       2.106   7.335  20.142  0.00  0.00    +0.000 A 
ATOM     10  C   UNL     1       1.315   8.269  20.878  0.00  0.00    +0.000 A 
ATOM     11  C   UNL     1       1.154   9.526  20.452  0.00  0.00    +0.000 A 
ATOM     12  N   UNL     1       1.460   9.833  19.156  0.00  0.00    +0.000 N 
ATOM     13  C   UNL     1       1.876   8.852  18.268  0.00  0.00    +0.000 A 
ATOM     14  O   UNL     1       1.705   9.009  17.063  0.00  0.00    +0.000 OA
ATOM     15  C   UNL     1       0.146  10.252  21.267  0.00  0.00    +0.000 C 
ATOM     16  C   UNL     1      -0.745   9.049  21.584  0.00  0.00    +0.000 C 
ATOM     17  C   UNL     1       0.254   7.907  21.858  0.00  0.00    +0.000 C 
ATOM     18  H   UNL     1       1.007  10.625  18.718  0.00  0.00    +0.000 HD
ENDBRANCH   6   8
BRANCH   1  20
ATOM     19  N   UNL     1       6.437   4.762  16.493  0.00  0.00    +0.000 N 
ATOM     20  C   UNL     1       5.040   4.668  16.387  0.00  0.00    +0.000 C 
ATOM     21  O   UNL     1       4.476   4.782  15.293  0.00  0.00    +0.000 OA
BRANCH  19  23
ATOM     22  C   UNL     1       6.630   3.952  14.141  0.00  0.00    +0.000 C 
ATOM     23  C   UNL     1       7.193   4.840  15.243  0.00  0.00    +0.000 C 
ENDBRANCH  19  23
BRANCH  19  24
ATOM     24  C   UNL     1       7.194   4.675  17.754  0.00  0.00    +0.000 C 
ATOM     25  C   UNL     1       7.559   6.007  18.400  0.00  0.00    +0.000 C 
ENDBRANCH  19  24
ENDBRANCH   1  20
BRANCH   3  26
ATOM     26  N   UNL     1       2.424   2.470  19.713  0.00  0.00    +0.000 NA
ATOM     27  H   UNL     1       1.531   2.273  20.160  0.00  0.00    +0.000 HD
ATOM     28  H   UNL     1       2.946   3.070  20.351  0.00  0.00    +0.000 HD
ENDBRANCH   3  26
TORSDOF 5
ENDMDL
MODEL 5
REMARK VINA RESULT:      -6.6      3.536      8.603
REMARK  Name = 
REMARK  7 active torsions:
REMARK  status: ('A' for Active; 'I' for Inactive)
REMARK    1  A    between atoms: C_1  and  C_2
REMARK    2  A    between atoms: C_2  and  N_3
REMARK    3  A    between atoms: N_3  and  C_4
REMARK    4  A    between atoms: C_4  and  C_5
REMARK    5  A    between atoms: C_6  and  C_8
REMARK    6  A    between atoms: C_10  and  N_11
REMARK    7  A    between atoms: C_14  and  C_16
REMARK                            x       y       z     vdW  Elec       q    Type
REMARK                         _______ _______ _______ _____ _____    ______ ____
ROOT
ATOM      1  C   UNL     1      -1.478  12.258  18.854  0.00  0.00    +0.000 C 
ATOM      2  C   UNL     1      -2.830  12.034  18.133  0.00  0.00    +0.000 C 
ATOM      3  C   UNL     1      -2.706  10.699  17.411  0.00  0.00    +0.000 C 
ATOM      4  C   UNL     1      -1.633   9.949  18.205  0.00  0.00    +0.000 C 
ATOM      5  N   UNL     1      -1.036  10.880  19.153  0.00  0.00    +0.000 N 
ATOM      6  C   UNL     1       0.071  10.653  19.961  0.00  0.00    +0.000 C 
ATOM      7  O   UNL     1       0.489  11.499  20.730  0.00  0.00    +0.000 OA
ENDROOT
BRANCH   6   8
ATOM      8  C   UNL     1       0.821   9.356  19.842  0.00  0.00    +0.000 A 
ATOM      9  C   UNL     1       1.593   9.030  18.797  0.00  0.00    +0.000 A 
ATOM     10  C   UNL     1       2.328   7.805  18.798  0.00  0.00    +0.000 A 
ATOM     11  C   UNL     1       2.473   7.086  19.916  0.00  0.00    +0.000 A 
ATOM     12  N   UNL     1       1.648   7.335  20.977  0.00  0.00    +0.000 N 
ATOM     13  C   UNL     1       0.633   8.276  20.888  0.00  0.00    +0.000 A 
ATOM     14  O   UNL     1      -0.353   8.179  21.614  0.00  0.00    +0.000 OA
ATOM     15  C   UNL     1       3.104   5.770  19.639  0.00  0.00    +0.000 C 
ATOM     16  C   UNL     1       2.519   5.569  18.240  0.00  0.00    +0.000 C 
ATOM     17  C   UNL     1       2.599   6.967  17.597  0.00  0.00    +0.000 C 
ATOM     18  H   UNL     1       1.474   6.597  21.648  0.00  0.00    +0.000 HD
ENDBRANCH   6   8
BRANCH   1  20
ATOM     19  N   UNL     1      -1.039  14.468  20.049  0.00  0.00    +0.000 N 
ATOM     20  C   UNL     1      -1.704  13.231  20.044  0.00  0.00    +0.000 C 
ATOM     21  O   UNL     1      -2.466  12.915  20.964  0.00  0.00    +0.000 OA
BRANCH  19  23
ATOM     22  C   UNL     1      -0.388  15.495  22.227  0.00  0.00    +0.000 C 
ATOM     23  C   UNL     1      -1.409  15.415  21.102  0.00  0.00    +0.000 C 
ENDBRANCH  19  23
BRANCH  19  24
ATOM     24  C   UNL     1      -0.088  14.919  19.019  0.00  0.00    +0.000 C 
ATOM     25  C   UNL     1      -0.334  16.314  18.454  0.00  0.00    +0.000 C 
ENDBRANCH  19  24
ENDBRANCH   1  20
BRANCH   3  26
ATOM     26  N   UNL     1      -2.374  10.809  15.991  0.00  0.00    +0.000 NA
ATOM     27  H   UNL     1      -2.908  10.143  15.437  0.00  0.00    +0.000 HD
ATOM     28  H   UNL     1      -1.389  10.587  15.852  0.00  0.00    +0.000 HD
ENDBRANCH   3  26
TORSDOF 5
ENDMDL
MODEL 6
REMARK VINA RESULT:      -6.6      1.340      1.899
REMARK  Name = 
REMARK  7 active torsions:
REMARK  status: ('A' for Active; 'I' for Inactive)
REMARK    1  A    between atoms: C_1  and  C_2
REMARK    2  A    between atoms: C_2  and  N_3
REMARK    3  A    between atoms: N_3  and  C_4
REMARK    4  A    between atoms: C_4  and  C_5
REMARK    5  A    between atoms: C_6  and  C_8
REMARK    6  A    between atoms: C_10  and  N_11
REMARK    7  A    between atoms: C_14  and  C_16
REMARK                            x       y       z     vdW  Elec       q    Type
REMARK                         _______ _______ _______ _____ _____    ______ ____
ROOT
ATOM      1  C   UNL     1       3.676   4.683  19.219  0.00  0.00    +0.000 C 
ATOM      2  C   UNL     1       2.972   3.357  19.593  0.00  0.00    +0.000 C 
ATOM      3  C   UNL     1       1.797   3.740  20.483  0.00  0.00    +0.000 C 
ATOM      4  C   UNL     1       1.494   5.189  20.089  0.00  0.00    +0.000 C 
ATOM      5  N   UNL     1       2.563   5.656  19.217  0.00  0.00    +0.000 N 
ATOM      6  C   UNL     1       2.756   6.951  18.754  0.00  0.00    +0.000 C 
ATOM      7  O   UNL     1       3.683   7.237  18.017  0.00  0.00    +0.000 OA
ENDROOT
BRANCH   6   8
ATOM      8  C   UNL     1       1.843   8.048  19.222  0.00  0.00    +0.000 A 
ATOM      9  C   UNL     1       1.363   9.014  18.427  0.00  0.00    +0.000 A 
ATOM     10  C   UNL     1       0.441   9.977  18.940  0.00  0.00    +0.000 A 
ATOM     11  C   UNL     1      -0.157   9.802  20.122  0.00  0.00    +0.000 A 
ATOM     12  N   UNL     1       0.353   8.882  20.995  0.00  0.00    +0.000 N 
ATOM     13  C   UNL     1       1.509   8.176  20.694  0.00  0.00    +0.000 A 
ATOM     14  O   UNL     1       2.203   7.728  21.603  0.00  0.00    +0.000 OA
ATOM     15  C   UNL     1      -0.917  11.011  20.533  0.00  0.00    +0.000 C 
ATOM     16  C   UNL     1       0.002  12.045  19.879  0.00  0.00    +0.000 C 
ATOM     17  C   UNL     1       0.380  11.407  18.528  0.00  0.00    +0.000 C 
ATOM     18  H   UNL     1       0.181   8.996  21.986  0.00  0.00    +0.000 HD
ENDBRANCH   6   8
BRANCH   1  20
ATOM     19  N   UNL     1       5.831   4.807  17.860  0.00  0.00    +0.000 N 
ATOM     20  C   UNL     1       4.468   4.471  17.899  0.00  0.00    +0.000 C 
ATOM     21  O   UNL     1       3.899   4.007  16.906  0.00  0.00    +0.000 OA
BRANCH  19  23
ATOM     22  C   UNL     1       6.284   5.348  15.467  0.00  0.00    +0.000 C 
ATOM     23  C   UNL     1       6.570   4.437  16.652  0.00  0.00    +0.000 C 
ENDBRANCH  19  23
BRANCH  19  24
ATOM     24  C   UNL     1       6.587   5.397  18.978  0.00  0.00    +0.000 C 
ATOM     25  C   UNL     1       7.736   6.321  18.587  0.00  0.00    +0.000 C 
ENDBRANCH  19  24
ENDBRANCH   1  20
BRANCH   3  26
ATOM     26  N   UNL     1       2.052   3.593  21.915  0.00  0.00    +0.000 NA
ATOM     27  H   UNL     1       2.472   4.435  22.303  0.00  0.00    +0.000 HD
ATOM     28  H   UNL     1       2.716   2.835  22.069  0.00  0.00    +0.000 HD
ENDBRANCH   3  26
TORSDOF 5
ENDMDL
MODEL 7
REMARK VINA RESULT:      -6.5      2.959      8.245
REMARK  Name = 
REMARK  7 active torsions:
REMARK  status: ('A' for Active; 'I' for Inactive)
REMARK    1  A    between atoms: C_1  and  C_2
REMARK    2  A    between atoms: C_2  and  N_3
REMARK    3  A    between atoms: N_3  and  C_4
REMARK    4  A    between atoms: C_4  and  C_5
REMARK    5  A    between atoms: C_6  and  C_8
REMARK    6  A    between atoms: C_10  and  N_11
REMARK    7  A    between atoms: C_14  and  C_16
REMARK                            x       y       z     vdW  Elec       q    Type
REMARK                         _______ _______ _______ _____ _____    ______ ____
ROOT
ATOM      1  C   UNL     1      -1.000  11.931  19.898  0.00  0.00    +0.000 C 
ATOM      2  C   UNL     1      -2.372  11.972  19.181  0.00  0.00    +0.000 C 
ATOM      3  C   UNL     1      -2.251  11.033  17.989  0.00  0.00    +0.000 C 
ATOM      4  C   UNL     1      -1.141  10.060  18.396  0.00  0.00    +0.000 C 
ATOM      5  N   UNL     1      -0.527  10.559  19.619  0.00  0.00    +0.000 N 
ATOM      6  C   UNL     1       0.610  10.062  20.245  0.00  0.00    +0.000 C 
ATOM      7  O   UNL     1       1.040  10.549  21.274  0.00  0.00    +0.000 OA
ENDROOT
BRANCH   6   8
ATOM      8  C   UNL     1       1.375   8.938  19.605  0.00  0.00    +0.000 A 
ATOM      9  C   UNL     1       1.631   7.769  20.206  0.00  0.00    +0.000 A 
ATOM     10  C   UNL     1       2.304   6.727  19.498  0.00  0.00    +0.000 A 
ATOM     11  C   UNL     1       2.466   6.784  18.172  0.00  0.00    +0.000 A 
ATOM     12  N   UNL     1       2.292   7.979  17.533  0.00  0.00    +0.000 N 
ATOM     13  C   UNL     1       2.010   9.136  18.244  0.00  0.00    +0.000 A 
ATOM     14  O   UNL     1       2.306  10.229  17.770  0.00  0.00    +0.000 OA
ATOM     15  C   UNL     1       3.353   5.696  17.685  0.00  0.00    +0.000 C 
ATOM     16  C   UNL     1       4.246   5.609  18.924  0.00  0.00    +0.000 C 
ATOM     17  C   UNL     1       3.265   5.763  20.102  0.00  0.00    +0.000 C 
ATOM     18  H   UNL     1       2.763   8.137  16.650  0.00  0.00    +0.000 HD
ENDBRANCH   6   8
BRANCH   1  20
ATOM     19  N   UNL     1      -0.577  13.519  21.849  0.00  0.00    +0.000 N 
ATOM     20  C   UNL     1      -1.201  12.351  21.381  0.00  0.00    +0.000 C 
ATOM     21  O   UNL     1      -1.908  11.665  22.126  0.00  0.00    +0.000 OA
BRANCH  19  23
ATOM     22  C   UNL     1      -0.680  15.446  23.431  0.00  0.00    +0.000 C 
ATOM     23  C   UNL     1      -0.928  13.961  23.199  0.00  0.00    +0.000 C 
ENDBRANCH  19  23
BRANCH  19  24
ATOM     24  C   UNL     1       0.309  14.381  21.048  0.00  0.00    +0.000 C 
ATOM     25  C   UNL     1       1.777  13.971  21.012  0.00  0.00    +0.000 C 
ENDBRANCH  19  24
ENDBRANCH   1  20
BRANCH   3  26
ATOM     26  N   UNL     1      -1.969  11.701  16.719  0.00  0.00    +0.000 NA
ATOM     27  H   UNL     1      -1.052  11.443  16.364  0.00  0.00    +0.000 HD
ATOM     28  H   UNL     1      -1.959  12.711  16.859  0.00  0.00    +0.000 HD
ENDBRANCH   3  26
TORSDOF 5
ENDMDL
MODEL 8
REMARK VINA RESULT:      -6.5      2.279      7.257
REMARK  Name = 
REMARK  7 active torsions:
REMARK  status: ('A' for Active; 'I' for Inactive)
REMARK    1  A    between atoms: C_1  and  C_2
REMARK    2  A    between atoms: C_2  and  N_3
REMARK    3  A    between atoms: N_3  and  C_4
REMARK    4  A    between atoms: C_4  and  C_5
REMARK    5  A    between atoms: C_6  and  C_8
REMARK    6  A    between atoms: C_10  and  N_11
REMARK    7  A    between atoms: C_14  and  C_16
REMARK                            x       y       z     vdW  Elec       q    Type
REMARK                         _______ _______ _______ _____ _____    ______ ____
ROOT
ATOM      1  C   UNL     1       0.435  10.040  19.739  0.00  0.00    +0.000 C 
ATOM      2  C   UNL     1       0.350  10.254  21.270  0.00  0.00    +0.000 C 
ATOM      3  C   UNL     1       0.616   8.893  21.900  0.00  0.00    +0.000 C 
ATOM      4  C   UNL     1       1.428   8.147  20.838  0.00  0.00    +0.000 C 
ATOM      5  N   UNL     1       1.416   8.941  19.617  0.00  0.00    +0.000 N 
ATOM      6  C   UNL     1       1.905   8.565  18.372  0.00  0.00    +0.000 C 
ATOM      7  O   UNL     1       1.854   9.310  17.411  0.00  0.00    +0.000 OA
ENDROOT
BRANCH   6   8
ATOM      8  C   UNL     1       2.452   7.178  18.180  0.00  0.00    +0.000 A 
ATOM      9  C   UNL     1       1.802   6.061  18.531  0.00  0.00    +0.000 A 
ATOM     10  C   UNL     1       2.366   4.780  18.246  0.00  0.00    +0.000 A 
ATOM     11  C   UNL     1       3.403   4.650  17.413  0.00  0.00    +0.000 A 
ATOM     12  N   UNL     1       4.142   5.756  17.094  0.00  0.00    +0.000 N 
ATOM     13  C   UNL     1       3.865   6.989  17.666  0.00  0.00    +0.000 A 
ATOM     14  O   UNL     1       4.753   7.831  17.756  0.00  0.00    +0.000 OA
ATOM     15  C   UNL     1       3.936   3.263  17.418  0.00  0.00    +0.000 C 
ATOM     16  C   UNL     1       3.620   2.943  18.881  0.00  0.00    +0.000 C 
ATOM     17  C   UNL     1       2.233   3.574  19.109  0.00  0.00    +0.000 C 
ATOM     18  H   UNL     1       5.105   5.637  16.807  0.00  0.00    +0.000 HD
ENDBRANCH   6   8
BRANCH   1  20
ATOM     19  N   UNL     1      -0.278  12.175  18.541  0.00  0.00    +0.000 N 
ATOM     20  C   UNL     1       0.768  11.400  19.065  0.00  0.00    +0.000 C 
ATOM     21  O   UNL     1       1.940  11.787  19.003  0.00  0.00    +0.000 OA
BRANCH  19  23
ATOM     22  C   UNL     1      -0.258  14.612  19.073  0.00  0.00    +0.000 C 
ATOM     23  C   UNL     1       0.065  13.517  18.067  0.00  0.00    +0.000 C 
ENDBRANCH  19  23
BRANCH  19  24
ATOM     24  C   UNL     1      -1.698  11.783  18.536  0.00  0.00    +0.000 C 
ATOM     25  C   UNL     1      -2.209  11.160  17.241  0.00  0.00    +0.000 C 
ENDBRANCH  19  24
ENDBRANCH   1  20
BRANCH   3  26
ATOM     26  N   UNL     1      -0.589   8.164  22.295  0.00  0.00    +0.000 NA
ATOM     27  H   UNL     1      -0.355   7.264  22.707  0.00  0.00    +0.000 HD
ATOM     28  H   UNL     1      -1.158   7.973  21.471  0.00  0.00    +0.000 HD
ENDBRANCH   3  26
TORSDOF 5
ENDMDL
MODEL 9
REMARK VINA RESULT:      -6.4      2.249      4.252
REMARK  Name = 
REMARK  7 active torsions:
REMARK  status: ('A' for Active; 'I' for Inactive)
REMARK    1  A    between atoms: C_1  and  C_2
REMARK    2  A    between atoms: C_2  and  N_3
REMARK    3  A    between atoms: N_3  and  C_4
REMARK    4  A    between atoms: C_4  and  C_5
REMARK    5  A    between atoms: C_6  and  C_8
REMARK    6  A    between atoms: C_10  and  N_11
REMARK    7  A    between atoms: C_14  and  C_16
REMARK                            x       y       z     vdW  Elec       q    Type
REMARK                         _______ _______ _______ _____ _____    ______ ____
ROOT
ATOM      1  C   UNL     1       4.238   4.991  17.685  0.00  0.00    +0.000 C 
ATOM      2  C   UNL     1       5.599   5.180  16.973  0.00  0.00    +0.000 C 
ATOM      3  C   UNL     1       5.587   6.595  16.411  0.00  0.00    +0.000 C 
ATOM      4  C   UNL     1       4.588   7.338  17.303  0.00  0.00    +0.000 C 
ATOM      5  N   UNL     1       3.918   6.358  18.148  0.00  0.00    +0.000 N 
ATOM      6  C   UNL     1       2.841   6.585  18.995  0.00  0.00    +0.000 C 
ATOM      7  O   UNL     1       2.356   5.694  19.668  0.00  0.00    +0.000 OA
ENDROOT
BRANCH   6   8
ATOM      8  C   UNL     1       2.206   7.946  19.037  0.00  0.00    +0.000 A 
ATOM      9  C   UNL     1       2.372   8.880  18.092  0.00  0.00    +0.000 A 
ATOM     10  C   UNL     1       1.672  10.122  18.176  0.00  0.00    +0.000 A 
ATOM     11  C   UNL     1       0.661  10.291  19.034  0.00  0.00    +0.000 A 
ATOM     12  N   UNL     1       0.506   9.402  20.061  0.00  0.00    +0.000 N 
ATOM     13  C   UNL     1       1.414   8.371  20.257  0.00  0.00    +0.000 A 
ATOM     14  O   UNL     1       1.553   7.888  21.377  0.00  0.00    +0.000 OA
ATOM     15  C   UNL     1       0.216  11.707  19.081  0.00  0.00    +0.000 C 
ATOM     16  C   UNL     1       1.580  12.345  18.812  0.00  0.00    +0.000 C 
ATOM     17  C   UNL     1       2.209  11.439  17.735  0.00  0.00    +0.000 C 
ATOM     18  H   UNL     1       0.029   9.702  20.902  0.00  0.00    +0.000 HD
ENDBRANCH   6   8
BRANCH   1  20
ATOM     19  N   UNL     1       3.431   2.842  18.798  0.00  0.00    +0.000 N 
ATOM     20  C   UNL     1       4.386   3.871  18.752  0.00  0.00    +0.000 C 
ATOM     21  O   UNL     1       5.338   3.891  19.540  0.00  0.00    +0.000 OA
BRANCH  19  23
ATOM     22  C   UNL     1       3.368   2.036  21.158  0.00  0.00    +0.000 C 
ATOM     23  C   UNL     1       3.702   1.727  19.705  0.00  0.00    +0.000 C 
ENDBRANCH  19  23
BRANCH  19  24
ATOM     24  C   UNL     1       2.246   2.751  17.927  0.00  0.00    +0.000 C 
ATOM     25  C   UNL     1       0.903   2.657  18.644  0.00  0.00    +0.000 C 
ENDBRANCH  19  24
ENDBRANCH   1  20
BRANCH   3  26
ATOM     26  N   UNL     1       5.238   6.679  14.993  0.00  0.00    +0.000 NA
ATOM     27  H   UNL     1       4.462   6.061  14.768  0.00  0.00    +0.000 HD
ATOM     28  H   UNL     1       6.030   6.377  14.428  0.00  0.00    +0.000 HD
ENDBRANCH   3  26
TORSDOF 5
ENDMDL
