MODEL 1
REMARK VINA RESULT:      -7.4      0.000      0.000
REMARK  Name = 
REMARK  5 active torsions:
REMARK  status: ('A' for Active; 'I' for Inactive)
REMARK    1  A    between atoms: C_1  and  C_2
REMARK    2  A    between atoms: C_5  and  C_6
REMARK    3  A    between atoms: C_9  and  C_10
REMARK    4  A    between atoms: C_10  and  C_11
REMARK    5  A    between atoms: C_11  and  C_12
REMARK                            x       y       z     vdW  Elec       q    Type
REMARK                         _______ _______ _______ _____ _____    ______ ____
ROOT
ATOM      1  C   UNL     1       1.158   8.870  20.749  0.00  0.00    +0.000 C 
ATOM      2  N   UNL     1       0.581   9.798  20.035  0.00  0.00    +0.000 NA
ATOM      3  N   UNL     1      -0.019  10.820  20.722  0.00  0.00    +0.000 N 
ATOM      4  C   UNL     1      -0.446  12.023  20.198  0.00  0.00    +0.000 A 
ATOM      5  N   UNL     1      -1.041  12.732  21.141  0.00  0.00    +0.000 NA
ATOM      6  N   UNL     1      -1.013  12.005  22.307  0.00  0.00    +0.000 NA
ATOM      7  C   UNL     1      -0.400  10.880  22.040  0.00  0.00    +0.000 A 
ATOM      8  S   UNL     1      -0.093   9.568  23.109  0.00  0.00    +0.000 S 
ATOM      9  C   UNL     1       1.366   8.929  22.261  0.00  0.00    +0.000 C 
ENDROOT
BRANCH   1  14
ATOM     10  C   UNL     1       3.415   4.356  17.863  0.00  0.00    +0.000 C 
ATOM     11  C   UNL     1       2.833   5.512  18.621  0.00  0.00    +0.000 A 
ATOM     12  C   UNL     1       2.295   5.333  19.899  0.00  0.00    +0.000 A 
ATOM     13  C   UNL     1       1.758   6.417  20.603  0.00  0.00    +0.000 A 
ATOM     14  C   UNL     1       1.743   7.693  20.029  0.00  0.00    +0.000 A 
ATOM     15  C   UNL     1       2.291   7.877  18.754  0.00  0.00    +0.000 A 
ATOM     16  C   UNL     1       2.828   6.792  18.053  0.00  0.00    +0.000 A 
ENDBRANCH   1  14
BRANCH   4  17
ATOM     17  C   UNL     1      -0.239  12.430  18.785  0.00  0.00    +0.000 C 
BRANCH  17  18
ATOM     18  C   UNL     1      -1.508  12.286  17.937  0.00  0.00    +0.000 C 
BRANCH  18  19
ATOM     19  C   UNL     1      -2.337  10.999  18.171  0.00  0.00    +0.000 C 
ATOM     20  C   UNL     1      -3.858  11.226  18.184  0.00  0.00    +0.000 C 
ATOM     21  C   UNL     1      -4.408  11.606  16.812  0.00  0.00    +0.000 C 
ATOM     22  C   UNL     1      -4.028  10.580  15.747  0.00  0.00    +0.000 C 
ATOM     23  C   UNL     1      -2.530  10.294  15.720  0.00  0.00    +0.000 C 
ATOM     24  C   UNL     1      -1.992   9.938  17.108  0.00  0.00    +0.000 C 
ENDBRANCH  18  19
ENDBRANCH  17  18
ENDBRANCH   4  17
TORSDOF 4
ENDMDL
MODEL 2
REMARK VINA RESULT:      -7.4      4.268      8.574
REMARK  Name = 
REMARK  5 active torsions:
REMARK  status: ('A' for Active; 'I' for Inactive)
REMARK    1  A    between atoms: C_1  and  C_2
REMARK    2  A    between atoms: C_5  and  C_6
REMARK    3  A    between atoms: C_9  and  C_10
REMARK    4  A    between atoms: C_10  and  C_11
REMARK    5  A    between atoms: C_11  and  C_12
REMARK                            x       y       z     vdW  Elec       q    Type
REMARK                         _______ _______ _______ _____ _____    ______ ____
ROOT
ATOM      1  C   UNL     1       2.192   6.003  19.573  0.00  0.00    +0.000 C 
ATOM      2  N   UNL     1       3.112   5.490  18.801  0.00  0.00    +0.000 NA
ATOM      3  N   UNL     1       3.435   4.176  19.017  0.00  0.00    +0.000 N 
ATOM      4  C   UNL     1       4.163   3.361  18.176  0.00  0.00    +0.000 A 
ATOM      5  N   UNL     1       4.338   2.180  18.743  0.00  0.00    +0.000 NA
ATOM      6  N   UNL     1       3.723   2.200  19.973  0.00  0.00    +0.000 NA
ATOM      7  C   UNL     1       3.191   3.387  20.114  0.00  0.00    +0.000 A 
ATOM      8  S   UNL     1       2.317   3.996  21.464  0.00  0.00    +0.000 S 
ATOM      9  C   UNL     1       1.337   5.213  20.562  0.00  0.00    +0.000 C 
ENDROOT
BRANCH   1  14
ATOM     10  C   UNL     1       1.058  11.666  18.904  0.00  0.00    +0.000 C 
ATOM     11  C   UNL     1       1.342  10.204  19.089  0.00  0.00    +0.000 A 
ATOM     12  C   UNL     1       1.073   9.570  20.307  0.00  0.00    +0.000 A 
ATOM     13  C   UNL     1       1.335   8.206  20.472  0.00  0.00    +0.000 A 
ATOM     14  C   UNL     1       1.881   7.461  19.421  0.00  0.00    +0.000 A 
ATOM     15  C   UNL     1       2.141   8.090  18.198  0.00  0.00    +0.000 A 
ATOM     16  C   UNL     1       1.877   9.454  18.035  0.00  0.00    +0.000 A 
ENDBRANCH   1  14
BRANCH   4  17
ATOM     17  C   UNL     1       4.648   3.776  16.835  0.00  0.00    +0.000 C 
BRANCH  17  18
ATOM     18  C   UNL     1       5.299   5.165  16.848  0.00  0.00    +0.000 C 
BRANCH  18  19
ATOM     19  C   UNL     1       6.819   5.204  16.554  0.00  0.00    +0.000 C 
ATOM     20  C   UNL     1       7.361   6.607  16.239  0.00  0.00    +0.000 C 
ATOM     21  C   UNL     1       7.340   7.532  17.454  0.00  0.00    +0.000 C 
ATOM     22  C   UNL     1       8.083   6.923  18.641  0.00  0.00    +0.000 C 
ATOM     23  C   UNL     1       7.603   5.512  18.969  0.00  0.00    +0.000 C 
ATOM     24  C   UNL     1       7.609   4.608  17.735  0.00  0.00    +0.000 C 
ENDBRANCH  18  19
ENDBRANCH  17  18
ENDBRANCH   4  17
TORSDOF 4
ENDMDL
MODEL 3
REMARK VINA RESULT:      -7.3      4.063      6.481
REMARK  Name = 
REMARK  5 active torsions:
REMARK  status: ('A' for Active; 'I' for Inactive)
REMARK    1  A    between atoms: C_1  and  C_2
REMARK    2  A    between atoms: C_5  and  C_6
REMARK    3  A    between atoms: C_9  and  C_10
REMARK    4  A    between atoms: C_10  and  C_11
REMARK    5  A    between atoms: C_11  and  C_12
REMARK                            x       y       z     vdW  Elec       q    Type
REMARK                         _______ _______ _______ _____ _____    ______ ____
ROOT
ATOM      1  C   UNL     1       4.550   4.418  18.021  0.00  0.00    +0.000 C 
ATOM      2  N   UNL     1       3.684   5.350  18.314  0.00  0.00    +0.000 NA
ATOM      3  N   UNL     1       2.893   5.134  19.411  0.00  0.00    +0.000 N 
ATOM      4  C   UNL     1       2.114   6.070  20.058  0.00  0.00    +0.000 A 
ATOM      5  N   UNL     1       1.433   5.486  21.030  0.00  0.00    +0.000 NA
ATOM      6  N   UNL     1       1.758   4.150  21.038  0.00  0.00    +0.000 NA
ATOM      7  C   UNL     1       2.626   3.963  20.077  0.00  0.00    +0.000 A 
ATOM      8  S   UNL     1       3.367   2.486  19.599  0.00  0.00    +0.000 S 
ATOM      9  C   UNL     1       4.865   3.207  18.898  0.00  0.00    +0.000 C 
ENDROOT
BRANCH   1  14
ATOM     10  C   UNL     1       7.656   4.989  13.139  0.00  0.00    +0.000 C 
ATOM     11  C   UNL     1       6.865   4.850  14.407  0.00  0.00    +0.000 A 
ATOM     12  C   UNL     1       7.421   5.201  15.641  0.00  0.00    +0.000 A 
ATOM     13  C   UNL     1       6.677   5.074  16.819  0.00  0.00    +0.000 A 
ATOM     14  C   UNL     1       5.367   4.584  16.776  0.00  0.00    +0.000 A 
ATOM     15  C   UNL     1       4.803   4.243  15.541  0.00  0.00    +0.000 A 
ATOM     16  C   UNL     1       5.549   4.372  14.365  0.00  0.00    +0.000 A 
ENDBRANCH   1  14
BRANCH   4  17
ATOM     17  C   UNL     1       2.080   7.511  19.700  0.00  0.00    +0.000 C 
BRANCH  17  18
ATOM     18  C   UNL     1       1.555   8.390  20.841  0.00  0.00    +0.000 C 
BRANCH  18  19
ATOM     19  C   UNL     1       0.032   8.670  20.837  0.00  0.00    +0.000 C 
ATOM     20  C   UNL     1      -0.610   8.668  22.234  0.00  0.00    +0.000 C 
ATOM     21  C   UNL     1      -0.163   9.851  23.089  0.00  0.00    +0.000 C 
ATOM     22  C   UNL     1      -0.413  11.183  22.385  0.00  0.00    +0.000 C 
ATOM     23  C   UNL     1       0.176  11.220  20.978  0.00  0.00    +0.000 C 
ATOM     24  C   UNL     1      -0.264  10.015  20.145  0.00  0.00    +0.000 C 
ENDBRANCH  18  19
ENDBRANCH  17  18
ENDBRANCH   4  17
TORSDOF 4
ENDMDL
MODEL 4
REMARK VINA RESULT:      -7.3      4.251      8.310
REMARK  Name = 
REMARK  5 active torsions:
REMARK  status: ('A' for Active; 'I' for Inactive)
REMARK    1  A    between atoms: C_1  and  C_2
REMARK    2  A    between atoms: C_5  and  C_6
REMARK    3  A    between atoms: C_9  and  C_10
REMARK    4  A    between atoms: C_10  and  C_11
REMARK    5  A    between atoms: C_11  and  C_12
REMARK                            x       y       z     vdW  Elec       q    Type
REMARK                         _______ _______ _______ _____ _____    ______ ____
ROOT
ATOM      1  C   UNL     1       2.085   6.043  19.565  0.00  0.00    +0.000 C 
ATOM      2  N   UNL     1       2.865   5.487  18.678  0.00  0.00    +0.000 NA
ATOM      3  N   UNL     1       3.156   4.160  18.859  0.00  0.00    +0.000 N 
ATOM      4  C   UNL     1       3.723   3.310  17.933  0.00  0.00    +0.000 A 
ATOM      5  N   UNL     1       3.923   2.124  18.481  0.00  0.00    +0.000 NA
ATOM      6  N   UNL     1       3.487   2.175  19.784  0.00  0.00    +0.000 NA
ATOM      7  C   UNL     1       3.032   3.386  19.986  0.00  0.00    +0.000 A 
ATOM      8  S   UNL     1       2.382   4.038  21.439  0.00  0.00    +0.000 S 
ATOM      9  C   UNL     1       1.341   5.296  20.670  0.00  0.00    +0.000 C 
ENDROOT
BRANCH   1  14
ATOM     10  C   UNL     1       0.994  11.741  19.181  0.00  0.00    +0.000 C 
ATOM     11  C   UNL     1       1.284  10.271  19.267  0.00  0.00    +0.000 A 
ATOM     12  C   UNL     1       1.767   9.570  18.157  0.00  0.00    +0.000 A 
ATOM     13  C   UNL     1       2.039   8.200  18.245  0.00  0.00    +0.000 A 
ATOM     14  C   UNL     1       1.821   7.513  19.444  0.00  0.00    +0.000 A 
ATOM     15  C   UNL     1       1.348   8.214  20.559  0.00  0.00    +0.000 A 
ATOM     16  C   UNL     1       1.077   9.584  20.469  0.00  0.00    +0.000 A 
ENDBRANCH   1  14
BRANCH   4  17
ATOM     17  C   UNL     1       4.035   3.699  16.533  0.00  0.00    +0.000 C 
BRANCH  17  18
ATOM     18  C   UNL     1       5.538   3.655  16.231  0.00  0.00    +0.000 C 
BRANCH  18  19
ATOM     19  C   UNL     1       6.101   4.844  15.414  0.00  0.00    +0.000 C 
ATOM     20  C   UNL     1       5.185   6.079  15.392  0.00  0.00    +0.000 C 
ATOM     21  C   UNL     1       5.086   6.763  16.752  0.00  0.00    +0.000 C 
ATOM     22  C   UNL     1       6.464   7.126  17.304  0.00  0.00    +0.000 C 
ATOM     23  C   UNL     1       7.421   5.938  17.312  0.00  0.00    +0.000 C 
ATOM     24  C   UNL     1       7.489   5.251  15.947  0.00  0.00    +0.000 C 
ENDBRANCH  18  19
ENDBRANCH  17  18
ENDBRANCH   4  17
TORSDOF 4
ENDMDL
MODEL 5
REMARK VINA RESULT:      -7.2      4.687      8.486
REMARK  Name = 
REMARK  5 active torsions:
REMARK  status: ('A' for Active; 'I' for Inactive)
REMARK    1  A    between atoms: C_1  and  C_2
REMARK    2  A    between atoms: C_5  and  C_6
REMARK    3  A    between atoms: C_9  and  C_10
REMARK    4  A    between atoms: C_10  and  C_11
REMARK    5  A    between atoms: C_11  and  C_12
REMARK                            x       y       z     vdW  Elec       q    Type
REMARK                         _______ _______ _______ _____ _____    ______ ____
ROOT
ATOM      1  C   UNL     1       3.784   6.708  17.707  0.00  0.00    +0.000 C 
ATOM      2  N   UNL     1       3.506   5.439  17.579  0.00  0.00    +0.000 NA
ATOM      3  N   UNL     1       4.414   4.676  16.894  0.00  0.00    +0.000 N 
ATOM      4  C   UNL     1       4.471   3.298  16.863  0.00  0.00    +0.000 A 
ATOM      5  N   UNL     1       5.431   2.911  16.042  0.00  0.00    +0.000 NA
ATOM      6  N   UNL     1       6.026   4.034  15.518  0.00  0.00    +0.000 NA
ATOM      7  C   UNL     1       5.414   5.067  16.038  0.00  0.00    +0.000 A 
ATOM      8  S   UNL     1       5.713   6.733  15.731  0.00  0.00    +0.000 S 
ATOM      9  C   UNL     1       5.108   7.360  17.312  0.00  0.00    +0.000 C 
ENDROOT
BRANCH   1  14
ATOM     10  C   UNL     1      -0.136  10.192  20.217  0.00  0.00    +0.000 C 
ATOM     11  C   UNL     1       0.874   9.283  19.580  0.00  0.00    +0.000 A 
ATOM     12  C   UNL     1       1.434   8.220  20.297  0.00  0.00    +0.000 A 
ATOM     13  C   UNL     1       2.371   7.373  19.697  0.00  0.00    +0.000 A 
ATOM     14  C   UNL     1       2.768   7.586  18.372  0.00  0.00    +0.000 A 
ATOM     15  C   UNL     1       2.202   8.642  17.649  0.00  0.00    +0.000 A 
ATOM     16  C   UNL     1       1.264   9.488  18.251  0.00  0.00    +0.000 A 
ENDBRANCH   1  14
BRANCH   4  17
ATOM     17  C   UNL     1       3.579   2.414  17.658  0.00  0.00    +0.000 C 
BRANCH  17  18
ATOM     18  C   UNL     1       3.845   2.512  19.165  0.00  0.00    +0.000 C 
BRANCH  18  19
ATOM     19  C   UNL     1       2.706   2.010  20.088  0.00  0.00    +0.000 C 
ATOM     20  C   UNL     1       2.635   2.732  21.443  0.00  0.00    +0.000 C 
ATOM     21  C   UNL     1       2.197   4.189  21.312  0.00  0.00    +0.000 C 
ATOM     22  C   UNL     1       0.871   4.315  20.565  0.00  0.00    +0.000 C 
ATOM     23  C   UNL     1       0.882   3.583  19.227  0.00  0.00    +0.000 C 
ATOM     24  C   UNL     1       1.345   2.133  19.375  0.00  0.00    +0.000 C 
ENDBRANCH  18  19
ENDBRANCH  17  18
ENDBRANCH   4  17
TORSDOF 4
ENDMDL
MODEL 6
REMARK VINA RESULT:      -7.2      4.128      8.463
REMARK  Name = 
REMARK  5 active torsions:
REMARK  status: ('A' for Active; 'I' for Inactive)
REMARK    1  A    between atoms: C_1  and  C_2
REMARK    2  A    between atoms: C_5  and  C_6
REMARK    3  A    between atoms: C_9  and  C_10
REMARK    4  A    between atoms: C_10  and  C_11
REMARK    5  A    between atoms: C_11  and  C_12
REMARK                            x       y       z     vdW  Elec       q    Type
REMARK                         _______ _______ _______ _____ _____    ______ ____
ROOT
ATOM      1  C   UNL     1       2.431   6.296  19.182  0.00  0.00    +0.000 C 
ATOM      2  N   UNL     1       3.707   6.065  19.335  0.00  0.00    +0.000 NA
ATOM      3  N   UNL     1       4.083   4.755  19.475  0.00  0.00    +0.000 N 
ATOM      4  C   UNL     1       5.365   4.254  19.382  0.00  0.00    +0.000 A 
ATOM      5  N   UNL     1       5.356   2.959  19.644  0.00  0.00    +0.000 NA
ATOM      6  N   UNL     1       4.061   2.585  19.915  0.00  0.00    +0.000 NA
ATOM      7  C   UNL     1       3.323   3.660  19.805  0.00  0.00    +0.000 A 
ATOM      8  S   UNL     1       1.627   3.804  20.055  0.00  0.00    +0.000 S 
ATOM      9  C   UNL     1       1.364   5.224  18.973  0.00  0.00    +0.000 C 
ENDROOT
BRANCH   1  14
ATOM     10  C   UNL     1       0.611  11.815  19.010  0.00  0.00    +0.000 C 
ATOM     11  C   UNL     1       1.089  10.393  19.041  0.00  0.00    +0.000 A 
ATOM     12  C   UNL     1       1.680   9.811  17.915  0.00  0.00    +0.000 A 
ATOM     13  C   UNL     1       2.128   8.486  17.952  0.00  0.00    +0.000 A 
ATOM     14  C   UNL     1       1.980   7.724  19.116  0.00  0.00    +0.000 A 
ATOM     15  C   UNL     1       1.398   8.307  20.248  0.00  0.00    +0.000 A 
ATOM     16  C   UNL     1       0.952   9.632  20.209  0.00  0.00    +0.000 A 
ENDBRANCH   1  14
BRANCH   4  17
ATOM     17  C   UNL     1       6.550   5.074  19.023  0.00  0.00    +0.000 C 
BRANCH  17  18
ATOM     18  C   UNL     1       7.194   4.634  17.702  0.00  0.00    +0.000 C 
BRANCH  18  19
ATOM     19  C   UNL     1       7.088   5.638  16.528  0.00  0.00    +0.000 C 
ATOM     20  C   UNL     1       7.511   5.059  15.168  0.00  0.00    +0.000 C 
ATOM     21  C   UNL     1       6.540   4.000  14.651  0.00  0.00    +0.000 C 
ATOM     22  C   UNL     1       5.108   4.530  14.588  0.00  0.00    +0.000 C 
ATOM     23  C   UNL     1       4.656   5.148  15.908  0.00  0.00    +0.000 C 
ATOM     24  C   UNL     1       5.653   6.188  16.421  0.00  0.00    +0.000 C 
ENDBRANCH  18  19
ENDBRANCH  17  18
ENDBRANCH   4  17
TORSDOF 4
ENDMDL
MODEL 7
REMARK VINA RESULT:      -7.2      4.315      8.297
REMARK  Name = 
REMARK  5 active torsions:
REMARK  status: ('A' for Active; 'I' for Inactive)
REMARK    1  A    between atoms: C_1  and  C_2
REMARK    2  A    between atoms: C_5  and  C_6
REMARK    3  A    between atoms: C_9  and  C_10
REMARK    4  A    between atoms: C_10  and  C_11
REMARK    5  A    between atoms: C_11  and  C_12
REMARK                            x       y       z     vdW  Elec       q    Type
REMARK                         _______ _______ _______ _____ _____    ______ ____
ROOT
ATOM      1  C   UNL     1       2.064   5.871  19.598  0.00  0.00    +0.000 C 
ATOM      2  N   UNL     1       2.840   5.329  18.698  0.00  0.00    +0.000 NA
ATOM      3  N   UNL     1       3.134   4.001  18.858  0.00  0.00    +0.000 N 
ATOM      4  C   UNL     1       3.697   3.166  17.916  0.00  0.00    +0.000 A 
ATOM      5  N   UNL     1       3.902   1.972  18.445  0.00  0.00    +0.000 NA
ATOM      6  N   UNL     1       3.473   2.003  19.751  0.00  0.00    +0.000 NA
ATOM      7  C   UNL     1       3.018   3.210  19.974  0.00  0.00    +0.000 A 
ATOM      8  S   UNL     1       2.375   3.838  21.440  0.00  0.00    +0.000 S 
ATOM      9  C   UNL     1       1.328   5.106  20.696  0.00  0.00    +0.000 C 
ENDROOT
BRANCH   1  14
ATOM     10  C   UNL     1       1.095  11.585  19.136  0.00  0.00    +0.000 C 
ATOM     11  C   UNL     1       1.338  10.110  19.269  0.00  0.00    +0.000 A 
ATOM     12  C   UNL     1       1.128   9.456  20.487  0.00  0.00    +0.000 A 
ATOM     13  C   UNL     1       1.351   8.080  20.603  0.00  0.00    +0.000 A 
ATOM     14  C   UNL     1       1.797   7.342  19.501  0.00  0.00    +0.000 A 
ATOM     15  C   UNL     1       1.998   7.992  18.278  0.00  0.00    +0.000 A 
ATOM     16  C   UNL     1       1.773   9.368  18.164  0.00  0.00    +0.000 A 
ENDBRANCH   1  14
BRANCH   4  17
ATOM     17  C   UNL     1       4.001   3.576  16.520  0.00  0.00    +0.000 C 
BRANCH  17  18
ATOM     18  C   UNL     1       5.506   3.711  16.260  0.00  0.00    +0.000 C 
BRANCH  18  19
ATOM     19  C   UNL     1       5.945   4.950  15.441  0.00  0.00    +0.000 C 
ATOM     20  C   UNL     1       5.067   6.192  15.666  0.00  0.00    +0.000 C 
ATOM     21  C   UNL     1       5.222   6.777  17.067  0.00  0.00    +0.000 C 
ATOM     22  C   UNL     1       6.682   7.085  17.392  0.00  0.00    +0.000 C 
ATOM     23  C   UNL     1       7.599   5.890  17.150  0.00  0.00    +0.000 C 
ATOM     24  C   UNL     1       7.413   5.303  15.750  0.00  0.00    +0.000 C 
ENDBRANCH  18  19
ENDBRANCH  17  18
ENDBRANCH   4  17
TORSDOF 4
ENDMDL
MODEL 8
REMARK VINA RESULT:      -7.2      3.053      7.587
REMARK  Name = 
REMARK  5 active torsions:
REMARK  status: ('A' for Active; 'I' for Inactive)
REMARK    1  A    between atoms: C_1  and  C_2
REMARK    2  A    between atoms: C_5  and  C_6
REMARK    3  A    between atoms: C_9  and  C_10
REMARK    4  A    between atoms: C_10  and  C_11
REMARK    5  A    between atoms: C_11  and  C_12
REMARK                            x       y       z     vdW  Elec       q    Type
REMARK                         _______ _______ _______ _____ _____    ______ ____
ROOT
ATOM      1  C   UNL     1       0.551  10.418  20.286  0.00  0.00    +0.000 C 
ATOM      2  N   UNL     1       0.695   9.121  20.315  0.00  0.00    +0.000 NA
ATOM      3  N   UNL     1       1.613   8.584  19.451  0.00  0.00    +0.000 N 
ATOM      4  C   UNL     1       2.123   7.303  19.486  0.00  0.00    +0.000 A 
ATOM      5  N   UNL     1       2.929   7.116  18.455  0.00  0.00    +0.000 NA
ATOM      6  N   UNL     1       2.963   8.279  17.722  0.00  0.00    +0.000 NA
ATOM      7  C   UNL     1       2.183   9.136  18.330  0.00  0.00    +0.000 A 
ATOM      8  S   UNL     1       1.818  10.748  17.856  0.00  0.00    +0.000 S 
ATOM      9  C   UNL     1       1.439  11.382  19.502  0.00  0.00    +0.000 C 
ENDROOT
BRANCH   1  14
ATOM     10  C   UNL     1      -3.553  12.690  23.721  0.00  0.00    +0.000 C 
ATOM     11  C   UNL     1      -2.497  12.114  22.824  0.00  0.00    +0.000 A 
ATOM     12  C   UNL     1      -2.401  12.508  21.485  0.00  0.00    +0.000 A 
ATOM     13  C   UNL     1      -1.411  11.972  20.655  0.00  0.00    +0.000 A 
ATOM     14  C   UNL     1      -0.509  11.025  21.154  0.00  0.00    +0.000 A 
ATOM     15  C   UNL     1      -0.595  10.637  22.496  0.00  0.00    +0.000 A 
ATOM     16  C   UNL     1      -1.586  11.176  23.324  0.00  0.00    +0.000 A 
ENDBRANCH   1  14
BRANCH   4  17
ATOM     17  C   UNL     1       1.803   6.313  20.547  0.00  0.00    +0.000 C 
BRANCH  17  18
ATOM     18  C   UNL     1       2.335   4.912  20.225  0.00  0.00    +0.000 C 
BRANCH  18  19
ATOM     19  C   UNL     1       1.341   3.953  19.525  0.00  0.00    +0.000 C 
ATOM     20  C   UNL     1       1.347   4.052  17.991  0.00  0.00    +0.000 C 
ATOM     21  C   UNL     1       2.642   3.530  17.373  0.00  0.00    +0.000 C 
ATOM     22  C   UNL     1       2.944   2.101  17.820  0.00  0.00    +0.000 C 
ATOM     23  C   UNL     1       2.913   1.945  19.337  0.00  0.00    +0.000 C 
ATOM     24  C   UNL     1       1.620   2.495  19.940  0.00  0.00    +0.000 C 
ENDBRANCH  18  19
ENDBRANCH  17  18
ENDBRANCH   4  17
TORSDOF 4
ENDMDL
MODEL 9
REMARK VINA RESULT:      -7.2      4.601      8.481
REMARK  Name = 
REMARK  5 active torsions:
REMARK  status: ('A' for Active; 'I' for Inactive)
REMARK    1  A    between atoms: C_1  and  C_2
REMARK    2  A    between atoms: C_5  and  C_6
REMARK    3  A    between atoms: C_9  and  C_10
REMARK    4  A    between atoms: C_10  and  C_11
REMARK    5  A    between atoms: C_11  and  C_12
REMARK                            x       y       z     vdW  Elec       q    Type
REMARK                         _______ _______ _______ _____ _____    ______ ____
ROOT
ATOM      1  C   UNL     1       3.692   6.731  17.815  0.00  0.00    +0.000 C 
ATOM      2  N   UNL     1       3.365   5.477  17.661  0.00  0.00    +0.000 NA
ATOM      3  N   UNL     1       4.280   4.675  17.030  0.00  0.00    +0.000 N 
ATOM      4  C   UNL     1       4.275   3.296  16.994  0.00  0.00    +0.000 A 
ATOM      5  N   UNL     1       5.268   2.868  16.233  0.00  0.00    +0.000 NA
ATOM      6  N   UNL     1       5.946   3.965  15.756  0.00  0.00    +0.000 NA
ATOM      7  C   UNL     1       5.349   5.023  16.243  0.00  0.00    +0.000 A 
ATOM      8  S   UNL     1       5.743   6.675  15.968  0.00  0.00    +0.000 S 
ATOM      9  C   UNL     1       5.067   7.323  17.510  0.00  0.00    +0.000 C 
ENDROOT
BRANCH   1  14
ATOM     10  C   UNL     1      -0.272  10.229  20.235  0.00  0.00    +0.000 C 
ATOM     11  C   UNL     1       0.753   9.336  19.599  0.00  0.00    +0.000 A 
ATOM     12  C   UNL     1       1.137   9.522  18.266  0.00  0.00    +0.000 A 
ATOM     13  C   UNL     1       2.096   8.689  17.680  0.00  0.00    +0.000 A 
ATOM     14  C   UNL     1       2.676   7.652  18.420  0.00  0.00    +0.000 A 
ATOM     15  C   UNL     1       2.302   7.471  19.756  0.00  0.00    +0.000 A 
ATOM     16  C   UNL     1       1.343   8.306  20.340  0.00  0.00    +0.000 A 
ENDBRANCH   1  14
BRANCH   4  17
ATOM     17  C   UNL     1       3.295   2.451  17.723  0.00  0.00    +0.000 C 
BRANCH  17  18
ATOM     18  C   UNL     1       3.645   2.291  19.208  0.00  0.00    +0.000 C 
BRANCH  18  19
ATOM     19  C   UNL     1       2.466   1.940  20.149  0.00  0.00    +0.000 C 
ATOM     20  C   UNL     1       2.493   2.686  21.493  0.00  0.00    +0.000 C 
ATOM     21  C   UNL     1       2.226   4.182  21.341  0.00  0.00    +0.000 C 
ATOM     22  C   UNL     1       0.916   4.450  20.604  0.00  0.00    +0.000 C 
ATOM     23  C   UNL     1       0.828   3.700  19.278  0.00  0.00    +0.000 C 
ATOM     24  C   UNL     1       1.121   2.208  19.446  0.00  0.00    +0.000 C 
ENDBRANCH  18  19
ENDBRANCH  17  18
ENDBRANCH   4  17
TORSDOF 4
ENDMDL
