MODEL 1
REMARK VINA RESULT:      -8.2      0.000      0.000
REMARK  Name = 
REMARK  9 active torsions:
REMARK  status: ('A' for Active; 'I' for Inactive)
REMARK    1  A    between atoms: N_1  and  C_2
REMARK    2  A    between atoms: C_7  and  N_8
REMARK    3  A    between atoms: N_11  and  C_12
REMARK    4  A    between atoms: C_12  and  C_13
REMARK    5  A    between atoms: C_13  and  C_14
REMARK    6  A    between atoms: C_14  and  C_15
REMARK    7  A    between atoms: C_15  and  C_16
REMARK    8  A    between atoms: C_16  and  C_17
REMARK    9  A    between atoms: N_19  and  C_20
REMARK                            x       y       z     vdW  Elec       q    Type
REMARK                         _______ _______ _______ _____ _____    ______ ____
ROOT
ATOM      1  C   UNL     1       8.069   8.069  17.673  0.00  0.00    +0.000 C 
ENDROOT
BRANCH   1   2
ATOM      2  C   UNL     1       6.650   7.559  17.415  0.00  0.00    +0.000 C 
BRANCH   2   6
ATOM      3  N   UNL     1       4.323   4.886  18.471  0.00  0.00    +0.000 N 
ATOM      4  C   UNL     1       5.525   5.214  19.247  0.00  0.00    +0.000 C 
ATOM      5  C   UNL     1       6.730   5.242  18.271  0.00  0.00    +0.000 C 
ATOM      6  N   UNL     1       6.578   6.130  17.085  0.00  0.00    +0.000 NA
ATOM      7  C   UNL     1       5.278   5.824  16.426  0.00  0.00    +0.000 C 
ATOM      8  C   UNL     1       4.058   5.844  17.381  0.00  0.00    +0.000 C 
BRANCH   3  14
ATOM      9  C   UNL     1       3.046   2.850  18.848  0.00  0.00    +0.000 A 
ATOM     10  C   UNL     1       1.914   2.204  19.351  0.00  0.00    +0.000 A 
ATOM     11  C   UNL     1       1.031   2.887  20.183  0.00  0.00    +0.000 A 
ATOM     12  C   UNL     1       1.251   4.230  20.473  0.00  0.00    +0.000 A 
ATOM     13  C   UNL     1       2.334   4.906  19.901  0.00  0.00    +0.000 A 
ATOM     14  C   UNL     1       3.231   4.245  19.050  0.00  0.00    +0.000 A 
BRANCH   9  15
ATOM     15  N   UNL     1       3.936   2.126  18.014  0.00  0.00    +0.000 N 
ATOM     16  H   UNL     1       3.540   1.926  17.104  0.00  0.00    +0.000 HD
ATOM     17  H   UNL     1       4.201   1.275  18.512  0.00  0.00    +0.000 HD
ENDBRANCH   9  15
ENDBRANCH   3  14
ENDBRANCH   2   6
ENDBRANCH   1   2
BRANCH   1  18
ATOM     18  C   UNL     1       8.113   9.539  18.097  0.00  0.00    +0.000 C 
BRANCH  18  19
ATOM     19  C   UNL     1       9.336   9.781  18.976  0.00  0.00    +0.000 C 
BRANCH  19  20
ATOM     20  C   UNL     1       9.324  11.166  19.612  0.00  0.00    +0.000 C 
BRANCH  20  21
ATOM     21  C   UNL     1       9.455  12.245  18.558  0.00  0.00    +0.000 C 
ATOM     22  O   UNL     1      10.182  12.148  17.575  0.00  0.00    +0.000 OA
ATOM     23  N   UNL     1       8.662  13.336  18.807  0.00  0.00    +0.000 N 
ATOM     24  H   UNL     1       8.016  13.311  19.586  0.00  0.00    +0.000 HD
BRANCH  23  25
ATOM     25  C   UNL     1       8.570  14.461  17.886  0.00  0.00    +0.000 C 
ATOM     26  C   UNL     1       9.779  15.404  17.993  0.00  0.00    +0.000 C 
ATOM     27  C   UNL     1       9.738  16.191  19.297  0.00  0.00    +0.000 C 
ATOM     28  C   UNL     1       8.499  17.081  19.345  0.00  0.00    +0.000 C 
ATOM     29  C   UNL     1       7.236  16.389  18.894  0.00  0.00    +0.000 A 
ATOM     30  C   UNL     1       6.000  16.997  19.166  0.00  0.00    +0.000 A 
ATOM     31  C   UNL     1       4.811  16.421  18.721  0.00  0.00    +0.000 A 
ATOM     32  C   UNL     1       4.840  15.236  17.991  0.00  0.00    +0.000 A 
ATOM     33  C   UNL     1       6.060  14.623  17.710  0.00  0.00    +0.000 A 
ATOM     34  C   UNL     1       7.267  15.193  18.152  0.00  0.00    +0.000 A 
ENDBRANCH  23  25
ENDBRANCH  20  21
ENDBRANCH  19  20
ENDBRANCH  18  19
ENDBRANCH   1  18
TORSDOF 9
ENDMDL
MODEL 2
REMARK VINA RESULT:      -8.0      2.656     11.448
REMARK  Name = 
REMARK  9 active torsions:
REMARK  status: ('A' for Active; 'I' for Inactive)
REMARK    1  A    between atoms: N_1  and  C_2
REMARK    2  A    between atoms: C_7  and  N_8
REMARK    3  A    between atoms: N_11  and  C_12
REMARK    4  A    between atoms: C_12  and  C_13
REMARK    5  A    between atoms: C_13  and  C_14
REMARK    6  A    between atoms: C_14  and  C_15
REMARK    7  A    between atoms: C_15  and  C_16
REMARK    8  A    between atoms: C_16  and  C_17
REMARK    9  A    between atoms: N_19  and  C_20
REMARK                            x       y       z     vdW  Elec       q    Type
REMARK                         _______ _______ _______ _____ _____    ______ ____
ROOT
ATOM      1  C   UNL     1       8.167   9.655  18.268  0.00  0.00    +0.000 C 
ENDROOT
BRANCH   1   2
ATOM      2  C   UNL     1       9.459  10.440  18.028  0.00  0.00    +0.000 C 
BRANCH   2   6
ATOM      3  N   UNL     1      10.632  13.880  18.712  0.00  0.00    +0.000 N 
ATOM      4  C   UNL     1      11.527  12.853  18.163  0.00  0.00    +0.000 C 
ATOM      5  C   UNL     1      11.396  11.585  19.046  0.00  0.00    +0.000 C 
ATOM      6  N   UNL     1      10.012  11.069  19.233  0.00  0.00    +0.000 NA
ATOM      7  C   UNL     1       9.140  12.195  19.667  0.00  0.00    +0.000 C 
ATOM      8  C   UNL     1       9.221  13.450  18.762  0.00  0.00    +0.000 C 
BRANCH   3  14
ATOM      9  C   UNL     1      11.158  16.043  19.691  0.00  0.00    +0.000 A 
ATOM     10  C   UNL     1      11.339  17.422  19.559  0.00  0.00    +0.000 A 
ATOM     11  C   UNL     1      11.410  18.001  18.294  0.00  0.00    +0.000 A 
ATOM     12  C   UNL     1      11.250  17.209  17.161  0.00  0.00    +0.000 A 
ATOM     13  C   UNL     1      10.980  15.843  17.288  0.00  0.00    +0.000 A 
ATOM     14  C   UNL     1      10.891  15.238  18.550  0.00  0.00    +0.000 A 
BRANCH   9  15
ATOM     15  N   UNL     1      11.104  15.479  20.991  0.00  0.00    +0.000 N 
ATOM     16  H   UNL     1      11.745  15.927  21.636  0.00  0.00    +0.000 HD
ATOM     17  H   UNL     1      11.286  14.480  20.901  0.00  0.00    +0.000 HD
ENDBRANCH   9  15
ENDBRANCH   3  14
ENDBRANCH   2   6
ENDBRANCH   1   2
BRANCH   1  18
ATOM     18  C   UNL     1       8.080   8.370  17.443  0.00  0.00    +0.000 C 
BRANCH  18  19
ATOM     19  C   UNL     1       7.770   7.193  18.362  0.00  0.00    +0.000 C 
BRANCH  19  20
ATOM     20  C   UNL     1       7.231   5.990  17.597  0.00  0.00    +0.000 C 
BRANCH  20  21
ATOM     21  C   UNL     1       5.829   6.256  17.093  0.00  0.00    +0.000 C 
ATOM     22  O   UNL     1       5.585   6.760  16.003  0.00  0.00    +0.000 OA
ATOM     23  N   UNL     1       4.857   5.856  17.976  0.00  0.00    +0.000 N 
ATOM     24  H   UNL     1       5.126   5.360  18.816  0.00  0.00    +0.000 HD
BRANCH  23  25
ATOM     25  C   UNL     1       3.437   5.945  17.665  0.00  0.00    +0.000 C 
ATOM     26  C   UNL     1       2.772   7.169  18.316  0.00  0.00    +0.000 C 
ATOM     27  C   UNL     1       2.651   6.983  19.823  0.00  0.00    +0.000 C 
ATOM     28  C   UNL     1       1.753   5.791  20.144  0.00  0.00    +0.000 C 
ATOM     29  C   UNL     1       2.035   4.572  19.298  0.00  0.00    +0.000 A 
ATOM     30  C   UNL     1       1.488   3.340  19.689  0.00  0.00    +0.000 A 
ATOM     31  C   UNL     1       1.677   2.199  18.909  0.00  0.00    +0.000 A 
ATOM     32  C   UNL     1       2.408   2.275  17.726  0.00  0.00    +0.000 A 
ATOM     33  C   UNL     1       2.953   3.493  17.324  0.00  0.00    +0.000 A 
ATOM     34  C   UNL     1       2.770   4.651  18.100  0.00  0.00    +0.000 A 
ENDBRANCH  23  25
ENDBRANCH  20  21
ENDBRANCH  19  20
ENDBRANCH  18  19
ENDBRANCH   1  18
TORSDOF 9
ENDMDL
MODEL 3
REMARK VINA RESULT:      -7.9      2.724     11.663
REMARK  Name = 
REMARK  9 active torsions:
REMARK  status: ('A' for Active; 'I' for Inactive)
REMARK    1  A    between atoms: N_1  and  C_2
REMARK    2  A    between atoms: C_7  and  N_8
REMARK    3  A    between atoms: N_11  and  C_12
REMARK    4  A    between atoms: C_12  and  C_13
REMARK    5  A    between atoms: C_13  and  C_14
REMARK    6  A    between atoms: C_14  and  C_15
REMARK    7  A    between atoms: C_15  and  C_16
REMARK    8  A    between atoms: C_16  and  C_17
REMARK    9  A    between atoms: N_19  and  C_20
REMARK                            x       y       z     vdW  Elec       q    Type
REMARK                         _______ _______ _______ _____ _____    ______ ____
ROOT
ATOM      1  C   UNL     1       8.971   9.236  18.851  0.00  0.00    +0.000 C 
ENDROOT
BRANCH   1   2
ATOM      2  C   UNL     1       9.313  10.718  19.024  0.00  0.00    +0.000 C 
BRANCH   2   6
ATOM      3  N   UNL     1      10.642  14.095  18.315  0.00  0.00    +0.000 N 
ATOM      4  C   UNL     1       9.206  13.854  18.500  0.00  0.00    +0.000 C 
ATOM      5  C   UNL     1       8.801  12.664  17.591  0.00  0.00    +0.000 C 
ATOM      6  N   UNL     1       9.598  11.419  17.766  0.00  0.00    +0.000 NA
ATOM      7  C   UNL     1      11.044  11.766  17.692  0.00  0.00    +0.000 C 
ATOM      8  C   UNL     1      11.473  12.918  18.635  0.00  0.00    +0.000 C 
BRANCH   3  14
ATOM      9  C   UNL     1      11.190  16.298  17.441  0.00  0.00    +0.000 A 
ATOM     10  C   UNL     1      11.819  17.537  17.584  0.00  0.00    +0.000 A 
ATOM     11  C   UNL     1      12.333  17.923  18.820  0.00  0.00    +0.000 A 
ATOM     12  C   UNL     1      12.264  17.049  19.901  0.00  0.00    +0.000 A 
ATOM     13  C   UNL     1      11.715  15.772  19.741  0.00  0.00    +0.000 A 
ATOM     14  C   UNL     1      11.202  15.355  18.505  0.00  0.00    +0.000 A 
BRANCH   9  15
ATOM     15  N   UNL     1      10.663  15.938  16.174  0.00  0.00    +0.000 N 
ATOM     16  H   UNL     1      11.382  15.637  15.526  0.00  0.00    +0.000 HD
ATOM     17  H   UNL     1      10.139  16.738  15.821  0.00  0.00    +0.000 HD
ENDBRANCH   9  15
ENDBRANCH   3  14
ENDBRANCH   2   6
ENDBRANCH   1   2
BRANCH   1  18
ATOM     18  C   UNL     1       7.824   8.994  17.868  0.00  0.00    +0.000 C 
BRANCH  18  19
ATOM     19  C   UNL     1       7.703   7.501  17.581  0.00  0.00    +0.000 C 
BRANCH  19  20
ATOM     20  C   UNL     1       7.636   6.671  18.857  0.00  0.00    +0.000 C 
BRANCH  20  21
ATOM     21  C   UNL     1       7.140   5.271  18.565  0.00  0.00    +0.000 C 
ATOM     22  O   UNL     1       7.859   4.372  18.144  0.00  0.00    +0.000 OA
ATOM     23  N   UNL     1       5.805   5.108  18.838  0.00  0.00    +0.000 N 
ATOM     24  H   UNL     1       5.293   5.865  19.272  0.00  0.00    +0.000 HD
BRANCH  23  25
ATOM     25  C   UNL     1       5.133   3.822  18.704  0.00  0.00    +0.000 C 
ATOM     26  C   UNL     1       5.076   3.342  17.245  0.00  0.00    +0.000 C 
ATOM     27  C   UNL     1       4.095   4.182  16.435  0.00  0.00    +0.000 C 
ATOM     28  C   UNL     1       2.681   4.032  16.988  0.00  0.00    +0.000 C 
ATOM     29  C   UNL     1       2.605   4.107  18.494  0.00  0.00    +0.000 A 
ATOM     30  C   UNL     1       1.349   4.275  19.098  0.00  0.00    +0.000 A 
ATOM     31  C   UNL     1       1.225   4.295  20.487  0.00  0.00    +0.000 A 
ATOM     32  C   UNL     1       2.352   4.139  21.291  0.00  0.00    +0.000 A 
ATOM     33  C   UNL     1       3.604   3.966  20.704  0.00  0.00    +0.000 A 
ATOM     34  C   UNL     1       3.744   3.944  19.306  0.00  0.00    +0.000 A 
ENDBRANCH  23  25
ENDBRANCH  20  21
ENDBRANCH  19  20
ENDBRANCH  18  19
ENDBRANCH   1  18
TORSDOF 9
ENDMDL
MODEL 4
REMARK VINA RESULT:      -7.9      2.802      3.633
REMARK  Name = 
REMARK  9 active torsions:
REMARK  status: ('A' for Active; 'I' for Inactive)
REMARK    1  A    between atoms: N_1  and  C_2
REMARK    2  A    between atoms: C_7  and  N_8
REMARK    3  A    between atoms: N_11  and  C_12
REMARK    4  A    between atoms: C_12  and  C_13
REMARK    5  A    between atoms: C_13  and  C_14
REMARK    6  A    between atoms: C_14  and  C_15
REMARK    7  A    between atoms: C_15  and  C_16
REMARK    8  A    between atoms: C_16  and  C_17
REMARK    9  A    between atoms: N_19  and  C_20
REMARK                            x       y       z     vdW  Elec       q    Type
REMARK                         _______ _______ _______ _____ _____    ______ ____
ROOT
ATOM      1  C   UNL     1       8.508   8.475  18.103  0.00  0.00    +0.000 C 
ENDROOT
BRANCH   1   2
ATOM      2  C   UNL     1       7.355   7.607  17.596  0.00  0.00    +0.000 C 
BRANCH   2   6
ATOM      3  N   UNL     1       4.991   4.819  18.159  0.00  0.00    +0.000 N 
ATOM      4  C   UNL     1       5.535   5.606  19.272  0.00  0.00    +0.000 C 
ATOM      5  C   UNL     1       7.076   5.669  19.104  0.00  0.00    +0.000 C 
ATOM      6  N   UNL     1       7.561   6.165  17.786  0.00  0.00    +0.000 NA
ATOM      7  C   UNL     1       6.869   5.405  16.709  0.00  0.00    +0.000 C 
ATOM      8  C   UNL     1       5.325   5.379  16.836  0.00  0.00    +0.000 C 
BRANCH   3  14
ATOM      9  C   UNL     1       3.791   2.867  18.976  0.00  0.00    +0.000 A 
ATOM     10  C   UNL     1       2.626   2.098  19.038  0.00  0.00    +0.000 A 
ATOM     11  C   UNL     1       1.425   2.606  18.550  0.00  0.00    +0.000 A 
ATOM     12  C   UNL     1       1.397   3.864  17.954  0.00  0.00    +0.000 A 
ATOM     13  C   UNL     1       2.577   4.601  17.809  0.00  0.00    +0.000 A 
ATOM     14  C   UNL     1       3.801   4.107  18.281  0.00  0.00    +0.000 A 
BRANCH   9  15
ATOM     15  N   UNL     1       4.997   2.329  19.494  0.00  0.00    +0.000 N 
ATOM     16  H   UNL     1       5.817   2.824  19.162  0.00  0.00    +0.000 HD
ATOM     17  H   UNL     1       5.022   1.339  19.250  0.00  0.00    +0.000 HD
ENDBRANCH   9  15
ENDBRANCH   3  14
ENDBRANCH   2   6
ENDBRANCH   1   2
BRANCH   1  18
ATOM     18  C   UNL     1       8.205   9.974  18.046  0.00  0.00    +0.000 C 
BRANCH  18  19
ATOM     19  C   UNL     1       9.494  10.764  18.241  0.00  0.00    +0.000 C 
BRANCH  19  20
ATOM     20  C   UNL     1       9.248  12.115  18.901  0.00  0.00    +0.000 C 
BRANCH  20  21
ATOM     21  C   UNL     1       9.679  12.094  20.352  0.00  0.00    +0.000 C 
ATOM     22  O   UNL     1      10.804  11.774  20.721  0.00  0.00    +0.000 OA
ATOM     23  N   UNL     1       8.684  12.485  21.212  0.00  0.00    +0.000 N 
ATOM     24  H   UNL     1       7.810  12.826  20.835  0.00  0.00    +0.000 HD
BRANCH  23  25
ATOM     25  C   UNL     1       8.899  12.613  22.648  0.00  0.00    +0.000 C 
ATOM     26  C   UNL     1       8.072  11.600  23.455  0.00  0.00    +0.000 C 
ATOM     27  C   UNL     1       6.592  11.962  23.426  0.00  0.00    +0.000 C 
ATOM     28  C   UNL     1       6.362  13.320  24.085  0.00  0.00    +0.000 C 
ATOM     29  C   UNL     1       7.360  14.374  23.670  0.00  0.00    +0.000 A 
ATOM     30  C   UNL     1       7.086  15.717  23.973  0.00  0.00    +0.000 A 
ATOM     31  C   UNL     1       8.004  16.719  23.657  0.00  0.00    +0.000 A 
ATOM     32  C   UNL     1       9.210  16.391  23.043  0.00  0.00    +0.000 A 
ATOM     33  C   UNL     1       9.497  15.062  22.741  0.00  0.00    +0.000 A 
ATOM     34  C   UNL     1       8.582  14.041  23.054  0.00  0.00    +0.000 A 
ENDBRANCH  23  25
ENDBRANCH  20  21
ENDBRANCH  19  20
ENDBRANCH  18  19
ENDBRANCH   1  18
TORSDOF 9
ENDMDL
MODEL 5
REMARK VINA RESULT:      -7.9      2.520     11.214
REMARK  Name = 
REMARK  9 active torsions:
REMARK  status: ('A' for Active; 'I' for Inactive)
REMARK    1  A    between atoms: N_1  and  C_2
REMARK    2  A    between atoms: C_7  and  N_8
REMARK    3  A    between atoms: N_11  and  C_12
REMARK    4  A    between atoms: C_12  and  C_13
REMARK    5  A    between atoms: C_13  and  C_14
REMARK    6  A    between atoms: C_14  and  C_15
REMARK    7  A    between atoms: C_15  and  C_16
REMARK    8  A    between atoms: C_16  and  C_17
REMARK    9  A    between atoms: N_19  and  C_20
REMARK                            x       y       z     vdW  Elec       q    Type
REMARK                         _______ _______ _______ _____ _____    ______ ____
ROOT
ATOM      1  C   UNL     1       8.596   9.740  18.191  0.00  0.00    +0.000 C 
ENDROOT
BRANCH   1   2
ATOM      2  C   UNL     1       9.223  10.440  19.398  0.00  0.00    +0.000 C 
BRANCH   2   6
ATOM      3  N   UNL     1      10.389  13.864  18.631  0.00  0.00    +0.000 N 
ATOM      4  C   UNL     1       9.962  12.940  17.574  0.00  0.00    +0.000 C 
ATOM      5  C   UNL     1      10.702  11.594  17.791  0.00  0.00    +0.000 C 
ATOM      6  N   UNL     1      10.561  10.990  19.145  0.00  0.00    +0.000 NA
ATOM      7  C   UNL     1      10.888  12.026  20.163  0.00  0.00    +0.000 C 
ATOM      8  C   UNL     1      10.115  13.358  19.990  0.00  0.00    +0.000 C 
BRANCH   3  14
ATOM      9  C   UNL     1       9.149  15.935  18.329  0.00  0.00    +0.000 A 
ATOM     10  C   UNL     1       9.124  17.305  18.055  0.00  0.00    +0.000 A 
ATOM     11  C   UNL     1      10.308  18.037  18.040  0.00  0.00    +0.000 A 
ATOM     12  C   UNL     1      11.523  17.391  18.247  0.00  0.00    +0.000 A 
ATOM     13  C   UNL     1      11.563  16.005  18.433  0.00  0.00    +0.000 A 
ATOM     14  C   UNL     1      10.386  15.243  18.441  0.00  0.00    +0.000 A 
BRANCH   9  15
ATOM     15  N   UNL     1       7.926  15.217  18.352  0.00  0.00    +0.000 N 
ATOM     16  H   UNL     1       7.867  14.525  17.614  0.00  0.00    +0.000 HD
ATOM     17  H   UNL     1       7.168  15.899  18.299  0.00  0.00    +0.000 HD
ENDBRANCH   9  15
ENDBRANCH   3  14
ENDBRANCH   2   6
ENDBRANCH   1   2
BRANCH   1  18
ATOM     18  C   UNL     1       8.426   8.232  18.390  0.00  0.00    +0.000 C 
BRANCH  18  19
ATOM     19  C   UNL     1       7.195   7.752  17.629  0.00  0.00    +0.000 C 
BRANCH  19  20
ATOM     20  C   UNL     1       7.175   6.238  17.459  0.00  0.00    +0.000 C 
BRANCH  20  21
ATOM     21  C   UNL     1       5.789   5.755  17.088  0.00  0.00    +0.000 C 
ATOM     22  O   UNL     1       5.546   5.107  16.077  0.00  0.00    +0.000 OA
ATOM     23  N   UNL     1       4.835   6.103  18.011  0.00  0.00    +0.000 N 
ATOM     24  H   UNL     1       5.119   6.556  18.870  0.00  0.00    +0.000 HD
BRANCH  23  25
ATOM     25  C   UNL     1       3.446   5.677  17.896  0.00  0.00    +0.000 C 
ATOM     26  C   UNL     1       2.467   6.860  17.945  0.00  0.00    +0.000 C 
ATOM     27  C   UNL     1       2.396   7.448  19.349  0.00  0.00    +0.000 C 
ATOM     28  C   UNL     1       1.861   6.412  20.335  0.00  0.00    +0.000 C 
ATOM     29  C   UNL     1       2.473   5.042  20.169  0.00  0.00    +0.000 A 
ATOM     30  C   UNL     1       2.286   4.093  21.186  0.00  0.00    +0.000 A 
ATOM     31  C   UNL     1       2.786   2.798  21.051  0.00  0.00    +0.000 A 
ATOM     32  C   UNL     1       3.472   2.432  19.896  0.00  0.00    +0.000 A 
ATOM     33  C   UNL     1       3.661   3.363  18.876  0.00  0.00    +0.000 A 
ATOM     34  C   UNL     1       3.162   4.671  18.998  0.00  0.00    +0.000 A 
ENDBRANCH  23  25
ENDBRANCH  20  21
ENDBRANCH  19  20
ENDBRANCH  18  19
ENDBRANCH   1  18
TORSDOF 9
ENDMDL
MODEL 6
REMARK VINA RESULT:      -7.8      2.790     11.134
REMARK  Name = 
REMARK  9 active torsions:
REMARK  status: ('A' for Active; 'I' for Inactive)
REMARK    1  A    between atoms: N_1  and  C_2
REMARK    2  A    between atoms: C_7  and  N_8
REMARK    3  A    between atoms: N_11  and  C_12
REMARK    4  A    between atoms: C_12  and  C_13
REMARK    5  A    between atoms: C_13  and  C_14
REMARK    6  A    between atoms: C_14  and  C_15
REMARK    7  A    between atoms: C_15  and  C_16
REMARK    8  A    between atoms: C_16  and  C_17
REMARK    9  A    between atoms: N_19  and  C_20
REMARK                            x       y       z     vdW  Elec       q    Type
REMARK                         _______ _______ _______ _____ _____    ______ ____
ROOT
ATOM      1  C   UNL     1       7.786   9.213  17.880  0.00  0.00    +0.000 C 
ENDROOT
BRANCH   1   2
ATOM      2  C   UNL     1       8.712   9.986  18.822  0.00  0.00    +0.000 C 
BRANCH   2   6
ATOM      3  N   UNL     1      10.149  13.247  19.813  0.00  0.00    +0.000 N 
ATOM      4  C   UNL     1       8.853  13.149  19.129  0.00  0.00    +0.000 C 
ATOM      5  C   UNL     1       9.039  12.247  17.881  0.00  0.00    +0.000 C 
ATOM      6  N   UNL     1       9.631  10.906  18.138  0.00  0.00    +0.000 NA
ATOM      7  C   UNL     1      10.871  11.080  18.942  0.00  0.00    +0.000 C 
ATOM      8  C   UNL     1      10.688  11.935  20.221  0.00  0.00    +0.000 C 
BRANCH   3  14
ATOM      9  C   UNL     1      11.415  15.306  20.077  0.00  0.00    +0.000 A 
ATOM     10  C   UNL     1      11.831  16.381  20.867  0.00  0.00    +0.000 A 
ATOM     11  C   UNL     1      11.229  16.618  22.100  0.00  0.00    +0.000 A 
ATOM     12  C   UNL     1      10.245  15.752  22.567  0.00  0.00    +0.000 A 
ATOM     13  C   UNL     1       9.887  14.624  21.822  0.00  0.00    +0.000 A 
ATOM     14  C   UNL     1      10.487  14.355  20.583  0.00  0.00    +0.000 A 
BRANCH   9  15
ATOM     15  N   UNL     1      12.037  15.097  18.820  0.00  0.00    +0.000 N 
ATOM     16  H   UNL     1      11.833  14.184  18.433  0.00  0.00    +0.000 HD
ATOM     17  H   UNL     1      13.039  15.246  18.944  0.00  0.00    +0.000 HD
ENDBRANCH   9  15
ENDBRANCH   3  14
ENDBRANCH   2   6
ENDBRANCH   1   2
BRANCH   1  18
ATOM     18  C   UNL     1       8.265   7.787  17.601  0.00  0.00    +0.000 C 
BRANCH  18  19
ATOM     19  C   UNL     1       7.341   6.793  18.297  0.00  0.00    +0.000 C 
BRANCH  19  20
ATOM     20  C   UNL     1       6.933   5.645  17.382  0.00  0.00    +0.000 C 
BRANCH  20  21
ATOM     21  C   UNL     1       5.502   5.808  16.918  0.00  0.00    +0.000 C 
ATOM     22  O   UNL     1       5.176   5.874  15.738  0.00  0.00    +0.000 OA
ATOM     23  N   UNL     1       4.604   5.857  17.954  0.00  0.00    +0.000 N 
ATOM     24  H   UNL     1       4.931   5.702  18.899  0.00  0.00    +0.000 HD
BRANCH  23  25
ATOM     25  C   UNL     1       3.165   5.934  17.738  0.00  0.00    +0.000 C 
ATOM     26  C   UNL     1       2.545   7.190  18.370  0.00  0.00    +0.000 C 
ATOM     27  C   UNL     1       2.528   7.080  19.890  0.00  0.00    +0.000 C 
ATOM     28  C   UNL     1       1.656   5.907  20.330  0.00  0.00    +0.000 C 
ATOM     29  C   UNL     1       1.881   4.647  19.529  0.00  0.00    +0.000 A 
ATOM     30  C   UNL     1       1.363   3.437  20.018  0.00  0.00    +0.000 A 
ATOM     31  C   UNL     1       1.499   2.259  19.285  0.00  0.00    +0.000 A 
ATOM     32  C   UNL     1       2.147   2.275  18.052  0.00  0.00    +0.000 A 
ATOM     33  C   UNL     1       2.662   3.469  17.554  0.00  0.00    +0.000 A 
ATOM     34  C   UNL     1       2.532   4.665  18.281  0.00  0.00    +0.000 A 
ENDBRANCH  23  25
ENDBRANCH  20  21
ENDBRANCH  19  20
ENDBRANCH  18  19
ENDBRANCH   1  18
TORSDOF 9
ENDMDL
MODEL 7
REMARK VINA RESULT:      -7.8      1.998      2.721
REMARK  Name = 
REMARK  9 active torsions:
REMARK  status: ('A' for Active; 'I' for Inactive)
REMARK    1  A    between atoms: N_1  and  C_2
REMARK    2  A    between atoms: C_7  and  N_8
REMARK    3  A    between atoms: N_11  and  C_12
REMARK    4  A    between atoms: C_12  and  C_13
REMARK    5  A    between atoms: C_13  and  C_14
REMARK    6  A    between atoms: C_14  and  C_15
REMARK    7  A    between atoms: C_15  and  C_16
REMARK    8  A    between atoms: C_16  and  C_17
REMARK    9  A    between atoms: N_19  and  C_20
REMARK                            x       y       z     vdW  Elec       q    Type
REMARK                         _______ _______ _______ _____ _____    ______ ____
ROOT
ATOM      1  C   UNL     1       8.461   8.533  17.589  0.00  0.00    +0.000 C 
ENDROOT
BRANCH   1   2
ATOM      2  C   UNL     1       7.186   7.689  17.652  0.00  0.00    +0.000 C 
BRANCH   2   6
ATOM      3  N   UNL     1       4.903   4.825  18.164  0.00  0.00    +0.000 N 
ATOM      4  C   UNL     1       5.482   5.562  19.293  0.00  0.00    +0.000 C 
ATOM      5  C   UNL     1       7.012   5.667  19.060  0.00  0.00    +0.000 C 
ATOM      6  N   UNL     1       7.427   6.244  17.752  0.00  0.00    +0.000 NA
ATOM      7  C   UNL     1       6.702   5.529  16.666  0.00  0.00    +0.000 C 
ATOM      8  C   UNL     1       5.166   5.464  16.860  0.00  0.00    +0.000 C 
BRANCH   3  14
ATOM      9  C   UNL     1       3.768   2.832  18.973  0.00  0.00    +0.000 A 
ATOM     10  C   UNL     1       2.623   2.034  19.047  0.00  0.00    +0.000 A 
ATOM     11  C   UNL     1       1.400   2.520  18.592  0.00  0.00    +0.000 A 
ATOM     12  C   UNL     1       1.330   3.786  18.018  0.00  0.00    +0.000 A 
ATOM     13  C   UNL     1       2.488   4.554  17.860  0.00  0.00    +0.000 A 
ATOM     14  C   UNL     1       3.733   4.083  18.298  0.00  0.00    +0.000 A 
BRANCH   9  15
ATOM     15  N   UNL     1       4.997   2.315  19.456  0.00  0.00    +0.000 N 
ATOM     16  H   UNL     1       5.470   2.958  20.081  0.00  0.00    +0.000 HD
ATOM     17  H   UNL     1       5.570   2.077  18.647  0.00  0.00    +0.000 HD
ENDBRANCH   9  15
ENDBRANCH   3  14
ENDBRANCH   2   6
ENDBRANCH   1   2
BRANCH   1  18
ATOM     18  C   UNL     1       8.580   9.532  18.743  0.00  0.00    +0.000 C 
BRANCH  18  19
ATOM     19  C   UNL     1       8.790  10.935  18.184  0.00  0.00    +0.000 C 
BRANCH  19  20
ATOM     20  C   UNL     1      10.265  11.271  18.006  0.00  0.00    +0.000 C 
BRANCH  20  21
ATOM     21  C   UNL     1      10.746  12.192  19.107  0.00  0.00    +0.000 C 
ATOM     22  O   UNL     1      11.434  11.819  20.050  0.00  0.00    +0.000 OA
ATOM     23  N   UNL     1      10.345  13.493  18.930  0.00  0.00    +0.000 N 
ATOM     24  H   UNL     1       9.858  13.749  18.081  0.00  0.00    +0.000 HD
BRANCH  23  25
ATOM     25  C   UNL     1      10.757  14.565  19.827  0.00  0.00    +0.000 C 
ATOM     26  C   UNL     1       9.884  14.637  21.090  0.00  0.00    +0.000 C 
ATOM     27  C   UNL     1       8.491  15.158  20.758  0.00  0.00    +0.000 C 
ATOM     28  C   UNL     1       8.570  16.582  20.213  0.00  0.00    +0.000 C 
ATOM     29  C   UNL     1       9.666  16.784  19.194  0.00  0.00    +0.000 A 
ATOM     30  C   UNL     1       9.654  17.951  18.414  0.00  0.00    +0.000 A 
ATOM     31  C   UNL     1      10.675  18.204  17.499  0.00  0.00    +0.000 A 
ATOM     32  C   UNL     1      11.725  17.301  17.357  0.00  0.00    +0.000 A 
ATOM     33  C   UNL     1      11.752  16.140  18.128  0.00  0.00    +0.000 A 
ATOM     34  C   UNL     1      10.729  15.871  19.055  0.00  0.00    +0.000 A 
ENDBRANCH  23  25
ENDBRANCH  20  21
ENDBRANCH  19  20
ENDBRANCH  18  19
ENDBRANCH   1  18
TORSDOF 9
ENDMDL
MODEL 8
REMARK VINA RESULT:      -7.8      5.235      7.675
REMARK  Name = 
REMARK  9 active torsions:
REMARK  status: ('A' for Active; 'I' for Inactive)
REMARK    1  A    between atoms: N_1  and  C_2
REMARK    2  A    between atoms: C_7  and  N_8
REMARK    3  A    between atoms: N_11  and  C_12
REMARK    4  A    between atoms: C_12  and  C_13
REMARK    5  A    between atoms: C_13  and  C_14
REMARK    6  A    between atoms: C_14  and  C_15
REMARK    7  A    between atoms: C_15  and  C_16
REMARK    8  A    between atoms: C_16  and  C_17
REMARK    9  A    between atoms: N_19  and  C_20
REMARK                            x       y       z     vdW  Elec       q    Type
REMARK                         _______ _______ _______ _____ _____    ______ ____
ROOT
ATOM      1  C   UNL     1       2.118   3.861  20.831  0.00  0.00    +0.000 C 
ENDROOT
BRANCH   1   2
ATOM      2  C   UNL     1       1.534   2.634  20.128  0.00  0.00    +0.000 C 
BRANCH   2   6
ATOM      3  N   UNL     1       4.295   3.901  18.020  0.00  0.00    +0.000 N 
ATOM      4  C   UNL     1       2.913   3.842  17.528  0.00  0.00    +0.000 C 
ATOM      5  C   UNL     1       2.367   2.418  17.812  0.00  0.00    +0.000 C 
ATOM      6  N   UNL     1       2.473   1.957  19.224  0.00  0.00    +0.000 NA
ATOM      7  C   UNL     1       3.871   2.167  19.689  0.00  0.00    +0.000 C 
ATOM      8  C   UNL     1       4.411   3.601  19.460  0.00  0.00    +0.000 C 
BRANCH   3  14
ATOM      9  C   UNL     1       6.030   4.323  16.367  0.00  0.00    +0.000 A 
ATOM     10  C   UNL     1       7.033   5.142  15.845  0.00  0.00    +0.000 A 
ATOM     11  C   UNL     1       7.165   6.456  16.286  0.00  0.00    +0.000 A 
ATOM     12  C   UNL     1       6.326   6.937  17.287  0.00  0.00    +0.000 A 
ATOM     13  C   UNL     1       5.378   6.094  17.877  0.00  0.00    +0.000 A 
ATOM     14  C   UNL     1       5.233   4.764  17.460  0.00  0.00    +0.000 A 
BRANCH   9  15
ATOM     15  N   UNL     1       5.910   2.993  15.888  0.00  0.00    +0.000 N 
ATOM     16  H   UNL     1       5.774   2.322  16.635  0.00  0.00    +0.000 HD
ATOM     17  H   UNL     1       6.744   2.789  15.337  0.00  0.00    +0.000 HD
ENDBRANCH   9  15
ENDBRANCH   3  14
ENDBRANCH   2   6
ENDBRANCH   1   2
BRANCH   1  18
ATOM     18  C   UNL     1       1.255   5.115  20.671  0.00  0.00    +0.000 C 
BRANCH  18  19
ATOM     19  C   UNL     1       2.109   6.258  20.135  0.00  0.00    +0.000 C 
BRANCH  19  20
ATOM     20  C   UNL     1       1.613   7.619  20.607  0.00  0.00    +0.000 C 
BRANCH  20  21
ATOM     21  C   UNL     1       1.622   8.621  19.472  0.00  0.00    +0.000 C 
ATOM     22  O   UNL     1       2.266   8.469  18.440  0.00  0.00    +0.000 OA
ATOM     23  N   UNL     1       0.820   9.708  19.710  0.00  0.00    +0.000 N 
ATOM     24  H   UNL     1       0.242   9.724  20.541  0.00  0.00    +0.000 HD
BRANCH  23  25
ATOM     25  C   UNL     1       0.617  10.759  18.722  0.00  0.00    +0.000 C 
ATOM     26  C   UNL     1       1.127  12.125  19.209  0.00  0.00    +0.000 C 
ATOM     27  C   UNL     1       0.225  12.682  20.303  0.00  0.00    +0.000 C 
ATOM     28  C   UNL     1      -1.183  12.922  19.765  0.00  0.00    +0.000 C 
ATOM     29  C   UNL     1      -1.711  11.789  18.917  0.00  0.00    +0.000 A 
ATOM     30  C   UNL     1      -3.081  11.758  18.612  0.00  0.00    +0.000 A 
ATOM     31  C   UNL     1      -3.603  10.761  17.789  0.00  0.00    +0.000 A 
ATOM     32  C   UNL     1      -2.763   9.788  17.252  0.00  0.00    +0.000 A 
ATOM     33  C   UNL     1      -1.401   9.809  17.543  0.00  0.00    +0.000 A 
ATOM     34  C   UNL     1      -0.860  10.808  18.372  0.00  0.00    +0.000 A 
ENDBRANCH  23  25
ENDBRANCH  20  21
ENDBRANCH  19  20
ENDBRANCH  18  19
ENDBRANCH   1  18
TORSDOF 9
ENDMDL
MODEL 9
REMARK VINA RESULT:      -7.7      1.609      1.819
REMARK  Name = 
REMARK  9 active torsions:
REMARK  status: ('A' for Active; 'I' for Inactive)
REMARK    1  A    between atoms: N_1  and  C_2
REMARK    2  A    between atoms: C_7  and  N_8
REMARK    3  A    between atoms: N_11  and  C_12
REMARK    4  A    between atoms: C_12  and  C_13
REMARK    5  A    between atoms: C_13  and  C_14
REMARK    6  A    between atoms: C_14  and  C_15
REMARK    7  A    between atoms: C_15  and  C_16
REMARK    8  A    between atoms: C_16  and  C_17
REMARK    9  A    between atoms: N_19  and  C_20
REMARK                            x       y       z     vdW  Elec       q    Type
REMARK                         _______ _______ _______ _____ _____    ______ ____
ROOT
ATOM      1  C   UNL     1       7.250   8.000  17.788  0.00  0.00    +0.000 C 
ENDROOT
BRANCH   1   2
ATOM      2  C   UNL     1       7.363   6.784  16.867  0.00  0.00    +0.000 C 
BRANCH   2   6
ATOM      3  N   UNL     1       4.872   4.343  18.096  0.00  0.00    +0.000 N 
ATOM      4  C   UNL     1       5.306   5.481  18.915  0.00  0.00    +0.000 C 
ATOM      5  C   UNL     1       6.857   5.502  18.918  0.00  0.00    +0.000 C 
ATOM      6  N   UNL     1       7.504   5.505  17.577  0.00  0.00    +0.000 NA
ATOM      7  C   UNL     1       6.920   4.404  16.764  0.00  0.00    +0.000 C 
ATOM      8  C   UNL     1       5.372   4.403  16.709  0.00  0.00    +0.000 C 
BRANCH   3  14
ATOM      9  C   UNL     1       3.617   2.521  19.108  0.00  0.00    +0.000 A 
ATOM     10  C   UNL     1       2.421   1.819  19.275  0.00  0.00    +0.000 A 
ATOM     11  C   UNL     1       1.225   2.350  18.799  0.00  0.00    +0.000 A 
ATOM     12  C   UNL     1       1.230   3.559  18.111  0.00  0.00    +0.000 A 
ATOM     13  C   UNL     1       2.436   4.223  17.862  0.00  0.00    +0.000 A 
ATOM     14  C   UNL     1       3.655   3.703  18.319  0.00  0.00    +0.000 A 
BRANCH   9  15
ATOM     15  N   UNL     1       4.818   1.962  19.615  0.00  0.00    +0.000 N 
ATOM     16  H   UNL     1       4.738   1.686  20.587  0.00  0.00    +0.000 HD
ATOM     17  H   UNL     1       5.560   2.646  19.471  0.00  0.00    +0.000 HD
ENDBRANCH   9  15
ENDBRANCH   3  14
ENDBRANCH   2   6
ENDBRANCH   1   2
BRANCH   1  18
ATOM     18  C   UNL     1       8.581   8.394  18.432  0.00  0.00    +0.000 C 
BRANCH  18  19
ATOM     19  C   UNL     1       8.836   9.882  18.211  0.00  0.00    +0.000 C 
BRANCH  19  20
ATOM     20  C   UNL     1       9.353  10.572  19.466  0.00  0.00    +0.000 C 
BRANCH  20  21
ATOM     21  C   UNL     1       9.678  12.024  19.189  0.00  0.00    +0.000 C 
ATOM     22  O   UNL     1      10.153  12.422  18.131  0.00  0.00    +0.000 OA
ATOM     23  N   UNL     1       9.369  12.853  20.238  0.00  0.00    +0.000 N 
ATOM     24  H   UNL     1       8.892  12.473  21.045  0.00  0.00    +0.000 HD
BRANCH  23  25
ATOM     25  C   UNL     1       9.527  14.299  20.162  0.00  0.00    +0.000 C 
ATOM     26  C   UNL     1      10.256  14.872  21.388  0.00  0.00    +0.000 C 
ATOM     27  C   UNL     1       9.366  14.817  22.624  0.00  0.00    +0.000 C 
ATOM     28  C   UNL     1       8.124  15.682  22.426  0.00  0.00    +0.000 C 
ATOM     29  C   UNL     1       7.474  15.512  21.074  0.00  0.00    +0.000 A 
ATOM     30  C   UNL     1       6.180  16.021  20.880  0.00  0.00    +0.000 A 
ATOM     31  C   UNL     1       5.562  15.935  19.633  0.00  0.00    +0.000 A 
ATOM     32  C   UNL     1       6.231  15.348  18.561  0.00  0.00    +0.000 A 
ATOM     33  C   UNL     1       7.517  14.842  18.739  0.00  0.00    +0.000 A 
ATOM     34  C   UNL     1       8.153  14.922  19.990  0.00  0.00    +0.000 A 
ENDBRANCH  23  25
ENDBRANCH  20  21
ENDBRANCH  19  20
ENDBRANCH  18  19
ENDBRANCH   1  18
TORSDOF 9
ENDMDL
