MODEL 1
REMARK VINA RESULT:      -7.9      0.000      0.000
REMARK  Name = 
REMARK  4 active torsions:
REMARK  status: ('A' for Active; 'I' for Inactive)
REMARK    1  A    between atoms: C_1  and  N_2
REMARK    2  A    between atoms: C_3  and  C_4
REMARK    3  A    between atoms: N_6  and  C_7
REMARK    4  A    between atoms: C_7  and  C_8
REMARK                            x       y       z     vdW  Elec       q    Type
REMARK                         _______ _______ _______ _____ _____    ______ ____
ROOT
ATOM      1  C   UNL     1      -1.996  14.628  21.654  0.00  0.00    +0.000 C 
ATOM      2  N   UNL     1      -1.656  13.247  21.323  0.00  0.00    +0.000 NA
ATOM      3  C   UNL     1      -2.754  12.261  21.509  0.00  0.00    +0.000 C 
ATOM      4  C   UNL     1      -2.734  12.010  23.001  0.00  0.00    +0.000 C 
ATOM      5  C   UNL     1      -1.223  11.877  23.277  0.00  0.00    +0.000 C 
ATOM      6  C   UNL     1      -0.695  10.425  23.098  0.00  0.00    +0.000 C 
ATOM      7  N   UNL     1       0.126  10.485  21.908  0.00  0.00    +0.000 N 
ATOM      8  C   UNL     1       0.212  11.730  21.369  0.00  0.00    +0.000 A 
ATOM      9  N   UNL     1       0.769  11.711  20.185  0.00  0.00    +0.000 NA
ATOM     10  C   UNL     1       1.065  10.380  19.982  0.00  0.00    +0.000 A 
ATOM     11  C   UNL     1       1.630   9.774  18.856  0.00  0.00    +0.000 A 
ATOM     12  C   UNL     1       1.961   8.414  18.913  0.00  0.00    +0.000 A 
ATOM     13  C   UNL     1       2.596   7.822  17.822  0.00  0.00    +0.000 A 
ATOM     14  C   UNL     1       3.355   6.676  18.008  0.00  0.00    +0.000 A 
ATOM     15  C   UNL     1       3.230   5.958  19.190  0.00  0.00    +0.000 A 
ATOM     16  C   UNL     1       2.331   6.389  20.173  0.00  0.00    +0.000 A 
ATOM     17  C   UNL     1       1.740   7.662  20.089  0.00  0.00    +0.000 A 
ATOM     18  C   UNL     1       0.994   8.219  21.153  0.00  0.00    +0.000 A 
ATOM     19  C   UNL     1       0.713   9.590  21.082  0.00  0.00    +0.000 A 
ATOM     20  C   UNL     1      -0.555  12.737  22.150  0.00  0.00    +0.000 C 
ENDROOT
BRANCH   3  21
ATOM     21  C   UNL     1      -4.064  12.654  20.812  0.00  0.00    +0.000 C 
ATOM     22  O   UNL     1      -5.128  12.798  21.410  0.00  0.00    +0.000 OA
ATOM     23  N   UNL     1      -3.987  12.772  19.440  0.00  0.00    +0.000 N 
ATOM     24  H   UNL     1      -4.857  12.962  18.966  0.00  0.00    +0.000 HD
BRANCH  23  25
ATOM     25  C   UNL     1      -2.774  12.625  18.640  0.00  0.00    +0.000 C 
BRANCH  25  26
ATOM     26  C   UNL     1      -2.901  11.541  17.614  0.00  0.00    +0.000 A 
ATOM     27  C   UNL     1      -3.978  11.562  16.717  0.00  0.00    +0.000 A 
ATOM     28  C   UNL     1      -4.084  10.589  15.731  0.00  0.00    +0.000 A 
ATOM     29  C   UNL     1      -3.116   9.579  15.639  0.00  0.00    +0.000 A 
ATOM     30  C   UNL     1      -2.056   9.541  16.535  0.00  0.00    +0.000 A 
ATOM     31  C   UNL     1      -1.937  10.509  17.525  0.00  0.00    +0.000 A 
ENDBRANCH  25  26
ENDBRANCH  23  25
ENDBRANCH   3  21
TORSDOF 3
ENDMDL
MODEL 2
REMARK VINA RESULT:      -7.7      5.313      9.634
REMARK  Name = 
REMARK  4 active torsions:
REMARK  status: ('A' for Active; 'I' for Inactive)
REMARK    1  A    between atoms: C_1  and  N_2
REMARK    2  A    between atoms: C_3  and  C_4
REMARK    3  A    between atoms: N_6  and  C_7
REMARK    4  A    between atoms: C_7  and  C_8
REMARK                            x       y       z     vdW  Elec       q    Type
REMARK                         _______ _______ _______ _____ _____    ______ ____
ROOT
ATOM      1  C   UNL     1       6.687   4.830  16.334  0.00  0.00    +0.000 C 
ATOM      2  N   UNL     1       5.892   5.674  17.220  0.00  0.00    +0.000 NA
ATOM      3  C   UNL     1       6.257   5.605  18.661  0.00  0.00    +0.000 C 
ATOM      4  C   UNL     1       5.586   4.327  19.118  0.00  0.00    +0.000 C 
ATOM      5  C   UNL     1       4.202   4.442  18.448  0.00  0.00    +0.000 C 
ATOM      6  C   UNL     1       3.165   5.212  19.316  0.00  0.00    +0.000 C 
ATOM      7  N   UNL     1       2.958   6.456  18.608  0.00  0.00    +0.000 N 
ATOM      8  C   UNL     1       3.660   6.546  17.448  0.00  0.00    +0.000 A 
ATOM      9  N   UNL     1       3.627   7.756  16.950  0.00  0.00    +0.000 NA
ATOM     10  C   UNL     1       2.843   8.457  17.842  0.00  0.00    +0.000 A 
ATOM     11  C   UNL     1       2.511   9.815  17.830  0.00  0.00    +0.000 A 
ATOM     12  C   UNL     1       1.593  10.295  18.772  0.00  0.00    +0.000 A 
ATOM     13  C   UNL     1       1.197  11.631  18.717  0.00  0.00    +0.000 A 
ATOM     14  C   UNL     1      -0.016  12.012  19.272  0.00  0.00    +0.000 A 
ATOM     15  C   UNL     1      -0.673  11.146  20.137  0.00  0.00    +0.000 A 
ATOM     16  C   UNL     1      -0.100   9.908  20.448  0.00  0.00    +0.000 A 
ATOM     17  C   UNL     1       0.998   9.426  19.715  0.00  0.00    +0.000 A 
ATOM     18  C   UNL     1       1.477   8.103  19.855  0.00  0.00    +0.000 A 
ATOM     19  C   UNL     1       2.366   7.643  18.874  0.00  0.00    +0.000 A 
ATOM     20  C   UNL     1       4.466   5.325  17.181  0.00  0.00    +0.000 C 
ENDROOT
BRANCH   3  21
ATOM     21  C   UNL     1       7.750   5.830  18.933  0.00  0.00    +0.000 C 
ATOM     22  O   UNL     1       8.469   4.992  19.472  0.00  0.00    +0.000 OA
ATOM     23  N   UNL     1       8.228   7.077  18.589  0.00  0.00    +0.000 N 
ATOM     24  H   UNL     1       9.192   7.259  18.828  0.00  0.00    +0.000 HD
BRANCH  23  25
ATOM     25  C   UNL     1       7.457   8.135  17.942  0.00  0.00    +0.000 C 
BRANCH  25  26
ATOM     26  C   UNL     1       8.085   9.484  18.123  0.00  0.00    +0.000 A 
ATOM     27  C   UNL     1       9.146   9.636  19.025  0.00  0.00    +0.000 A 
ATOM     28  C   UNL     1       9.767  10.870  19.169  0.00  0.00    +0.000 A 
ATOM     29  C   UNL     1       9.326  11.967  18.416  0.00  0.00    +0.000 A 
ATOM     30  C   UNL     1       8.263  11.829  17.533  0.00  0.00    +0.000 A 
ATOM     31  C   UNL     1       7.634  10.599  17.378  0.00  0.00    +0.000 A 
ENDBRANCH  25  26
ENDBRANCH  23  25
ENDBRANCH   3  21
TORSDOF 3
ENDMDL
MODEL 3
REMARK VINA RESULT:      -7.6      2.015      3.821
REMARK  Name = 
REMARK  4 active torsions:
REMARK  status: ('A' for Active; 'I' for Inactive)
REMARK    1  A    between atoms: C_1  and  N_2
REMARK    2  A    between atoms: C_3  and  C_4
REMARK    3  A    between atoms: N_6  and  C_7
REMARK    4  A    between atoms: C_7  and  C_8
REMARK                            x       y       z     vdW  Elec       q    Type
REMARK                         _______ _______ _______ _____ _____    ______ ____
ROOT
ATOM      1  C   UNL     1      -0.434  13.381  18.266  0.00  0.00    +0.000 C 
ATOM      2  N   UNL     1      -0.301  11.959  18.565  0.00  0.00    +0.000 NA
ATOM      3  C   UNL     1      -1.508  11.317  19.150  0.00  0.00    +0.000 C 
ATOM      4  C   UNL     1      -1.438  11.728  20.605  0.00  0.00    +0.000 C 
ATOM      5  C   UNL     1       0.055  11.509  20.921  0.00  0.00    +0.000 C 
ATOM      6  C   UNL     1       0.374  10.060  21.389  0.00  0.00    +0.000 C 
ATOM      7  N   UNL     1       1.127   9.487  20.296  0.00  0.00    +0.000 N 
ATOM      8  C   UNL     1       1.348  10.354  19.273  0.00  0.00    +0.000 A 
ATOM      9  N   UNL     1       1.830   9.751  18.217  0.00  0.00    +0.000 NA
ATOM     10  C   UNL     1       1.934   8.433  18.610  0.00  0.00    +0.000 A 
ATOM     11  C   UNL     1       2.349   7.329  17.859  0.00  0.00    +0.000 A 
ATOM     12  C   UNL     1       2.498   6.093  18.499  0.00  0.00    +0.000 A 
ATOM     13  C   UNL     1       2.986   5.006  17.774  0.00  0.00    +0.000 A 
ATOM     14  C   UNL     1       3.595   3.953  18.441  0.00  0.00    +0.000 A 
ATOM     15  C   UNL     1       3.441   3.836  19.817  0.00  0.00    +0.000 A 
ATOM     16  C   UNL     1       2.665   4.771  20.511  0.00  0.00    +0.000 A 
ATOM     17  C   UNL     1       2.246   5.956  19.883  0.00  0.00    +0.000 A 
ATOM     18  C   UNL     1       1.641   7.016  20.598  0.00  0.00    +0.000 A 
ATOM     19  C   UNL     1       1.542   8.250  19.940  0.00  0.00    +0.000 A 
ATOM     20  C   UNL     1       0.768  11.697  19.539  0.00  0.00    +0.000 C 
ENDROOT
BRANCH   3  21
ATOM     21  C   UNL     1      -2.791  11.559  18.343  0.00  0.00    +0.000 C 
ATOM     22  O   UNL     1      -2.947  11.161  17.191  0.00  0.00    +0.000 OA
ATOM     23  N   UNL     1      -3.749  12.323  18.978  0.00  0.00    +0.000 N 
ATOM     24  H   UNL     1      -4.566  12.546  18.431  0.00  0.00    +0.000 HD
BRANCH  23  25
ATOM     25  C   UNL     1      -3.660  12.837  20.342  0.00  0.00    +0.000 C 
BRANCH  25  26
ATOM     26  C   UNL     1      -4.954  12.699  21.084  0.00  0.00    +0.000 A 
ATOM     27  C   UNL     1      -6.055  12.109  20.448  0.00  0.00    +0.000 A 
ATOM     28  C   UNL     1      -7.247  11.933  21.139  0.00  0.00    +0.000 A 
ATOM     29  C   UNL     1      -7.352  12.354  22.472  0.00  0.00    +0.000 A 
ATOM     30  C   UNL     1      -6.271  12.955  23.104  0.00  0.00    +0.000 A 
ATOM     31  C   UNL     1      -5.072  13.136  22.424  0.00  0.00    +0.000 A 
ENDBRANCH  25  26
ENDBRANCH  23  25
ENDBRANCH   3  21
TORSDOF 3
ENDMDL
MODEL 4
REMARK VINA RESULT:      -7.2      5.022      8.980
REMARK  Name = 
REMARK  4 active torsions:
REMARK  status: ('A' for Active; 'I' for Inactive)
REMARK    1  A    between atoms: C_1  and  N_2
REMARK    2  A    between atoms: C_3  and  C_4
REMARK    3  A    between atoms: N_6  and  C_7
REMARK    4  A    between atoms: C_7  and  C_8
REMARK                            x       y       z     vdW  Elec       q    Type
REMARK                         _______ _______ _______ _____ _____    ______ ____
ROOT
ATOM      1  C   UNL     1       2.858   1.964  17.890  0.00  0.00    +0.000 C 
ATOM      2  N   UNL     1       2.889   3.306  18.465  0.00  0.00    +0.000 NA
ATOM      3  C   UNL     1       3.609   3.425  19.761  0.00  0.00    +0.000 C 
ATOM      4  C   UNL     1       2.592   2.917  20.760  0.00  0.00    +0.000 C 
ATOM      5  C   UNL     1       1.302   3.606  20.274  0.00  0.00    +0.000 C 
ATOM      6  C   UNL     1       1.094   5.019  20.890  0.00  0.00    +0.000 C 
ATOM      7  N   UNL     1       1.296   5.927  19.783  0.00  0.00    +0.000 N 
ATOM      8  C   UNL     1       1.548   5.300  18.604  0.00  0.00    +0.000 A 
ATOM      9  N   UNL     1       1.943   6.139  17.681  0.00  0.00    +0.000 NA
ATOM     10  C   UNL     1       1.917   7.363  18.314  0.00  0.00    +0.000 A 
ATOM     11  C   UNL     1       2.290   8.613  17.813  0.00  0.00    +0.000 A 
ATOM     12  C   UNL     1       2.064   9.752  18.596  0.00  0.00    +0.000 A 
ATOM     13  C   UNL     1       2.362  11.009  18.071  0.00  0.00    +0.000 A 
ATOM     14  C   UNL     1       1.725  12.133  18.576  0.00  0.00    +0.000 A 
ATOM     15  C   UNL     1       1.044  12.047  19.785  0.00  0.00    +0.000 A 
ATOM     16  C   UNL     1       1.020  10.835  20.483  0.00  0.00    +0.000 A 
ATOM     17  C   UNL     1       1.459   9.649  19.869  0.00  0.00    +0.000 A 
ATOM     18  C   UNL     1       1.263   8.378  20.457  0.00  0.00    +0.000 A 
ATOM     19  C   UNL     1       1.462   7.261  19.634  0.00  0.00    +0.000 A 
ATOM     20  C   UNL     1       1.540   3.819  18.740  0.00  0.00    +0.000 C 
ENDROOT
BRANCH   3  21
ATOM     21  C   UNL     1       5.026   2.838  19.738  0.00  0.00    +0.000 C 
ATOM     22  O   UNL     1       5.288   1.696  20.109  0.00  0.00    +0.000 OA
ATOM     23  N   UNL     1       6.016   3.708  19.331  0.00  0.00    +0.000 N 
ATOM     24  H   UNL     1       6.960   3.354  19.379  0.00  0.00    +0.000 HD
BRANCH  23  25
ATOM     25  C   UNL     1       5.808   5.078  18.869  0.00  0.00    +0.000 C 
BRANCH  25  26
ATOM     26  C   UNL     1       5.807   5.176  17.374  0.00  0.00    +0.000 A 
ATOM     27  C   UNL     1       6.303   4.110  16.611  0.00  0.00    +0.000 A 
ATOM     28  C   UNL     1       6.266   4.169  15.224  0.00  0.00    +0.000 A 
ATOM     29  C   UNL     1       5.739   5.300  14.585  0.00  0.00    +0.000 A 
ATOM     30  C   UNL     1       5.261   6.368  15.334  0.00  0.00    +0.000 A 
ATOM     31  C   UNL     1       5.291   6.321  16.723  0.00  0.00    +0.000 A 
ENDBRANCH  25  26
ENDBRANCH  23  25
ENDBRANCH   3  21
TORSDOF 3
ENDMDL
MODEL 5
REMARK VINA RESULT:      -7.0      2.162      4.152
REMARK  Name = 
REMARK  4 active torsions:
REMARK  status: ('A' for Active; 'I' for Inactive)
REMARK    1  A    between atoms: C_1  and  N_2
REMARK    2  A    between atoms: C_3  and  C_4
REMARK    3  A    between atoms: N_6  and  C_7
REMARK    4  A    between atoms: C_7  and  C_8
REMARK                            x       y       z     vdW  Elec       q    Type
REMARK                         _______ _______ _______ _____ _____    ______ ____
ROOT
ATOM      1  C   UNL     1       0.309  12.647  18.405  0.00  0.00    +0.000 C 
ATOM      2  N   UNL     1       0.279  11.220  18.710  0.00  0.00    +0.000 NA
ATOM      3  C   UNL     1      -1.010  10.713  19.253  0.00  0.00    +0.000 C 
ATOM      4  C   UNL     1      -0.945  11.119  20.709  0.00  0.00    +0.000 C 
ATOM      5  C   UNL     1       0.504  10.743  21.076  0.00  0.00    +0.000 C 
ATOM      6  C   UNL     1       0.650   9.270  21.555  0.00  0.00    +0.000 C 
ATOM      7  N   UNL     1       1.374   8.616  20.488  0.00  0.00    +0.000 N 
ATOM      8  C   UNL     1       1.721   9.451  19.473  0.00  0.00    +0.000 A 
ATOM      9  N   UNL     1       2.171   8.795  18.434  0.00  0.00    +0.000 NA
ATOM     10  C   UNL     1       2.121   7.475  18.830  0.00  0.00    +0.000 A 
ATOM     11  C   UNL     1       2.440   6.331  18.094  0.00  0.00    +0.000 A 
ATOM     12  C   UNL     1       2.435   5.088  18.739  0.00  0.00    +0.000 A 
ATOM     13  C   UNL     1       2.827   3.952  18.031  0.00  0.00    +0.000 A 
ATOM     14  C   UNL     1       3.298   2.843  18.718  0.00  0.00    +0.000 A 
ATOM     15  C   UNL     1       3.086   2.748  20.088  0.00  0.00    +0.000 A 
ATOM     16  C   UNL     1       2.391   3.763  20.756  0.00  0.00    +0.000 A 
ATOM     17  C   UNL     1       2.122   4.985  20.113  0.00  0.00    +0.000 A 
ATOM     18  C   UNL     1       1.611   6.105  20.807  0.00  0.00    +0.000 A 
ATOM     19  C   UNL     1       1.666   7.340  20.147  0.00  0.00    +0.000 A 
ATOM     20  C   UNL     1       1.279  10.849  19.719  0.00  0.00    +0.000 C 
ENDROOT
BRANCH   3  21
ATOM     21  C   UNL     1      -2.231  11.088  18.403  0.00  0.00    +0.000 C 
ATOM     22  O   UNL     1      -2.462  10.594  17.302  0.00  0.00    +0.000 OA
ATOM     23  N   UNL     1      -3.031  12.080  18.930  0.00  0.00    +0.000 N 
ATOM     24  H   UNL     1      -3.798  12.383  18.347  0.00  0.00    +0.000 HD
BRANCH  23  25
ATOM     25  C   UNL     1      -2.844  12.724  20.227  0.00  0.00    +0.000 C 
BRANCH  25  26
ATOM     26  C   UNL     1      -4.101  12.728  21.043  0.00  0.00    +0.000 A 
ATOM     27  C   UNL     1      -4.035  13.024  22.411  0.00  0.00    +0.000 A 
ATOM     28  C   UNL     1      -5.196  13.076  23.171  0.00  0.00    +0.000 A 
ATOM     29  C   UNL     1      -6.437  12.823  22.569  0.00  0.00    +0.000 A 
ATOM     30  C   UNL     1      -6.510  12.512  21.218  0.00  0.00    +0.000 A 
ATOM     31  C   UNL     1      -5.355  12.458  20.446  0.00  0.00    +0.000 A 
ENDBRANCH  25  26
ENDBRANCH  23  25
ENDBRANCH   3  21
TORSDOF 3
ENDMDL
MODEL 6
REMARK VINA RESULT:      -6.8      3.293      4.735
REMARK  Name = 
REMARK  4 active torsions:
REMARK  status: ('A' for Active; 'I' for Inactive)
REMARK    1  A    between atoms: C_1  and  N_2
REMARK    2  A    between atoms: C_3  and  C_4
REMARK    3  A    between atoms: N_6  and  C_7
REMARK    4  A    between atoms: C_7  and  C_8
REMARK                            x       y       z     vdW  Elec       q    Type
REMARK                         _______ _______ _______ _____ _____    ______ ____
ROOT
ATOM      1  C   UNL     1      -6.752  14.852  21.679  0.00  0.00    +0.000 C 
ATOM      2  N   UNL     1      -5.387  14.374  21.486  0.00  0.00    +0.000 NA
ATOM      3  C   UNL     1      -5.180  12.924  21.741  0.00  0.00    +0.000 C 
ATOM      4  C   UNL     1      -5.091  12.857  23.251  0.00  0.00    +0.000 C 
ATOM      5  C   UNL     1      -4.181  14.060  23.566  0.00  0.00    +0.000 C 
ATOM      6  C   UNL     1      -2.667  13.707  23.533  0.00  0.00    +0.000 C 
ATOM      7  N   UNL     1      -2.165  14.386  22.358  0.00  0.00    +0.000 N 
ATOM      8  C   UNL     1      -3.108  15.116  21.707  0.00  0.00    +0.000 A 
ATOM      9  N   UNL     1      -2.684  15.531  20.541  0.00  0.00    +0.000 NA
ATOM     10  C   UNL     1      -1.395  15.049  20.468  0.00  0.00    +0.000 A 
ATOM     11  C   UNL     1      -0.482  15.153  19.415  0.00  0.00    +0.000 A 
ATOM     12  C   UNL     1       0.826  14.693  19.604  0.00  0.00    +0.000 A 
ATOM     13  C   UNL     1       1.763  14.864  18.585  0.00  0.00    +0.000 A 
ATOM     14  C   UNL     1       3.115  14.884  18.891  0.00  0.00    +0.000 A 
ATOM     15  C   UNL     1       3.541  14.430  20.133  0.00  0.00    +0.000 A 
ATOM     16  C   UNL     1       2.605  13.946  21.054  0.00  0.00    +0.000 A 
ATOM     17  C   UNL     1       1.229  14.140  20.841  0.00  0.00    +0.000 A 
ATOM     18  C   UNL     1       0.265  13.854  21.834  0.00  0.00    +0.000 A 
ATOM     19  C   UNL     1      -1.026  14.362  21.630  0.00  0.00    +0.000 A 
ATOM     20  C   UNL     1      -4.434  15.049  22.377  0.00  0.00    +0.000 C 
ENDROOT
BRANCH   3  21
ATOM     21  C   UNL     1      -6.159  12.015  20.987  0.00  0.00    +0.000 C 
ATOM     22  O   UNL     1      -7.065  11.396  21.540  0.00  0.00    +0.000 OA
ATOM     23  N   UNL     1      -5.915  11.882  19.636  0.00  0.00    +0.000 N 
ATOM     24  H   UNL     1      -6.511  11.233  19.143  0.00  0.00    +0.000 HD
BRANCH  23  25
ATOM     25  C   UNL     1      -4.871  12.576  18.887  0.00  0.00    +0.000 C 
BRANCH  25  26
ATOM     26  C   UNL     1      -3.709  11.683  18.576  0.00  0.00    +0.000 A 
ATOM     27  C   UNL     1      -3.885  10.602  17.702  0.00  0.00    +0.000 A 
ATOM     28  C   UNL     1      -2.806   9.792  17.369  0.00  0.00    +0.000 A 
ATOM     29  C   UNL     1      -1.541  10.053  17.915  0.00  0.00    +0.000 A 
ATOM     30  C   UNL     1      -1.363  11.112  18.794  0.00  0.00    +0.000 A 
ATOM     31  C   UNL     1      -2.434  11.931  19.135  0.00  0.00    +0.000 A 
ENDBRANCH  25  26
ENDBRANCH  23  25
ENDBRANCH   3  21
TORSDOF 3
ENDMDL
MODEL 7
REMARK VINA RESULT:      -6.8      2.279      3.793
REMARK  Name = 
REMARK  4 active torsions:
REMARK  status: ('A' for Active; 'I' for Inactive)
REMARK    1  A    between atoms: C_1  and  N_2
REMARK    2  A    between atoms: C_3  and  C_4
REMARK    3  A    between atoms: N_6  and  C_7
REMARK    4  A    between atoms: C_7  and  C_8
REMARK                            x       y       z     vdW  Elec       q    Type
REMARK                         _______ _______ _______ _____ _____    ______ ____
ROOT
ATOM      1  C   UNL     1      -0.567  13.294  18.049  0.00  0.00    +0.000 C 
ATOM      2  N   UNL     1      -0.295  11.868  18.204  0.00  0.00    +0.000 NA
ATOM      3  C   UNL     1      -1.489  11.014  18.439  0.00  0.00    +0.000 C 
ATOM      4  C   UNL     1      -1.766  11.219  19.912  0.00  0.00    +0.000 C 
ATOM      5  C   UNL     1      -0.350  11.132  20.513  0.00  0.00    +0.000 C 
ATOM      6  C   UNL     1       0.075   9.678  20.869  0.00  0.00    +0.000 C 
ATOM      7  N   UNL     1       1.102   9.357  19.903  0.00  0.00    +0.000 N 
ATOM      8  C   UNL     1       1.394  10.381  19.059  0.00  0.00    +0.000 A 
ATOM      9  N   UNL     1       2.156   9.994  18.068  0.00  0.00    +0.000 NA
ATOM     10  C   UNL     1       2.368   8.655  18.319  0.00  0.00    +0.000 A 
ATOM     11  C   UNL     1       3.075   7.725  17.553  0.00  0.00    +0.000 A 
ATOM     12  C   UNL     1       3.271   6.435  18.062  0.00  0.00    +0.000 A 
ATOM     13  C   UNL     1       4.042   5.527  17.338  0.00  0.00    +0.000 A 
ATOM     14  C   UNL     1       4.652   4.467  17.995  0.00  0.00    +0.000 A 
ATOM     15  C   UNL     1       4.248   4.138  19.283  0.00  0.00    +0.000 A 
ATOM     16  C   UNL     1       3.225   4.869  19.898  0.00  0.00    +0.000 A 
ATOM     17  C   UNL     1       2.773   6.075  19.335  0.00  0.00    +0.000 A 
ATOM     18  C   UNL     1       1.894   6.945  20.021  0.00  0.00    +0.000 A 
ATOM     19  C   UNL     1       1.751   8.240  19.505  0.00  0.00    +0.000 A 
ATOM     20  C   UNL     1       0.587  11.597  19.347  0.00  0.00    +0.000 C 
ENDROOT
BRANCH   3  21
ATOM     21  C   UNL     1      -2.609  11.219  17.409  0.00  0.00    +0.000 C 
ATOM     22  O   UNL     1      -2.495  10.923  16.223  0.00  0.00    +0.000 OA
ATOM     23  N   UNL     1      -3.748  11.828  17.894  0.00  0.00    +0.000 N 
ATOM     24  H   UNL     1      -4.462  12.030  17.211  0.00  0.00    +0.000 HD
BRANCH  23  25
ATOM     25  C   UNL     1      -3.982  12.213  19.283  0.00  0.00    +0.000 C 
BRANCH  25  26
ATOM     26  C   UNL     1      -5.367  12.741  19.498  0.00  0.00    +0.000 A 
ATOM     27  C   UNL     1      -5.765  13.131  20.784  0.00  0.00    +0.000 A 
ATOM     28  C   UNL     1      -7.031  13.664  20.990  0.00  0.00    +0.000 A 
ATOM     29  C   UNL     1      -7.916  13.804  19.911  0.00  0.00    +0.000 A 
ATOM     30  C   UNL     1      -7.535  13.404  18.637  0.00  0.00    +0.000 A 
ATOM     31  C   UNL     1      -6.270  12.871  18.417  0.00  0.00    +0.000 A 
ENDBRANCH  25  26
ENDBRANCH  23  25
ENDBRANCH   3  21
TORSDOF 3
ENDMDL
MODEL 8
REMARK VINA RESULT:      -6.8      3.168      4.908
REMARK  Name = 
REMARK  4 active torsions:
REMARK  status: ('A' for Active; 'I' for Inactive)
REMARK    1  A    between atoms: C_1  and  N_2
REMARK    2  A    between atoms: C_3  and  C_4
REMARK    3  A    between atoms: N_6  and  C_7
REMARK    4  A    between atoms: C_7  and  C_8
REMARK                            x       y       z     vdW  Elec       q    Type
REMARK                         _______ _______ _______ _____ _____    ______ ____
ROOT
ATOM      1  C   UNL     1      -2.061  13.326  22.168  0.00  0.00    +0.000 C 
ATOM      2  N   UNL     1      -0.989  12.594  21.500  0.00  0.00    +0.000 NA
ATOM      3  C   UNL     1       0.124  13.432  20.979  0.00  0.00    +0.000 C 
ATOM      4  C   UNL     1      -0.441  13.977  19.685  0.00  0.00    +0.000 C 
ATOM      5  C   UNL     1      -1.108  12.724  19.081  0.00  0.00    +0.000 C 
ATOM      6  C   UNL     1      -0.137  11.872  18.215  0.00  0.00    +0.000 C 
ATOM      7  N   UNL     1       0.071  10.668  18.988  0.00  0.00    +0.000 N 
ATOM      8  C   UNL     1      -0.639  10.635  20.146  0.00  0.00    +0.000 A 
ATOM      9  N   UNL     1      -0.264   9.649  20.920  0.00  0.00    +0.000 NA
ATOM     10  C   UNL     1       0.724   9.018  20.195  0.00  0.00    +0.000 A 
ATOM     11  C   UNL     1       1.512   7.923  20.562  0.00  0.00    +0.000 A 
ATOM     12  C   UNL     1       2.377   7.363  19.615  0.00  0.00    +0.000 A 
ATOM     13  C   UNL     1       3.108   6.224  19.950  0.00  0.00    +0.000 A 
ATOM     14  C   UNL     1       3.568   5.383  18.946  0.00  0.00    +0.000 A 
ATOM     15  C   UNL     1       3.574   5.830  17.630  0.00  0.00    +0.000 A 
ATOM     16  C   UNL     1       3.129   7.123  17.334  0.00  0.00    +0.000 A 
ATOM     17  C   UNL     1       2.451   7.884  18.302  0.00  0.00    +0.000 A 
ATOM     18  C   UNL     1       1.807   9.103  17.989  0.00  0.00    +0.000 A 
ATOM     19  C   UNL     1       0.919   9.615  18.945  0.00  0.00    +0.000 A 
ATOM     20  C   UNL     1      -1.475  11.851  20.330  0.00  0.00    +0.000 C 
ENDROOT
BRANCH   3  21
ATOM     21  C   UNL     1       0.720  14.388  22.021  0.00  0.00    +0.000 C 
ATOM     22  O   UNL     1       0.058  14.900  22.920  0.00  0.00    +0.000 OA
ATOM     23  N   UNL     1       2.053  14.694  21.842  0.00  0.00    +0.000 N 
ATOM     24  H   UNL     1       2.436  15.375  22.480  0.00  0.00    +0.000 HD
BRANCH  23  25
ATOM     25  C   UNL     1       2.923  14.137  20.811  0.00  0.00    +0.000 C 
BRANCH  25  26
ATOM     26  C   UNL     1       2.983  15.005  19.591  0.00  0.00    +0.000 A 
ATOM     27  C   UNL     1       2.381  16.270  19.615  0.00  0.00    +0.000 A 
ATOM     28  C   UNL     1       2.467  17.104  18.507  0.00  0.00    +0.000 A 
ATOM     29  C   UNL     1       3.151  16.675  17.360  0.00  0.00    +0.000 A 
ATOM     30  C   UNL     1       3.734  15.416  17.323  0.00  0.00    +0.000 A 
ATOM     31  C   UNL     1       3.657  14.573  18.425  0.00  0.00    +0.000 A 
ENDBRANCH  25  26
ENDBRANCH  23  25
ENDBRANCH   3  21
TORSDOF 3
ENDMDL
MODEL 9
REMARK VINA RESULT:      -6.7      3.350      6.869
REMARK  Name = 
REMARK  4 active torsions:
REMARK  status: ('A' for Active; 'I' for Inactive)
REMARK    1  A    between atoms: C_1  and  N_2
REMARK    2  A    between atoms: C_3  and  C_4
REMARK    3  A    between atoms: N_6  and  C_7
REMARK    4  A    between atoms: C_7  and  C_8
REMARK                            x       y       z     vdW  Elec       q    Type
REMARK                         _______ _______ _______ _____ _____    ______ ____
ROOT
ATOM      1  C   UNL     1       3.467  15.494  20.642  0.00  0.00    +0.000 C 
ATOM      2  N   UNL     1       2.082  15.034  20.688  0.00  0.00    +0.000 NA
ATOM      3  C   UNL     1       1.515  14.593  19.386  0.00  0.00    +0.000 C 
ATOM      4  C   UNL     1       1.158  15.901  18.714  0.00  0.00    +0.000 C 
ATOM      5  C   UNL     1       0.501  16.680  19.871  0.00  0.00    +0.000 C 
ATOM      6  C   UNL     1      -1.026  16.412  19.998  0.00  0.00    +0.000 C 
ATOM      7  N   UNL     1      -1.156  15.648  21.220  0.00  0.00    +0.000 N 
ATOM      8  C   UNL     1       0.024  15.449  21.865  0.00  0.00    +0.000 A 
ATOM      9  N   UNL     1      -0.092  14.577  22.834  0.00  0.00    +0.000 NA
ATOM     10  C   UNL     1      -1.425  14.226  22.804  0.00  0.00    +0.000 A 
ATOM     11  C   UNL     1      -2.098  13.288  23.592  0.00  0.00    +0.000 A 
ATOM     12  C   UNL     1      -3.489  13.180  23.477  0.00  0.00    +0.000 A 
ATOM     13  C   UNL     1      -4.175  12.302  24.315  0.00  0.00    +0.000 A 
ATOM     14  C   UNL     1      -5.521  12.513  24.576  0.00  0.00    +0.000 A 
ATOM     15  C   UNL     1      -6.243  13.390  23.776  0.00  0.00    +0.000 A 
ATOM     16  C   UNL     1      -5.610  14.039  22.710  0.00  0.00    +0.000 A 
ATOM     17  C   UNL     1      -4.210  14.009  22.588  0.00  0.00    +0.000 A 
ATOM     18  C   UNL     1      -3.517  14.814  21.654  0.00  0.00    +0.000 A 
ATOM     19  C   UNL     1      -2.130  14.930  21.822  0.00  0.00    +0.000 A 
ATOM     20  C   UNL     1       1.167  16.083  21.157  0.00  0.00    +0.000 C 
ENDROOT
BRANCH   3  21
ATOM     21  C   UNL     1       2.380  13.561  18.651  0.00  0.00    +0.000 C 
ATOM     22  O   UNL     1       3.225  13.866  17.813  0.00  0.00    +0.000 OA
ATOM     23  N   UNL     1       2.099  12.243  18.945  0.00  0.00    +0.000 N 
ATOM     24  H   UNL     1       2.615  11.555  18.416  0.00  0.00    +0.000 HD
BRANCH  23  25
ATOM     25  C   UNL     1       1.121  11.780  19.924  0.00  0.00    +0.000 C 
BRANCH  25  26
ATOM     26  C   UNL     1      -0.194  11.438  19.292  0.00  0.00    +0.000 A 
ATOM     27  C   UNL     1      -1.340  12.163  19.646  0.00  0.00    +0.000 A 
ATOM     28  C   UNL     1      -2.556  11.887  19.035  0.00  0.00    +0.000 A 
ATOM     29  C   UNL     1      -2.640  10.875  18.068  0.00  0.00    +0.000 A 
ATOM     30  C   UNL     1      -1.513  10.141  17.724  0.00  0.00    +0.000 A 
ATOM     31  C   UNL     1      -0.289  10.408  18.327  0.00  0.00    +0.000 A 
ENDBRANCH  25  26
ENDBRANCH  23  25
ENDBRANCH   3  21
TORSDOF 3
ENDMDL
