MODEL 1
REMARK VINA RESULT:      -7.4      0.000      0.000
REMARK  Name = 
REMARK  8 active torsions:
REMARK  status: ('A' for Active; 'I' for Inactive)
REMARK    1  A    between atoms: C_1  and  C_2
REMARK    2  A    between atoms: C_2  and  O_3
REMARK    3  A    between atoms: O_3  and  C_4
REMARK    4  A    between atoms: C_7  and  C_8
REMARK    5  A    between atoms: N_12  and  C_13
REMARK    6  A    between atoms: C_13  and  C_14
REMARK    7  A    between atoms: C_17  and  C_18
REMARK    8  A    between atoms: N_24  and  C_25
REMARK                            x       y       z     vdW  Elec       q    Type
REMARK                         _______ _______ _______ _____ _____    ______ ____
ROOT
ATOM      1  C   UNL     1       3.773   5.811  18.604  0.00  0.00    +0.000 A 
ATOM      2  C   UNL     1       3.336   5.100  19.711  0.00  0.00    +0.000 A 
ATOM      3  N   UNL     1       2.442   5.809  20.465  0.00  0.00    +0.000 NA
ATOM      4  C   UNL     1       2.314   6.965  19.861  0.00  0.00    +0.000 A 
ATOM      5  N   UNL     1       1.523   8.003  20.209  0.00  0.00    +0.000 N 
ATOM      6  N   UNL     1       3.073   7.006  18.708  0.00  0.00    +0.000 N 
ATOM      7  C   UNL     1       2.988   8.047  17.708  0.00  0.00    +0.000 C 
ATOM      8  H   UNL     1       1.974   8.909  20.298  0.00  0.00    +0.000 HD
ENDROOT
BRANCH   1  12
ATOM      9  C   UNL     1       6.346   4.672  15.361  0.00  0.00    +0.000 A 
ATOM     10  C   UNL     1       5.152   3.991  15.592  0.00  0.00    +0.000 A 
ATOM     11  C   UNL     1       4.317   4.362  16.652  0.00  0.00    +0.000 A 
ATOM     12  C   UNL     1       4.677   5.403  17.522  0.00  0.00    +0.000 A 
ATOM     13  C   UNL     1       5.922   6.015  17.325  0.00  0.00    +0.000 A 
ATOM     14  C   UNL     1       6.742   5.667  16.247  0.00  0.00    +0.000 A 
BRANCH   9  15
ATOM     15  O   UNL     1       7.055   4.269  14.265  0.00  0.00    +0.000 OA
BRANCH  15  17
ATOM     16  C   UNL     1       7.023   3.872  11.917  0.00  0.00    +0.000 C 
ATOM     17  C   UNL     1       6.292   3.650  13.227  0.00  0.00    +0.000 C 
ENDBRANCH  15  17
ENDBRANCH   9  15
ENDBRANCH   1  12
BRANCH   5  18
ATOM     18  C   UNL     1       0.522   7.785  21.238  0.00  0.00    +0.000 C 
BRANCH  18  19
ATOM     19  C   UNL     1      -0.102   9.117  21.608  0.00  0.00    +0.000 A 
ATOM     20  C   UNL     1      -0.498   9.372  22.932  0.00  0.00    +0.000 A 
ATOM     21  C   UNL     1      -1.042  10.607  23.293  0.00  0.00    +0.000 A 
ATOM     22  C   UNL     1      -1.192  11.622  22.339  0.00  0.00    +0.000 A 
ATOM     23  C   UNL     1      -0.791  11.371  21.017  0.00  0.00    +0.000 A 
ATOM     24  C   UNL     1      -0.251  10.133  20.656  0.00  0.00    +0.000 A 
BRANCH  22  25
ATOM     25  C   UNL     1      -1.763  12.968  22.716  0.00  0.00    +0.000 C 
ATOM     26  F   UNL     1      -1.042  13.621  23.670  0.00  0.00    +0.000 F 
ATOM     27  F   UNL     1      -1.834  13.819  21.656  0.00  0.00    +0.000 F 
ATOM     28  F   UNL     1      -3.030  12.877  23.206  0.00  0.00    +0.000 F 
ENDBRANCH  22  25
ENDBRANCH  18  19
ENDBRANCH   5  18
TORSDOF 6
ENDMDL
MODEL 2
REMARK VINA RESULT:      -7.4      0.715      1.377
REMARK  Name = 
REMARK  8 active torsions:
REMARK  status: ('A' for Active; 'I' for Inactive)
REMARK    1  A    between atoms: C_1  and  C_2
REMARK    2  A    between atoms: C_2  and  O_3
REMARK    3  A    between atoms: O_3  and  C_4
REMARK    4  A    between atoms: C_7  and  C_8
REMARK    5  A    between atoms: N_12  and  C_13
REMARK    6  A    between atoms: C_13  and  C_14
REMARK    7  A    between atoms: C_17  and  C_18
REMARK    8  A    between atoms: N_24  and  C_25
REMARK                            x       y       z     vdW  Elec       q    Type
REMARK                         _______ _______ _______ _____ _____    ______ ____
ROOT
ATOM      1  C   UNL     1       3.747   5.590  18.215  0.00  0.00    +0.000 A 
ATOM      2  C   UNL     1       3.390   4.847  19.330  0.00  0.00    +0.000 A 
ATOM      3  N   UNL     1       2.629   5.564  20.212  0.00  0.00    +0.000 NA
ATOM      4  C   UNL     1       2.508   6.756  19.681  0.00  0.00    +0.000 A 
ATOM      5  N   UNL     1       1.826   7.817  20.164  0.00  0.00    +0.000 N 
ATOM      6  N   UNL     1       3.138   6.816  18.454  0.00  0.00    +0.000 N 
ATOM      7  C   UNL     1       3.008   7.912  17.520  0.00  0.00    +0.000 C 
ATOM      8  H   UNL     1       2.339   8.690  20.245  0.00  0.00    +0.000 HD
ENDROOT
BRANCH   1  12
ATOM      9  C   UNL     1       5.846   4.393  14.667  0.00  0.00    +0.000 A 
ATOM     10  C   UNL     1       5.343   3.439  15.549  0.00  0.00    +0.000 A 
ATOM     11  C   UNL     1       4.663   3.832  16.707  0.00  0.00    +0.000 A 
ATOM     12  C   UNL     1       4.499   5.190  17.021  0.00  0.00    +0.000 A 
ATOM     13  C   UNL     1       5.089   6.131  16.166  0.00  0.00    +0.000 A 
ATOM     14  C   UNL     1       5.742   5.741  14.992  0.00  0.00    +0.000 A 
BRANCH   9  15
ATOM     15  O   UNL     1       6.439   3.903  13.539  0.00  0.00    +0.000 OA
BRANCH  15  17
ATOM     16  C   UNL     1       6.115   2.344  11.767  0.00  0.00    +0.000 C 
ATOM     17  C   UNL     1       5.552   3.565  12.470  0.00  0.00    +0.000 C 
ENDBRANCH  15  17
ENDBRANCH   9  15
ENDBRANCH   1  12
BRANCH   5  18
ATOM     18  C   UNL     1       0.931   7.601  21.288  0.00  0.00    +0.000 C 
BRANCH  18  19
ATOM     19  C   UNL     1       0.263   8.915  21.644  0.00  0.00    +0.000 A 
ATOM     20  C   UNL     1       0.017   9.879  20.652  0.00  0.00    +0.000 A 
ATOM     21  C   UNL     1      -0.627  11.079  20.960  0.00  0.00    +0.000 A 
ATOM     22  C   UNL     1      -1.054  11.339  22.269  0.00  0.00    +0.000 A 
ATOM     23  C   UNL     1      -0.815  10.374  23.262  0.00  0.00    +0.000 A 
ATOM     24  C   UNL     1      -0.165   9.175  22.953  0.00  0.00    +0.000 A 
BRANCH  22  25
ATOM     25  C   UNL     1      -1.767  12.623  22.617  0.00  0.00    +0.000 C 
ATOM     26  F   UNL     1      -3.000  12.434  23.162  0.00  0.00    +0.000 F 
ATOM     27  F   UNL     1      -1.075  13.377  23.515  0.00  0.00    +0.000 F 
ATOM     28  F   UNL     1      -1.960  13.422  21.530  0.00  0.00    +0.000 F 
ENDBRANCH  22  25
ENDBRANCH  18  19
ENDBRANCH   5  18
TORSDOF 6
ENDMDL
MODEL 3
REMARK VINA RESULT:      -7.4      0.284      1.238
REMARK  Name = 
REMARK  8 active torsions:
REMARK  status: ('A' for Active; 'I' for Inactive)
REMARK    1  A    between atoms: C_1  and  C_2
REMARK    2  A    between atoms: C_2  and  O_3
REMARK    3  A    between atoms: O_3  and  C_4
REMARK    4  A    between atoms: C_7  and  C_8
REMARK    5  A    between atoms: N_12  and  C_13
REMARK    6  A    between atoms: C_13  and  C_14
REMARK    7  A    between atoms: C_17  and  C_18
REMARK    8  A    between atoms: N_24  and  C_25
REMARK                            x       y       z     vdW  Elec       q    Type
REMARK                         _______ _______ _______ _____ _____    ______ ____
ROOT
ATOM      1  C   UNL     1       3.745   5.865  18.626  0.00  0.00    +0.000 A 
ATOM      2  C   UNL     1       3.287   5.175  19.738  0.00  0.00    +0.000 A 
ATOM      3  N   UNL     1       2.407   5.912  20.481  0.00  0.00    +0.000 NA
ATOM      4  C   UNL     1       2.308   7.065  19.866  0.00  0.00    +0.000 A 
ATOM      5  N   UNL     1       1.540   8.124  20.201  0.00  0.00    +0.000 N 
ATOM      6  N   UNL     1       3.072   7.077  18.716  0.00  0.00    +0.000 N 
ATOM      7  C   UNL     1       3.015   8.110  17.706  0.00  0.00    +0.000 C 
ATOM      8  H   UNL     1       2.011   9.020  20.284  0.00  0.00    +0.000 HD
ENDROOT
BRANCH   1  12
ATOM      9  C   UNL     1       6.303   4.636  15.405  0.00  0.00    +0.000 A 
ATOM     10  C   UNL     1       5.097   3.980  15.642  0.00  0.00    +0.000 A 
ATOM     11  C   UNL     1       4.267   4.380  16.695  0.00  0.00    +0.000 A 
ATOM     12  C   UNL     1       4.643   5.426  17.552  0.00  0.00    +0.000 A 
ATOM     13  C   UNL     1       5.900   6.013  17.349  0.00  0.00    +0.000 A 
ATOM     14  C   UNL     1       6.716   5.636  16.278  0.00  0.00    +0.000 A 
BRANCH   9  15
ATOM     15  O   UNL     1       7.007   4.206  14.316  0.00  0.00    +0.000 OA
BRANCH  15  17
ATOM     16  C   UNL     1       6.976   3.968  11.946  0.00  0.00    +0.000 C 
ATOM     17  C   UNL     1       6.223   3.695  13.235  0.00  0.00    +0.000 C 
ENDBRANCH  15  17
ENDBRANCH   9  15
ENDBRANCH   1  12
BRANCH   5  18
ATOM     18  C   UNL     1       0.529   7.939  21.228  0.00  0.00    +0.000 C 
BRANCH  18  19
ATOM     19  C   UNL     1       0.006   9.297  21.654  0.00  0.00    +0.000 A 
ATOM     20  C   UNL     1       0.079  10.393  20.778  0.00  0.00    +0.000 A 
ATOM     21  C   UNL     1      -0.429  11.641  21.144  0.00  0.00    +0.000 A 
ATOM     22  C   UNL     1      -1.035  11.820  22.395  0.00  0.00    +0.000 A 
ATOM     23  C   UNL     1      -1.115  10.725  23.271  0.00  0.00    +0.000 A 
ATOM     24  C   UNL     1      -0.601   9.477  22.903  0.00  0.00    +0.000 A 
BRANCH  22  25
ATOM     25  C   UNL     1      -1.605  13.158  22.801  0.00  0.00    +0.000 C 
ATOM     26  F   UNL     1      -2.264  13.800  21.796  0.00  0.00    +0.000 F 
ATOM     27  F   UNL     1      -2.498  13.055  23.824  0.00  0.00    +0.000 F 
ATOM     28  F   UNL     1      -0.645  14.024  23.229  0.00  0.00    +0.000 F 
ENDBRANCH  22  25
ENDBRANCH  18  19
ENDBRANCH   5  18
TORSDOF 6
ENDMDL
MODEL 4
REMARK VINA RESULT:      -7.3      2.116      3.618
REMARK  Name = 
REMARK  8 active torsions:
REMARK  status: ('A' for Active; 'I' for Inactive)
REMARK    1  A    between atoms: C_1  and  C_2
REMARK    2  A    between atoms: C_2  and  O_3
REMARK    3  A    between atoms: O_3  and  C_4
REMARK    4  A    between atoms: C_7  and  C_8
REMARK    5  A    between atoms: N_12  and  C_13
REMARK    6  A    between atoms: C_13  and  C_14
REMARK    7  A    between atoms: C_17  and  C_18
REMARK    8  A    between atoms: N_24  and  C_25
REMARK                            x       y       z     vdW  Elec       q    Type
REMARK                         _______ _______ _______ _____ _____    ______ ____
ROOT
ATOM      1  C   UNL     1       1.993   8.489  18.470  0.00  0.00    +0.000 A 
ATOM      2  C   UNL     1       1.794   9.674  17.779  0.00  0.00    +0.000 A 
ATOM      3  N   UNL     1       1.116  10.601  18.522  0.00  0.00    +0.000 NA
ATOM      4  C   UNL     1       0.868  10.018  19.669  0.00  0.00    +0.000 A 
ATOM      5  N   UNL     1       0.239  10.534  20.747  0.00  0.00    +0.000 N 
ATOM      6  N   UNL     1       1.409   8.747  19.703  0.00  0.00    +0.000 N 
ATOM      7  C   UNL     1       1.501   7.929  20.891  0.00  0.00    +0.000 C 
ATOM      8  H   UNL     1      -0.536   9.996  21.122  0.00  0.00    +0.000 HD
ENDROOT
BRANCH   1  12
ATOM      9  C   UNL     1       4.165   4.946  17.391  0.00  0.00    +0.000 A 
ATOM     10  C   UNL     1       4.754   6.202  17.270  0.00  0.00    +0.000 A 
ATOM     11  C   UNL     1       4.042   7.356  17.618  0.00  0.00    +0.000 A 
ATOM     12  C   UNL     1       2.715   7.276  18.066  0.00  0.00    +0.000 A 
ATOM     13  C   UNL     1       2.113   6.010  18.097  0.00  0.00    +0.000 A 
ATOM     14  C   UNL     1       2.834   4.854  17.779  0.00  0.00    +0.000 A 
BRANCH   9  15
ATOM     15  O   UNL     1       4.967   3.884  17.082  0.00  0.00    +0.000 OA
BRANCH  15  17
ATOM     16  C   UNL     1       5.869   3.856  14.877  0.00  0.00    +0.000 C 
ATOM     17  C   UNL     1       6.143   4.194  16.331  0.00  0.00    +0.000 C 
ENDBRANCH  15  17
ENDBRANCH   9  15
ENDBRANCH   1  12
BRANCH   5  18
ATOM     18  C   UNL     1      -0.023  11.962  20.767  0.00  0.00    +0.000 C 
BRANCH  18  19
ATOM     19  C   UNL     1      -1.285  12.220  21.568  0.00  0.00    +0.000 A 
ATOM     20  C   UNL     1      -2.327  12.989  21.024  0.00  0.00    +0.000 A 
ATOM     21  C   UNL     1      -3.507  13.206  21.738  0.00  0.00    +0.000 A 
ATOM     22  C   UNL     1      -3.679  12.647  23.012  0.00  0.00    +0.000 A 
ATOM     23  C   UNL     1      -2.641  11.872  23.555  0.00  0.00    +0.000 A 
ATOM     24  C   UNL     1      -1.457  11.660  22.841  0.00  0.00    +0.000 A 
BRANCH  22  25
ATOM     25  C   UNL     1      -4.955  12.857  23.790  0.00  0.00    +0.000 C 
ATOM     26  F   UNL     1      -5.023  12.125  24.937  0.00  0.00    +0.000 F 
ATOM     27  F   UNL     1      -5.129  14.154  24.166  0.00  0.00    +0.000 F 
ATOM     28  F   UNL     1      -6.064  12.525  23.072  0.00  0.00    +0.000 F 
ENDBRANCH  22  25
ENDBRANCH  18  19
ENDBRANCH   5  18
TORSDOF 6
ENDMDL
MODEL 5
REMARK VINA RESULT:      -7.3      0.623      1.534
REMARK  Name = 
REMARK  8 active torsions:
REMARK  status: ('A' for Active; 'I' for Inactive)
REMARK    1  A    between atoms: C_1  and  C_2
REMARK    2  A    between atoms: C_2  and  O_3
REMARK    3  A    between atoms: O_3  and  C_4
REMARK    4  A    between atoms: C_7  and  C_8
REMARK    5  A    between atoms: N_12  and  C_13
REMARK    6  A    between atoms: C_13  and  C_14
REMARK    7  A    between atoms: C_17  and  C_18
REMARK    8  A    between atoms: N_24  and  C_25
REMARK                            x       y       z     vdW  Elec       q    Type
REMARK                         _______ _______ _______ _____ _____    ______ ____
ROOT
ATOM      1  C   UNL     1       3.352   5.992  18.612  0.00  0.00    +0.000 A 
ATOM      2  C   UNL     1       2.934   5.317  19.749  0.00  0.00    +0.000 A 
ATOM      3  N   UNL     1       2.149   6.094  20.555  0.00  0.00    +0.000 NA
ATOM      4  C   UNL     1       2.073   7.257  19.956  0.00  0.00    +0.000 A 
ATOM      5  N   UNL     1       1.390   8.354  20.350  0.00  0.00    +0.000 N 
ATOM      6  N   UNL     1       2.756   7.239  18.756  0.00  0.00    +0.000 N 
ATOM      7  C   UNL     1       2.687   8.284  17.759  0.00  0.00    +0.000 C 
ATOM      8  H   UNL     1       1.915   9.221  20.406  0.00  0.00    +0.000 HD
ENDROOT
BRANCH   1  12
ATOM      9  C   UNL     1       5.781   4.626  15.346  0.00  0.00    +0.000 A 
ATOM     10  C   UNL     1       5.546   5.986  15.534  0.00  0.00    +0.000 A 
ATOM     11  C   UNL     1       4.750   6.429  16.597  0.00  0.00    +0.000 A 
ATOM     12  C   UNL     1       4.148   5.515  17.476  0.00  0.00    +0.000 A 
ATOM     13  C   UNL     1       4.326   4.149  17.216  0.00  0.00    +0.000 A 
ATOM     14  C   UNL     1       5.147   3.707  16.173  0.00  0.00    +0.000 A 
BRANCH   9  15
ATOM     15  O   UNL     1       6.619   4.307  14.316  0.00  0.00    +0.000 OA
BRANCH  15  17
ATOM     16  C   UNL     1       6.962   3.805  12.013  0.00  0.00    +0.000 C 
ATOM     17  C   UNL     1       6.000   3.696  13.181  0.00  0.00    +0.000 C 
ENDBRANCH  15  17
ENDBRANCH   9  15
ENDBRANCH   1  12
BRANCH   5  18
ATOM     18  C   UNL     1       0.444   8.214  21.443  0.00  0.00    +0.000 C 
BRANCH  18  19
ATOM     19  C   UNL     1      -0.200   9.561  21.711  0.00  0.00    +0.000 A 
ATOM     20  C   UNL     1      -0.354  10.494  20.672  0.00  0.00    +0.000 A 
ATOM     21  C   UNL     1      -0.975  11.724  20.898  0.00  0.00    +0.000 A 
ATOM     22  C   UNL     1      -1.469  12.047  22.169  0.00  0.00    +0.000 A 
ATOM     23  C   UNL     1      -1.322  11.113  23.208  0.00  0.00    +0.000 A 
ATOM     24  C   UNL     1      -0.695   9.884  22.981  0.00  0.00    +0.000 A 
BRANCH  22  25
ATOM     25  C   UNL     1      -2.158  13.365  22.426  0.00  0.00    +0.000 C 
ATOM     26  F   UNL     1      -2.188  14.188  21.341  0.00  0.00    +0.000 F 
ATOM     27  F   UNL     1      -3.455  13.209  22.810  0.00  0.00    +0.000 F 
ATOM     28  F   UNL     1      -1.559  14.081  23.419  0.00  0.00    +0.000 F 
ENDBRANCH  22  25
ENDBRANCH  18  19
ENDBRANCH   5  18
TORSDOF 6
ENDMDL
MODEL 6
REMARK VINA RESULT:      -7.2      2.110      3.471
REMARK  Name = 
REMARK  8 active torsions:
REMARK  status: ('A' for Active; 'I' for Inactive)
REMARK    1  A    between atoms: C_1  and  C_2
REMARK    2  A    between atoms: C_2  and  O_3
REMARK    3  A    between atoms: O_3  and  C_4
REMARK    4  A    between atoms: C_7  and  C_8
REMARK    5  A    between atoms: N_12  and  C_13
REMARK    6  A    between atoms: C_13  and  C_14
REMARK    7  A    between atoms: C_17  and  C_18
REMARK    8  A    between atoms: N_24  and  C_25
REMARK                            x       y       z     vdW  Elec       q    Type
REMARK                         _______ _______ _______ _____ _____    ______ ____
ROOT
ATOM      1  C   UNL     1       1.997   8.472  18.556  0.00  0.00    +0.000 A 
ATOM      2  C   UNL     1       1.762   9.677  17.911  0.00  0.00    +0.000 A 
ATOM      3  N   UNL     1       1.148  10.590  18.723  0.00  0.00    +0.000 NA
ATOM      4  C   UNL     1       0.976   9.980  19.870  0.00  0.00    +0.000 A 
ATOM      5  N   UNL     1       0.430  10.474  21.002  0.00  0.00    +0.000 N 
ATOM      6  N   UNL     1       1.505   8.705  19.834  0.00  0.00    +0.000 N 
ATOM      7  C   UNL     1       1.671   7.855  20.992  0.00  0.00    +0.000 C 
ATOM      8  H   UNL     1      -0.323   9.934  21.417  0.00  0.00    +0.000 HD
ENDROOT
BRANCH   1  12
ATOM      9  C   UNL     1       4.060   4.948  17.230  0.00  0.00    +0.000 A 
ATOM     10  C   UNL     1       4.572   6.214  16.957  0.00  0.00    +0.000 A 
ATOM     11  C   UNL     1       3.896   7.362  17.386  0.00  0.00    +0.000 A 
ATOM     12  C   UNL     1       2.675   7.264  18.073  0.00  0.00    +0.000 A 
ATOM     13  C   UNL     1       2.134   5.984  18.260  0.00  0.00    +0.000 A 
ATOM     14  C   UNL     1       2.825   4.836  17.859  0.00  0.00    +0.000 A 
BRANCH   9  15
ATOM     15  O   UNL     1       4.829   3.896  16.819  0.00  0.00    +0.000 OA
BRANCH  15  17
ATOM     16  C   UNL     1       6.101   3.816  14.806  0.00  0.00    +0.000 C 
ATOM     17  C   UNL     1       6.100   4.239  16.264  0.00  0.00    +0.000 C 
ENDBRANCH  15  17
ENDBRANCH   9  15
ENDBRANCH   1  12
BRANCH   5  18
ATOM     18  C   UNL     1       0.185  11.904  21.076  0.00  0.00    +0.000 C 
BRANCH  18  19
ATOM     19  C   UNL     1      -1.184  12.138  21.684  0.00  0.00    +0.000 A 
ATOM     20  C   UNL     1      -1.432  11.803  23.025  0.00  0.00    +0.000 A 
ATOM     21  C   UNL     1      -2.678  12.044  23.607  0.00  0.00    +0.000 A 
ATOM     22  C   UNL     1      -3.706  12.638  22.863  0.00  0.00    +0.000 A 
ATOM     23  C   UNL     1      -3.459  12.979  21.523  0.00  0.00    +0.000 A 
ATOM     24  C   UNL     1      -2.212  12.733  20.940  0.00  0.00    +0.000 A 
BRANCH  22  25
ATOM     25  C   UNL     1      -5.054  12.921  23.481  0.00  0.00    +0.000 C 
ATOM     26  F   UNL     1      -5.275  14.241  23.730  0.00  0.00    +0.000 F 
ATOM     27  F   UNL     1      -6.085  12.514  22.690  0.00  0.00    +0.000 F 
ATOM     28  F   UNL     1      -5.224  12.284  24.673  0.00  0.00    +0.000 F 
ENDBRANCH  22  25
ENDBRANCH  18  19
ENDBRANCH   5  18
TORSDOF 6
ENDMDL
MODEL 7
REMARK VINA RESULT:      -7.2      0.624      1.209
REMARK  Name = 
REMARK  8 active torsions:
REMARK  status: ('A' for Active; 'I' for Inactive)
REMARK    1  A    between atoms: C_1  and  C_2
REMARK    2  A    between atoms: C_2  and  O_3
REMARK    3  A    between atoms: O_3  and  C_4
REMARK    4  A    between atoms: C_7  and  C_8
REMARK    5  A    between atoms: N_12  and  C_13
REMARK    6  A    between atoms: C_13  and  C_14
REMARK    7  A    between atoms: C_17  and  C_18
REMARK    8  A    between atoms: N_24  and  C_25
REMARK                            x       y       z     vdW  Elec       q    Type
REMARK                         _______ _______ _______ _____ _____    ______ ____
ROOT
ATOM      1  C   UNL     1       3.599   5.779  18.271  0.00  0.00    +0.000 A 
ATOM      2  C   UNL     1       3.221   5.030  19.375  0.00  0.00    +0.000 A 
ATOM      3  N   UNL     1       2.470   5.753  20.260  0.00  0.00    +0.000 NA
ATOM      4  C   UNL     1       2.378   6.953  19.744  0.00  0.00    +0.000 A 
ATOM      5  N   UNL     1       1.716   8.023  20.235  0.00  0.00    +0.000 N 
ATOM      6  N   UNL     1       3.015   7.014  18.520  0.00  0.00    +0.000 N 
ATOM      7  C   UNL     1       2.914   8.124  17.599  0.00  0.00    +0.000 C 
ATOM      8  H   UNL     1       2.246   8.883  20.329  0.00  0.00    +0.000 HD
ENDROOT
BRANCH   1  12
ATOM      9  C   UNL     1       5.898   4.636  14.829  0.00  0.00    +0.000 A 
ATOM     10  C   UNL     1       5.608   5.977  15.075  0.00  0.00    +0.000 A 
ATOM     11  C   UNL     1       4.855   6.346  16.196  0.00  0.00    +0.000 A 
ATOM     12  C   UNL     1       4.350   5.377  17.076  0.00  0.00    +0.000 A 
ATOM     13  C   UNL     1       4.579   4.030  16.761  0.00  0.00    +0.000 A 
ATOM     14  C   UNL     1       5.358   3.661  15.660  0.00  0.00    +0.000 A 
BRANCH   9  15
ATOM     15  O   UNL     1       6.689   4.391  13.743  0.00  0.00    +0.000 OA
BRANCH  15  17
ATOM     16  C   UNL     1       5.084   3.693  12.128  0.00  0.00    +0.000 C 
ATOM     17  C   UNL     1       6.301   3.279  12.933  0.00  0.00    +0.000 C 
ENDBRANCH  15  17
ENDBRANCH   9  15
ENDBRANCH   1  12
BRANCH   5  18
ATOM     18  C   UNL     1       0.810   7.813  21.351  0.00  0.00    +0.000 C 
BRANCH  18  19
ATOM     19  C   UNL     1       0.082   9.110  21.646  0.00  0.00    +0.000 A 
ATOM     20  C   UNL     1      -0.359   9.397  22.948  0.00  0.00    +0.000 A 
ATOM     21  C   UNL     1      -1.001  10.603  23.239  0.00  0.00    +0.000 A 
ATOM     22  C   UNL     1      -1.206  11.558  22.235  0.00  0.00    +0.000 A 
ATOM     23  C   UNL     1      -0.760  11.276  20.933  0.00  0.00    +0.000 A 
ATOM     24  C   UNL     1      -0.122  10.066  20.642  0.00  0.00    +0.000 A 
BRANCH  22  25
ATOM     25  C   UNL     1      -1.882  12.874  22.536  0.00  0.00    +0.000 C 
ATOM     26  F   UNL     1      -1.720  13.809  21.559  0.00  0.00    +0.000 F 
ATOM     27  F   UNL     1      -3.227  12.742  22.704  0.00  0.00    +0.000 F 
ATOM     28  F   UNL     1      -1.418  13.448  23.680  0.00  0.00    +0.000 F 
ENDBRANCH  22  25
ENDBRANCH  18  19
ENDBRANCH   5  18
TORSDOF 6
ENDMDL
MODEL 8
REMARK VINA RESULT:      -7.2      6.137     10.904
REMARK  Name = 
REMARK  8 active torsions:
REMARK  status: ('A' for Active; 'I' for Inactive)
REMARK    1  A    between atoms: C_1  and  C_2
REMARK    2  A    between atoms: C_2  and  O_3
REMARK    3  A    between atoms: O_3  and  C_4
REMARK    4  A    between atoms: C_7  and  C_8
REMARK    5  A    between atoms: N_12  and  C_13
REMARK    6  A    between atoms: C_13  and  C_14
REMARK    7  A    between atoms: C_17  and  C_18
REMARK    8  A    between atoms: N_24  and  C_25
REMARK                            x       y       z     vdW  Elec       q    Type
REMARK                         _______ _______ _______ _____ _____    ______ ____
ROOT
ATOM      1  C   UNL     1      -0.730  11.154  20.919  0.00  0.00    +0.000 A 
ATOM      2  C   UNL     1      -0.092  11.425  19.718  0.00  0.00    +0.000 A 
ATOM      3  N   UNL     1       0.851  10.486  19.407  0.00  0.00    +0.000 NA
ATOM      4  C   UNL     1       0.834   9.629  20.398  0.00  0.00    +0.000 A 
ATOM      5  N   UNL     1       1.572   8.507  20.542  0.00  0.00    +0.000 N 
ATOM      6  N   UNL     1      -0.132   9.968  21.325  0.00  0.00    +0.000 N 
ATOM      7  C   UNL     1      -0.552   9.118  22.417  0.00  0.00    +0.000 C 
ATOM      8  H   UNL     1       2.088   8.411  21.412  0.00  0.00    +0.000 HD
ENDROOT
BRANCH   1  12
ATOM      9  C   UNL     1      -4.016  13.150  22.828  0.00  0.00    +0.000 A 
ATOM     10  C   UNL     1      -3.884  13.169  21.441  0.00  0.00    +0.000 A 
ATOM     11  C   UNL     1      -2.809  12.522  20.822  0.00  0.00    +0.000 A 
ATOM     12  C   UNL     1      -1.828  11.866  21.581  0.00  0.00    +0.000 A 
ATOM     13  C   UNL     1      -1.933  11.935  22.978  0.00  0.00    +0.000 A 
ATOM     14  C   UNL     1      -3.023  12.555  23.597  0.00  0.00    +0.000 A 
BRANCH   9  15
ATOM     15  O   UNL     1      -5.132  13.761  23.325  0.00  0.00    +0.000 OA
BRANCH  15  17
ATOM     16  C   UNL     1      -7.169  12.672  23.910  0.00  0.00    +0.000 C 
ATOM     17  C   UNL     1      -6.377  13.311  22.784  0.00  0.00    +0.000 C 
ENDBRANCH  15  17
ENDBRANCH   9  15
ENDBRANCH   1  12
BRANCH   5  18
ATOM     18  C   UNL     1       2.333   8.037  19.398  0.00  0.00    +0.000 C 
BRANCH  18  19
ATOM     19  C   UNL     1       2.151   6.537  19.268  0.00  0.00    +0.000 A 
ATOM     20  C   UNL     1       1.732   5.775  20.371  0.00  0.00    +0.000 A 
ATOM     21  C   UNL     1       1.529   4.398  20.257  0.00  0.00    +0.000 A 
ATOM     22  C   UNL     1       1.728   3.751  19.030  0.00  0.00    +0.000 A 
ATOM     23  C   UNL     1       2.142   4.512  17.924  0.00  0.00    +0.000 A 
ATOM     24  C   UNL     1       2.350   5.890  18.042  0.00  0.00    +0.000 A 
BRANCH  22  25
ATOM     25  C   UNL     1       1.497   2.267  18.885  0.00  0.00    +0.000 C 
ATOM     26  F   UNL     1       1.675   1.569  20.041  0.00  0.00    +0.000 F 
ATOM     27  F   UNL     1       0.234   1.974  18.466  0.00  0.00    +0.000 F 
ATOM     28  F   UNL     1       2.333   1.696  17.974  0.00  0.00    +0.000 F 
ENDBRANCH  22  25
ENDBRANCH  18  19
ENDBRANCH   5  18
TORSDOF 6
ENDMDL
MODEL 9
REMARK VINA RESULT:      -7.2      6.008     10.803
REMARK  Name = 
REMARK  8 active torsions:
REMARK  status: ('A' for Active; 'I' for Inactive)
REMARK    1  A    between atoms: C_1  and  C_2
REMARK    2  A    between atoms: C_2  and  O_3
REMARK    3  A    between atoms: O_3  and  C_4
REMARK    4  A    between atoms: C_7  and  C_8
REMARK    5  A    between atoms: N_12  and  C_13
REMARK    6  A    between atoms: C_13  and  C_14
REMARK    7  A    between atoms: C_17  and  C_18
REMARK    8  A    between atoms: N_24  and  C_25
REMARK                            x       y       z     vdW  Elec       q    Type
REMARK                         _______ _______ _______ _____ _____    ______ ____
ROOT
ATOM      1  C   UNL     1       0.013  11.167  20.206  0.00  0.00    +0.000 A 
ATOM      2  C   UNL     1       0.622  11.439  18.990  0.00  0.00    +0.000 A 
ATOM      3  N   UNL     1       1.383  10.395  18.544  0.00  0.00    +0.000 NA
ATOM      4  C   UNL     1       1.280   9.467  19.464  0.00  0.00    +0.000 A 
ATOM      5  N   UNL     1       1.835   8.236  19.472  0.00  0.00    +0.000 N 
ATOM      6  N   UNL     1       0.433   9.871  20.478  0.00  0.00    +0.000 N 
ATOM      7  C   UNL     1      -0.060   9.005  21.526  0.00  0.00    +0.000 C 
ATOM      8  H   UNL     1       2.374   7.985  20.295  0.00  0.00    +0.000 HD
ENDROOT
BRANCH   1  12
ATOM      9  C   UNL     1      -2.773  13.452  22.539  0.00  0.00    +0.000 A 
ATOM     10  C   UNL     1      -3.121  12.991  21.271  0.00  0.00    +0.000 A 
ATOM     11  C   UNL     1      -2.209  12.250  20.510  0.00  0.00    +0.000 A 
ATOM     12  C   UNL     1      -0.919  11.982  20.993  0.00  0.00    +0.000 A 
ATOM     13  C   UNL     1      -0.561  12.529  22.233  0.00  0.00    +0.000 A 
ATOM     14  C   UNL     1      -1.481  13.243  23.007  0.00  0.00    +0.000 A 
BRANCH   9  15
ATOM     15  O   UNL     1      -3.756  14.112  23.219  0.00  0.00    +0.000 OA
BRANCH  15  17
ATOM     16  C   UNL     1      -4.524  12.419  24.709  0.00  0.00    +0.000 C 
ATOM     17  C   UNL     1      -4.905  13.332  23.558  0.00  0.00    +0.000 C 
ENDBRANCH  15  17
ENDBRANCH   9  15
ENDBRANCH   1  12
BRANCH   5  18
ATOM     18  C   UNL     1       2.449   7.755  18.246  0.00  0.00    +0.000 C 
BRANCH  18  19
ATOM     19  C   UNL     1       2.736   6.273  18.389  0.00  0.00    +0.000 A 
ATOM     20  C   UNL     1       2.076   5.513  19.369  0.00  0.00    +0.000 A 
ATOM     21  C   UNL     1       2.307   4.141  19.490  0.00  0.00    +0.000 A 
ATOM     22  C   UNL     1       3.196   3.492  18.622  0.00  0.00    +0.000 A 
ATOM     23  C   UNL     1       3.852   4.249  17.637  0.00  0.00    +0.000 A 
ATOM     24  C   UNL     1       3.624   5.623  17.521  0.00  0.00    +0.000 A 
BRANCH  22  25
ATOM     25  C   UNL     1       3.444   2.007  18.728  0.00  0.00    +0.000 C 
ATOM     26  F   UNL     1       2.345   1.293  19.101  0.00  0.00    +0.000 F 
ATOM     27  F   UNL     1       3.857   1.462  17.550  0.00  0.00    +0.000 F 
ATOM     28  F   UNL     1       4.411   1.704  19.638  0.00  0.00    +0.000 F 
ENDBRANCH  22  25
ENDBRANCH  18  19
ENDBRANCH   5  18
TORSDOF 6
ENDMDL
