MODEL 1
REMARK VINA RESULT:      -7.6      0.000      0.000
REMARK  Name = 
REMARK  9 active torsions:
REMARK  status: ('A' for Active; 'I' for Inactive)
REMARK    1  A    between atoms: C_1  and  N_2
REMARK    2  A    between atoms: N_2  and  C_3
REMARK    3  A    between atoms: C_3  and  C_4
REMARK    4  A    between atoms: C_4  and  O_5
REMARK    5  A    between atoms: C_4  and  C_6
REMARK    6  A    between atoms: C_6  and  C_7
REMARK    7  A    between atoms: C_6  and  N_14
REMARK    8  A    between atoms: C_16  and  C_17
REMARK    9  A    between atoms: C_16  and  C_18
REMARK                            x       y       z     vdW  Elec       q    Type
REMARK                         _______ _______ _______ _____ _____    ______ ____
ROOT
ATOM      1  C   UNL     1       3.152   5.891  18.014  0.00  0.00    +0.000 C 
ENDROOT
BRANCH   1   2
ATOM      2  N   UNL     1       4.589   5.811  17.732  0.00  0.00    +0.000 N 
ATOM      3  C   UNL     1       5.638   6.013  18.741  0.00  0.00    +0.000 C 
ATOM      4  C   UNL     1       6.985   6.097  17.976  0.00  0.00    +0.000 C 
ATOM      5  C   UNL     1       7.342   7.554  17.665  0.00  0.00    +0.000 C 
ATOM      6  C   UNL     1       8.115   5.423  18.760  0.00  0.00    +0.000 C 
ATOM      7  C   UNL     1       6.604   5.359  16.710  0.00  0.00    +0.000 A 
ATOM      8  C   UNL     1       7.433   4.870  15.706  0.00  0.00    +0.000 A 
ATOM      9  C   UNL     1       6.846   4.255  14.603  0.00  0.00    +0.000 A 
ATOM     10  C   UNL     1       5.452   4.144  14.514  0.00  0.00    +0.000 A 
ATOM     11  C   UNL     1       4.630   4.650  15.529  0.00  0.00    +0.000 A 
ATOM     12  C   UNL     1       5.208   5.247  16.633  0.00  0.00    +0.000 A 
ENDBRANCH   1   2
BRANCH   1  13
ATOM     13  C   UNL     1       2.683   4.523  18.497  0.00  0.00    +0.000 A 
ATOM     14  C   UNL     1       1.561   3.858  17.967  0.00  0.00    +0.000 A 
ATOM     15  C   UNL     1       1.054   2.710  18.586  0.00  0.00    +0.000 A 
ATOM     16  C   UNL     1       1.662   2.207  19.735  0.00  0.00    +0.000 A 
ATOM     17  C   UNL     1       2.782   2.844  20.249  0.00  0.00    +0.000 A 
ATOM     18  F   UNL     1       3.355   2.377  21.366  0.00  0.00    +0.000 F 
ATOM     19  C   UNL     1       3.294   3.986  19.645  0.00  0.00    +0.000 A 
ENDBRANCH   1  13
BRANCH   1  20
ATOM     20  C   UNL     1       2.891   7.134  18.933  0.00  0.00    +0.000 C 
BRANCH  20  21
ATOM     21  O   UNL     1       2.440   8.284  18.172  0.00  0.00    +0.000 OA
ATOM     22  H   UNL     1       1.899   7.953  17.435  0.00  0.00    +0.000 HD
ENDBRANCH  20  21
BRANCH  20  23
ATOM     23  C   UNL     1       1.813   6.884  20.011  0.00  0.00    +0.000 C 
BRANCH  23  25
ATOM     24  C   UNL     1       0.667   8.638  21.259  0.00  0.00    +0.000 C 
ATOM     25  N   UNL     1       1.879   7.833  21.144  0.00  0.00    +0.000 NA
ATOM     26  H   UNL     1       1.956   7.274  22.001  0.00  0.00    +0.000 HD
ENDBRANCH  23  25
ENDBRANCH  20  23
ENDBRANCH   1  20
TORSDOF 6
ENDMDL
MODEL 2
REMARK VINA RESULT:      -7.5      0.980      1.385
REMARK  Name = 
REMARK  9 active torsions:
REMARK  status: ('A' for Active; 'I' for Inactive)
REMARK    1  A    between atoms: C_1  and  N_2
REMARK    2  A    between atoms: N_2  and  C_3
REMARK    3  A    between atoms: C_3  and  C_4
REMARK    4  A    between atoms: C_4  and  O_5
REMARK    5  A    between atoms: C_4  and  C_6
REMARK    6  A    between atoms: C_6  and  C_7
REMARK    7  A    between atoms: C_6  and  N_14
REMARK    8  A    between atoms: C_16  and  C_17
REMARK    9  A    between atoms: C_16  and  C_18
REMARK                            x       y       z     vdW  Elec       q    Type
REMARK                         _______ _______ _______ _____ _____    ______ ____
ROOT
ATOM      1  C   UNL     1       3.100   5.977  17.942  0.00  0.00    +0.000 C 
ENDROOT
BRANCH   1   2
ATOM      2  N   UNL     1       4.543   5.886  17.691  0.00  0.00    +0.000 N 
ATOM      3  C   UNL     1       5.572   6.119  18.714  0.00  0.00    +0.000 C 
ATOM      4  C   UNL     1       6.933   6.175  17.974  0.00  0.00    +0.000 C 
ATOM      5  C   UNL     1       7.300   7.621  17.623  0.00  0.00    +0.000 C 
ATOM      6  C   UNL     1       8.046   5.525  18.802  0.00  0.00    +0.000 C 
ATOM      7  C   UNL     1       6.576   5.397  16.725  0.00  0.00    +0.000 A 
ATOM      8  C   UNL     1       7.423   4.875  15.754  0.00  0.00    +0.000 A 
ATOM      9  C   UNL     1       6.857   4.225  14.660  0.00  0.00    +0.000 A 
ATOM     10  C   UNL     1       5.465   4.114  14.547  0.00  0.00    +0.000 A 
ATOM     11  C   UNL     1       4.624   4.654  15.528  0.00  0.00    +0.000 A 
ATOM     12  C   UNL     1       5.181   5.285  16.624  0.00  0.00    +0.000 A 
ENDBRANCH   1   2
BRANCH   1  13
ATOM     13  C   UNL     1       2.675   4.750  18.742  0.00  0.00    +0.000 A 
ATOM     14  C   UNL     1       3.465   4.175  19.755  0.00  0.00    +0.000 A 
ATOM     15  C   UNL     1       3.124   2.936  20.308  0.00  0.00    +0.000 A 
ATOM     16  C   UNL     1       1.990   2.258  19.864  0.00  0.00    +0.000 A 
ATOM     17  C   UNL     1       1.195   2.830  18.882  0.00  0.00    +0.000 A 
ATOM     18  F   UNL     1       0.117   2.171  18.437  0.00  0.00    +0.000 F 
ATOM     19  C   UNL     1       1.523   4.060  18.324  0.00  0.00    +0.000 A 
ENDBRANCH   1  13
BRANCH   1  20
ATOM     20  C   UNL     1       2.783   7.394  18.532  0.00  0.00    +0.000 C 
BRANCH  20  21
ATOM     21  O   UNL     1       1.902   8.156  17.667  0.00  0.00    +0.000 OA
ATOM     22  H   UNL     1       0.988   7.933  17.912  0.00  0.00    +0.000 HD
ENDBRANCH  20  21
BRANCH  20  23
ATOM     23  C   UNL     1       2.091   7.344  19.912  0.00  0.00    +0.000 C 
BRANCH  23  25
ATOM     24  C   UNL     1       1.152   8.701  21.708  0.00  0.00    +0.000 C 
ATOM     25  N   UNL     1       1.399   8.601  20.273  0.00  0.00    +0.000 NA
ATOM     26  H   UNL     1       2.025   9.373  20.017  0.00  0.00    +0.000 HD
ENDBRANCH  23  25
ENDBRANCH  20  23
ENDBRANCH   1  20
TORSDOF 6
ENDMDL
MODEL 3
REMARK VINA RESULT:      -7.5      2.158      6.304
REMARK  Name = 
REMARK  9 active torsions:
REMARK  status: ('A' for Active; 'I' for Inactive)
REMARK    1  A    between atoms: C_1  and  N_2
REMARK    2  A    between atoms: N_2  and  C_3
REMARK    3  A    between atoms: C_3  and  C_4
REMARK    4  A    between atoms: C_4  and  O_5
REMARK    5  A    between atoms: C_4  and  C_6
REMARK    6  A    between atoms: C_6  and  C_7
REMARK    7  A    between atoms: C_6  and  N_14
REMARK    8  A    between atoms: C_16  and  C_17
REMARK    9  A    between atoms: C_16  and  C_18
REMARK                            x       y       z     vdW  Elec       q    Type
REMARK                         _______ _______ _______ _____ _____    ______ ____
ROOT
ATOM      1  C   UNL     1       4.214   5.217  17.433  0.00  0.00    +0.000 C 
ENDROOT
BRANCH   1   2
ATOM      2  N   UNL     1       3.335   5.126  18.604  0.00  0.00    +0.000 N 
ATOM      3  C   UNL     1       3.294   3.973  19.514  0.00  0.00    +0.000 C 
ATOM      4  C   UNL     1       2.068   4.177  20.441  0.00  0.00    +0.000 C 
ATOM      5  C   UNL     1       0.835   3.466  19.874  0.00  0.00    +0.000 C 
ATOM      6  C   UNL     1       2.357   3.695  21.865  0.00  0.00    +0.000 C 
ATOM      7  C   UNL     1       1.914   5.680  20.330  0.00  0.00    +0.000 A 
ATOM      8  C   UNL     1       1.145   6.535  21.112  0.00  0.00    +0.000 A 
ATOM      9  C   UNL     1       1.129   7.890  20.793  0.00  0.00    +0.000 A 
ATOM     10  C   UNL     1       1.867   8.368  19.703  0.00  0.00    +0.000 A 
ATOM     11  C   UNL     1       2.629   7.493  18.918  0.00  0.00    +0.000 A 
ATOM     12  C   UNL     1       2.662   6.150  19.241  0.00  0.00    +0.000 A 
ENDBRANCH   1   2
BRANCH   1  13
ATOM     13  C   UNL     1       5.480   5.963  17.842  0.00  0.00    +0.000 A 
ATOM     14  C   UNL     1       5.951   7.110  17.176  0.00  0.00    +0.000 A 
ATOM     15  C   UNL     1       7.220   7.629  17.459  0.00  0.00    +0.000 A 
ATOM     16  C   UNL     1       8.031   7.014  18.412  0.00  0.00    +0.000 A 
ATOM     17  C   UNL     1       7.563   5.896  19.087  0.00  0.00    +0.000 A 
ATOM     18  F   UNL     1       8.349   5.291  19.988  0.00  0.00    +0.000 F 
ATOM     19  C   UNL     1       6.306   5.372  18.816  0.00  0.00    +0.000 A 
ENDBRANCH   1  13
BRANCH   1  20
ATOM     20  C   UNL     1       4.363   3.788  16.807  0.00  0.00    +0.000 C 
BRANCH  20  21
ATOM     21  O   UNL     1       3.076   3.164  16.570  0.00  0.00    +0.000 OA
ATOM     22  H   UNL     1       3.243   2.257  16.259  0.00  0.00    +0.000 HD
ENDBRANCH  20  21
BRANCH  20  23
ATOM     23  C   UNL     1       5.096   3.787  15.447  0.00  0.00    +0.000 C 
BRANCH  23  25
ATOM     24  C   UNL     1       7.200   4.767  14.696  0.00  0.00    +0.000 C 
ATOM     25  N   UNL     1       6.571   3.781  15.569  0.00  0.00    +0.000 NA
ATOM     26  H   UNL     1       6.794   4.043  16.536  0.00  0.00    +0.000 HD
ENDBRANCH  23  25
ENDBRANCH  20  23
ENDBRANCH   1  20
TORSDOF 6
ENDMDL
MODEL 4
REMARK VINA RESULT:      -7.3      2.315      6.382
REMARK  Name = 
REMARK  9 active torsions:
REMARK  status: ('A' for Active; 'I' for Inactive)
REMARK    1  A    between atoms: C_1  and  N_2
REMARK    2  A    between atoms: N_2  and  C_3
REMARK    3  A    between atoms: C_3  and  C_4
REMARK    4  A    between atoms: C_4  and  O_5
REMARK    5  A    between atoms: C_4  and  C_6
REMARK    6  A    between atoms: C_6  and  C_7
REMARK    7  A    between atoms: C_6  and  N_14
REMARK    8  A    between atoms: C_16  and  C_17
REMARK    9  A    between atoms: C_16  and  C_18
REMARK                            x       y       z     vdW  Elec       q    Type
REMARK                         _______ _______ _______ _____ _____    ______ ____
ROOT
ATOM      1  C   UNL     1       5.086   5.405  16.648  0.00  0.00    +0.000 C 
ENDROOT
BRANCH   1   2
ATOM      2  N   UNL     1       4.195   4.767  17.623  0.00  0.00    +0.000 N 
ATOM      3  C   UNL     1       4.291   3.357  18.025  0.00  0.00    +0.000 C 
ATOM      4  C   UNL     1       3.021   3.042  18.858  0.00  0.00    +0.000 C 
ATOM      5  C   UNL     1       1.919   2.461  17.967  0.00  0.00    +0.000 C 
ATOM      6  C   UNL     1       3.334   2.088  20.014  0.00  0.00    +0.000 C 
ATOM      7  C   UNL     1       2.660   4.441  19.310  0.00  0.00    +0.000 A 
ATOM      8  C   UNL     1       1.755   4.832  20.291  0.00  0.00    +0.000 A 
ATOM      9  C   UNL     1       1.556   6.193  20.505  0.00  0.00    +0.000 A 
ATOM     10  C   UNL     1       2.251   7.138  19.739  0.00  0.00    +0.000 A 
ATOM     11  C   UNL     1       3.152   6.729  18.747  0.00  0.00    +0.000 A 
ATOM     12  C   UNL     1       3.365   5.380  18.542  0.00  0.00    +0.000 A 
ENDBRANCH   1   2
BRANCH   1  13
ATOM     13  C   UNL     1       6.140   6.200  17.412  0.00  0.00    +0.000 A 
ATOM     14  C   UNL     1       6.538   7.502  17.054  0.00  0.00    +0.000 A 
ATOM     15  C   UNL     1       7.649   8.100  17.658  0.00  0.00    +0.000 A 
ATOM     16  C   UNL     1       8.374   7.411  18.629  0.00  0.00    +0.000 A 
ATOM     17  C   UNL     1       7.974   6.137  19.002  0.00  0.00    +0.000 A 
ATOM     18  F   UNL     1       8.681   5.463  19.919  0.00  0.00    +0.000 F 
ATOM     19  C   UNL     1       6.872   5.531  18.410  0.00  0.00    +0.000 A 
ENDBRANCH   1  13
BRANCH   1  20
ATOM     20  C   UNL     1       5.570   4.320  15.627  0.00  0.00    +0.000 C 
BRANCH  20  21
ATOM     21  O   UNL     1       4.861   4.409  14.365  0.00  0.00    +0.000 OA
ATOM     22  H   UNL     1       5.455   4.837  13.725  0.00  0.00    +0.000 HD
ENDBRANCH  20  21
BRANCH  20  23
ATOM     23  C   UNL     1       7.072   4.428  15.282  0.00  0.00    +0.000 C 
BRANCH  23  25
ATOM     24  C   UNL     1       7.866   4.953  13.036  0.00  0.00    +0.000 C 
ATOM     25  N   UNL     1       7.380   5.493  14.302  0.00  0.00    +0.000 NA
ATOM     26  H   UNL     1       6.501   5.984  14.106  0.00  0.00    +0.000 HD
ENDBRANCH  23  25
ENDBRANCH  20  23
ENDBRANCH   1  20
TORSDOF 6
ENDMDL
MODEL 5
REMARK VINA RESULT:      -7.3      2.706      6.553
REMARK  Name = 
REMARK  9 active torsions:
REMARK  status: ('A' for Active; 'I' for Inactive)
REMARK    1  A    between atoms: C_1  and  N_2
REMARK    2  A    between atoms: N_2  and  C_3
REMARK    3  A    between atoms: C_3  and  C_4
REMARK    4  A    between atoms: C_4  and  O_5
REMARK    5  A    between atoms: C_4  and  C_6
REMARK    6  A    between atoms: C_6  and  C_7
REMARK    7  A    between atoms: C_6  and  N_14
REMARK    8  A    between atoms: C_16  and  C_17
REMARK    9  A    between atoms: C_16  and  C_18
REMARK                            x       y       z     vdW  Elec       q    Type
REMARK                         _______ _______ _______ _____ _____    ______ ____
ROOT
ATOM      1  C   UNL     1       5.340   5.425  16.570  0.00  0.00    +0.000 C 
ENDROOT
BRANCH   1   2
ATOM      2  N   UNL     1       4.432   4.829  17.557  0.00  0.00    +0.000 N 
ATOM      3  C   UNL     1       4.545   3.451  18.053  0.00  0.00    +0.000 C 
ATOM      4  C   UNL     1       3.257   3.160  18.865  0.00  0.00    +0.000 C 
ATOM      5  C   UNL     1       2.197   2.496  17.980  0.00  0.00    +0.000 C 
ATOM      6  C   UNL     1       3.553   2.290  20.090  0.00  0.00    +0.000 C 
ATOM      7  C   UNL     1       2.850   4.576  19.213  0.00  0.00    +0.000 A 
ATOM      8  C   UNL     1       1.906   5.008  20.138  0.00  0.00    +0.000 A 
ATOM      9  C   UNL     1       1.671   6.375  20.257  0.00  0.00    +0.000 A 
ATOM     10  C   UNL     1       2.369   7.285  19.452  0.00  0.00    +0.000 A 
ATOM     11  C   UNL     1       3.310   6.835  18.518  0.00  0.00    +0.000 A 
ATOM     12  C   UNL     1       3.560   5.480  18.407  0.00  0.00    +0.000 A 
ENDBRANCH   1   2
BRANCH   1  13
ATOM     13  C   UNL     1       6.516   6.047  17.317  0.00  0.00    +0.000 A 
ATOM     14  C   UNL     1       7.178   5.412  18.384  0.00  0.00    +0.000 A 
ATOM     15  C   UNL     1       8.107   6.110  19.164  0.00  0.00    +0.000 A 
ATOM     16  C   UNL     1       8.390   7.446  18.886  0.00  0.00    +0.000 A 
ATOM     17  C   UNL     1       7.757   8.071  17.822  0.00  0.00    +0.000 A 
ATOM     18  F   UNL     1       8.011   9.362  17.567  0.00  0.00    +0.000 F 
ATOM     19  C   UNL     1       6.833   7.389  17.040  0.00  0.00    +0.000 A 
ENDBRANCH   1  13
BRANCH   1  20
ATOM     20  C   UNL     1       5.644   4.358  15.462  0.00  0.00    +0.000 C 
BRANCH  20  21
ATOM     21  O   UNL     1       4.823   4.554  14.283  0.00  0.00    +0.000 OA
ATOM     22  H   UNL     1       4.004   4.046  14.409  0.00  0.00    +0.000 HD
ENDBRANCH  20  21
BRANCH  20  23
ATOM     23  C   UNL     1       7.109   4.381  14.974  0.00  0.00    +0.000 C 
BRANCH  23  25
ATOM     24  C   UNL     1       7.799   5.000  12.718  0.00  0.00    +0.000 C 
ATOM     25  N   UNL     1       7.403   5.487  14.035  0.00  0.00    +0.000 NA
ATOM     26  H   UNL     1       6.534   6.019  13.915  0.00  0.00    +0.000 HD
ENDBRANCH  23  25
ENDBRANCH  20  23
ENDBRANCH   1  20
TORSDOF 6
ENDMDL
MODEL 6
REMARK VINA RESULT:      -7.3      2.601      6.562
REMARK  Name = 
REMARK  9 active torsions:
REMARK  status: ('A' for Active; 'I' for Inactive)
REMARK    1  A    between atoms: C_1  and  N_2
REMARK    2  A    between atoms: N_2  and  C_3
REMARK    3  A    between atoms: C_3  and  C_4
REMARK    4  A    between atoms: C_4  and  O_5
REMARK    5  A    between atoms: C_4  and  C_6
REMARK    6  A    between atoms: C_6  and  C_7
REMARK    7  A    between atoms: C_6  and  N_14
REMARK    8  A    between atoms: C_16  and  C_17
REMARK    9  A    between atoms: C_16  and  C_18
REMARK                            x       y       z     vdW  Elec       q    Type
REMARK                         _______ _______ _______ _____ _____    ______ ____
ROOT
ATOM      1  C   UNL     1       4.951   5.242  16.932  0.00  0.00    +0.000 C 
ENDROOT
BRANCH   1   2
ATOM      2  N   UNL     1       4.089   4.796  18.033  0.00  0.00    +0.000 N 
ATOM      3  C   UNL     1       4.212   3.491  18.696  0.00  0.00    +0.000 C 
ATOM      4  C   UNL     1       2.966   3.331  19.605  0.00  0.00    +0.000 C 
ATOM      5  C   UNL     1       1.851   2.581  18.870  0.00  0.00    +0.000 C 
ATOM      6  C   UNL     1       3.317   2.620  20.915  0.00  0.00    +0.000 C 
ATOM      7  C   UNL     1       2.597   4.789  19.788  0.00  0.00    +0.000 A 
ATOM      8  C   UNL     1       1.710   5.353  20.697  0.00  0.00    +0.000 A 
ATOM      9  C   UNL     1       1.499   6.729  20.651  0.00  0.00    +0.000 A 
ATOM     10  C   UNL     1       2.164   7.514  19.700  0.00  0.00    +0.000 A 
ATOM     11  C   UNL     1       3.047   6.930  18.784  0.00  0.00    +0.000 A 
ATOM     12  C   UNL     1       3.273   5.567  18.837  0.00  0.00    +0.000 A 
ENDBRANCH   1   2
BRANCH   1  13
ATOM     13  C   UNL     1       6.227   5.825  17.529  0.00  0.00    +0.000 A 
ATOM     14  C   UNL     1       6.948   5.206  18.568  0.00  0.00    +0.000 A 
ATOM     15  C   UNL     1       7.987   5.883  19.216  0.00  0.00    +0.000 A 
ATOM     16  C   UNL     1       8.325   7.180  18.834  0.00  0.00    +0.000 A 
ATOM     17  C   UNL     1       7.632   7.787  17.796  0.00  0.00    +0.000 A 
ATOM     18  F   UNL     1       7.939   9.042  17.441  0.00  0.00    +0.000 F 
ATOM     19  C   UNL     1       6.598   7.126  17.144  0.00  0.00    +0.000 A 
ENDBRANCH   1  13
BRANCH   1  20
ATOM     20  C   UNL     1       5.081   4.074  15.894  0.00  0.00    +0.000 C 
BRANCH  20  21
ATOM     21  O   UNL     1       3.800   3.455  15.613  0.00  0.00    +0.000 OA
ATOM     22  H   UNL     1       3.138   4.165  15.557  0.00  0.00    +0.000 HD
ENDBRANCH  20  21
BRANCH  20  23
ATOM     23  C   UNL     1       5.648   4.526  14.530  0.00  0.00    +0.000 C 
BRANCH  23  25
ATOM     24  C   UNL     1       5.944   3.369  12.404  0.00  0.00    +0.000 C 
ATOM     25  N   UNL     1       6.360   3.454  13.800  0.00  0.00    +0.000 NA
ATOM     26  H   UNL     1       7.357   3.697  13.807  0.00  0.00    +0.000 HD
ENDBRANCH  23  25
ENDBRANCH  20  23
ENDBRANCH   1  20
TORSDOF 6
ENDMDL
MODEL 7
REMARK VINA RESULT:      -7.3      1.347      1.366
REMARK  Name = 
REMARK  9 active torsions:
REMARK  status: ('A' for Active; 'I' for Inactive)
REMARK    1  A    between atoms: C_1  and  N_2
REMARK    2  A    between atoms: N_2  and  C_3
REMARK    3  A    between atoms: C_3  and  C_4
REMARK    4  A    between atoms: C_4  and  O_5
REMARK    5  A    between atoms: C_4  and  C_6
REMARK    6  A    between atoms: C_6  and  C_7
REMARK    7  A    between atoms: C_6  and  N_14
REMARK    8  A    between atoms: C_16  and  C_17
REMARK    9  A    between atoms: C_16  and  C_18
REMARK                            x       y       z     vdW  Elec       q    Type
REMARK                         _______ _______ _______ _____ _____    ______ ____
ROOT
ATOM      1  C   UNL     1       3.130   6.110  17.653  0.00  0.00    +0.000 C 
ENDROOT
BRANCH   1   2
ATOM      2  N   UNL     1       4.570   5.904  17.465  0.00  0.00    +0.000 N 
ATOM      3  C   UNL     1       5.561   5.988  18.547  0.00  0.00    +0.000 C 
ATOM      4  C   UNL     1       6.959   5.962  17.876  0.00  0.00    +0.000 C 
ATOM      5  C   UNL     1       7.467   7.386  17.629  0.00  0.00    +0.000 C 
ATOM      6  C   UNL     1       7.967   5.171  18.715  0.00  0.00    +0.000 C 
ATOM      7  C   UNL     1       6.601   5.289  16.567  0.00  0.00    +0.000 A 
ATOM      8  C   UNL     1       7.448   4.747  15.608  0.00  0.00    +0.000 A 
ATOM      9  C   UNL     1       6.885   4.212  14.453  0.00  0.00    +0.000 A 
ATOM     10  C   UNL     1       5.497   4.232  14.268  0.00  0.00    +0.000 A 
ATOM     11  C   UNL     1       4.656   4.790  15.239  0.00  0.00    +0.000 A 
ATOM     12  C   UNL     1       5.208   5.308  16.395  0.00  0.00    +0.000 A 
ENDBRANCH   1   2
BRANCH   1  13
ATOM     13  C   UNL     1       2.576   4.928  18.442  0.00  0.00    +0.000 A 
ATOM     14  C   UNL     1       1.787   3.915  17.866  0.00  0.00    +0.000 A 
ATOM     15  C   UNL     1       1.135   2.974  18.671  0.00  0.00    +0.000 A 
ATOM     16  C   UNL     1       1.267   3.028  20.058  0.00  0.00    +0.000 A 
ATOM     17  C   UNL     1       2.062   4.010  20.630  0.00  0.00    +0.000 A 
ATOM     18  F   UNL     1       2.173   4.078  21.964  0.00  0.00    +0.000 F 
ATOM     19  C   UNL     1       2.714   4.951  19.842  0.00  0.00    +0.000 A 
ENDBRANCH   1  13
BRANCH   1  20
ATOM     20  C   UNL     1       2.901   7.554  18.219  0.00  0.00    +0.000 C 
BRANCH  20  21
ATOM     21  O   UNL     1       3.819   8.515  17.638  0.00  0.00    +0.000 OA
ATOM     22  H   UNL     1       4.712   8.131  17.684  0.00  0.00    +0.000 HD
ENDBRANCH  20  21
BRANCH  20  23
ATOM     23  C   UNL     1       1.482   8.101  17.948  0.00  0.00    +0.000 C 
BRANCH  23  25
ATOM     24  C   UNL     1       0.733  10.342  18.555  0.00  0.00    +0.000 C 
ATOM     25  N   UNL     1       1.459   9.534  17.580  0.00  0.00    +0.000 NA
ATOM     26  H   UNL     1       2.432   9.859  17.578  0.00  0.00    +0.000 HD
ENDBRANCH  23  25
ENDBRANCH  20  23
ENDBRANCH   1  20
TORSDOF 6
ENDMDL
MODEL 8
REMARK VINA RESULT:      -7.3      1.417      1.507
REMARK  Name = 
REMARK  9 active torsions:
REMARK  status: ('A' for Active; 'I' for Inactive)
REMARK    1  A    between atoms: C_1  and  N_2
REMARK    2  A    between atoms: N_2  and  C_3
REMARK    3  A    between atoms: C_3  and  C_4
REMARK    4  A    between atoms: C_4  and  O_5
REMARK    5  A    between atoms: C_4  and  C_6
REMARK    6  A    between atoms: C_6  and  C_7
REMARK    7  A    between atoms: C_6  and  N_14
REMARK    8  A    between atoms: C_16  and  C_17
REMARK    9  A    between atoms: C_16  and  C_18
REMARK                            x       y       z     vdW  Elec       q    Type
REMARK                         _______ _______ _______ _____ _____    ______ ____
ROOT
ATOM      1  C   UNL     1       2.974   5.555  17.726  0.00  0.00    +0.000 C 
ENDROOT
BRANCH   1   2
ATOM      2  N   UNL     1       4.427   5.598  17.526  0.00  0.00    +0.000 N 
ATOM      3  C   UNL     1       5.401   5.791  18.608  0.00  0.00    +0.000 C 
ATOM      4  C   UNL     1       6.778   6.028  17.935  0.00  0.00    +0.000 C 
ATOM      5  C   UNL     1       7.043   7.527  17.757  0.00  0.00    +0.000 C 
ATOM      6  C   UNL     1       7.910   5.375  18.732  0.00  0.00    +0.000 C 
ATOM      7  C   UNL     1       6.522   5.369  16.595  0.00  0.00    +0.000 A 
ATOM      8  C   UNL     1       7.438   5.021  15.609  0.00  0.00    +0.000 A 
ATOM      9  C   UNL     1       6.959   4.456  14.430  0.00  0.00    +0.000 A 
ATOM     10  C   UNL     1       5.584   4.256  14.249  0.00  0.00    +0.000 A 
ATOM     11  C   UNL     1       4.673   4.621  15.248  0.00  0.00    +0.000 A 
ATOM     12  C   UNL     1       5.144   5.167  16.427  0.00  0.00    +0.000 A 
ENDBRANCH   1   2
BRANCH   1  13
ATOM     13  C   UNL     1       2.619   4.217  18.367  0.00  0.00    +0.000 A 
ATOM     14  C   UNL     1       2.704   2.987  17.688  0.00  0.00    +0.000 A 
ATOM     15  C   UNL     1       2.171   1.823  18.252  0.00  0.00    +0.000 A 
ATOM     16  C   UNL     1       1.552   1.869  19.501  0.00  0.00    +0.000 A 
ATOM     17  C   UNL     1       1.484   3.074  20.184  0.00  0.00    +0.000 A 
ATOM     18  F   UNL     1       0.871   3.126  21.374  0.00  0.00    +0.000 F 
ATOM     19  C   UNL     1       2.010   4.237  19.635  0.00  0.00    +0.000 A 
ENDBRANCH   1  13
BRANCH   1  20
ATOM     20  C   UNL     1       2.531   6.870  18.455  0.00  0.00    +0.000 C 
BRANCH  20  21
ATOM     21  O   UNL     1       3.015   6.921  19.821  0.00  0.00    +0.000 OA
ATOM     22  H   UNL     1       3.931   6.593  19.819  0.00  0.00    +0.000 HD
ENDBRANCH  20  21
BRANCH  20  23
ATOM     23  C   UNL     1       3.045   8.155  17.769  0.00  0.00    +0.000 C 
BRANCH  23  25
ATOM     24  C   UNL     1       1.396   9.789  18.517  0.00  0.00    +0.000 C 
ATOM     25  N   UNL     1       1.965   9.086  17.372  0.00  0.00    +0.000 NA
ATOM     26  H   UNL     1       2.388   9.792  16.760  0.00  0.00    +0.000 HD
ENDBRANCH  23  25
ENDBRANCH  20  23
ENDBRANCH   1  20
TORSDOF 6
ENDMDL
MODEL 9
REMARK VINA RESULT:      -7.2      1.453      1.676
REMARK  Name = 
REMARK  9 active torsions:
REMARK  status: ('A' for Active; 'I' for Inactive)
REMARK    1  A    between atoms: C_1  and  N_2
REMARK    2  A    between atoms: N_2  and  C_3
REMARK    3  A    between atoms: C_3  and  C_4
REMARK    4  A    between atoms: C_4  and  O_5
REMARK    5  A    between atoms: C_4  and  C_6
REMARK    6  A    between atoms: C_6  and  C_7
REMARK    7  A    between atoms: C_6  and  N_14
REMARK    8  A    between atoms: C_16  and  C_17
REMARK    9  A    between atoms: C_16  and  C_18
REMARK                            x       y       z     vdW  Elec       q    Type
REMARK                         _______ _______ _______ _____ _____    ______ ____
ROOT
ATOM      1  C   UNL     1       3.176   6.125  17.883  0.00  0.00    +0.000 C 
ENDROOT
BRANCH   1   2
ATOM      2  N   UNL     1       4.609   5.899  17.663  0.00  0.00    +0.000 N 
ATOM      3  C   UNL     1       5.621   5.937  18.728  0.00  0.00    +0.000 C 
ATOM      4  C   UNL     1       7.006   5.905  18.031  0.00  0.00    +0.000 C 
ATOM      5  C   UNL     1       7.535   7.326  17.812  0.00  0.00    +0.000 C 
ATOM      6  C   UNL     1       8.014   5.075  18.830  0.00  0.00    +0.000 C 
ATOM      7  C   UNL     1       6.612   5.273  16.712  0.00  0.00    +0.000 A 
ATOM      8  C   UNL     1       7.433   4.742  15.723  0.00  0.00    +0.000 A 
ATOM      9  C   UNL     1       6.840   4.248  14.565  0.00  0.00    +0.000 A 
ATOM     10  C   UNL     1       5.449   4.297  14.407  0.00  0.00    +0.000 A 
ATOM     11  C   UNL     1       4.636   4.844  15.407  0.00  0.00    +0.000 A 
ATOM     12  C   UNL     1       5.218   5.321  16.566  0.00  0.00    +0.000 A 
ENDBRANCH   1   2
BRANCH   1  13
ATOM     13  C   UNL     1       2.671   5.074  18.865  0.00  0.00    +0.000 A 
ATOM     14  C   UNL     1       2.378   5.353  20.213  0.00  0.00    +0.000 A 
ATOM     15  C   UNL     1       2.121   4.316  21.117  0.00  0.00    +0.000 A 
ATOM     16  C   UNL     1       2.146   2.990  20.687  0.00  0.00    +0.000 A 
ATOM     17  C   UNL     1       2.413   2.710  19.355  0.00  0.00    +0.000 A 
ATOM     18  F   UNL     1       2.460   1.436  18.943  0.00  0.00    +0.000 F 
ATOM     19  C   UNL     1       2.670   3.731  18.448  0.00  0.00    +0.000 A 
ENDBRANCH   1  13
BRANCH   1  20
ATOM     20  C   UNL     1       2.956   7.637  18.233  0.00  0.00    +0.000 C 
BRANCH  20  21
ATOM     21  O   UNL     1       3.899   8.496  17.542  0.00  0.00    +0.000 OA
ATOM     22  H   UNL     1       4.759   8.041  17.536  0.00  0.00    +0.000 HD
ENDBRANCH  20  21
BRANCH  20  23
ATOM     23  C   UNL     1       1.550   8.156  17.859  0.00  0.00    +0.000 C 
BRANCH  23  25
ATOM     24  C   UNL     1       1.125  10.424  18.648  0.00  0.00    +0.000 C 
ATOM     25  N   UNL     1       1.522   9.594  17.515  0.00  0.00    +0.000 NA
ATOM     26  H   UNL     1       2.479   9.862  17.261  0.00  0.00    +0.000 HD
ENDBRANCH  23  25
ENDBRANCH  20  23
ENDBRANCH   1  20
TORSDOF 6
ENDMDL
