MODEL 1
REMARK VINA RESULT:      -9.0      0.000      0.000
REMARK  Name = 
REMARK  5 active torsions:
REMARK  status: ('A' for Active; 'I' for Inactive)
REMARK    1  A    between atoms: C_1  and  C_2
REMARK    2  A    between atoms: C_12  and  C_13
REMARK    3  A    between atoms: C_18  and  C_19
REMARK    4  A    between atoms: N_21  and  C_22
REMARK    5  A    between atoms: C_22  and  C_23
REMARK                            x       y       z     vdW  Elec       q    Type
REMARK                         _______ _______ _______ _____ _____    ______ ____
ROOT
ATOM      1  C   UNL     1       1.775   7.583  20.268  0.00  0.00    +0.000 C 
ATOM      2  O   UNL     1       2.446   7.830  19.270  0.00  0.00    +0.000 OA
ATOM      3  N   UNL     1       1.665   6.357  20.879  0.00  0.00    +0.000 N 
ATOM      4  C   UNL     1       2.278   5.248  20.362  0.00  0.00    +0.000 A 
ATOM      5  N   UNL     1       2.905   5.100  19.222  0.00  0.00    +0.000 NA
ATOM      6  C   UNL     1       3.377   3.791  19.114  0.00  0.00    +0.000 A 
ATOM      7  C   UNL     1       3.107   2.995  20.214  0.00  0.00    +0.000 A 
ATOM      8  S   UNL     1       2.188   3.872  21.366  0.00  0.00    +0.000 S 
ATOM      9  H   UNL     1       1.124   6.222  21.718  0.00  0.00    +0.000 HD
ENDROOT
BRANCH   1  21
ATOM     10  C   UNL     1       1.871  13.022  18.669  0.00  0.00    +0.000 C 
ATOM     11  C   UNL     1       0.354  12.936  18.836  0.00  0.00    +0.000 C 
ATOM     12  C   UNL     1      -0.300  14.341  18.726  0.00  0.00    +0.000 C 
ATOM     13  N   UNL     1      -0.447  15.063  19.988  0.00  0.00    +0.000 N 
ATOM     14  C   UNL     1      -0.853  14.439  21.149  0.00  0.00    +0.000 C 
ATOM     15  O   UNL     1      -1.338  15.066  22.083  0.00  0.00    +0.000 OA
ATOM     16  C   UNL     1      -0.605  13.024  21.162  0.00  0.00    +0.000 A 
ATOM     17  N   UNL     1      -0.830  12.171  22.210  0.00  0.00    +0.000 N 
ATOM     18  C   UNL     1      -0.292  10.931  21.930  0.00  0.00    +0.000 A 
ATOM     19  C   UNL     1      -0.168   9.789  22.733  0.00  0.00    +0.000 A 
ATOM     20  C   UNL     1       0.505   8.678  22.193  0.00  0.00    +0.000 A 
ATOM     21  C   UNL     1       0.997   8.701  20.883  0.00  0.00    +0.000 A 
ATOM     22  C   UNL     1       0.826   9.846  20.090  0.00  0.00    +0.000 A 
ATOM     23  C   UNL     1       0.195  10.983  20.623  0.00  0.00    +0.000 A 
ATOM     24  C   UNL     1      -0.029  12.299  20.139  0.00  0.00    +0.000 A 
ATOM     25  H   UNL     1      -0.667  16.050  19.964  0.00  0.00    +0.000 HD
ATOM     26  H   UNL     1      -1.242  12.450  23.091  0.00  0.00    +0.000 HD
ENDBRANCH   1  21
BRANCH   6  27
ATOM     27  C   UNL     1       4.092   3.326  17.924  0.00  0.00    +0.000 C 
ATOM     28  O   UNL     1       3.976   2.187  17.483  0.00  0.00    +0.000 OA
ATOM     29  N   UNL     1       4.900   4.281  17.355  0.00  0.00    +0.000 N 
ATOM     30  H   UNL     1       4.920   5.198  17.800  0.00  0.00    +0.000 HD
BRANCH  29  31
ATOM     31  C   UNL     1       5.608   4.054  16.109  0.00  0.00    +0.000 C 
BRANCH  31  32
ATOM     32  C   UNL     1       7.034   4.614  16.075  0.00  0.00    +0.000 C 
ATOM     33  N   UNL     1       7.841   4.283  17.125  0.00  0.00    +0.000 N 
ATOM     34  O   UNL     1       7.439   5.361  15.188  0.00  0.00    +0.000 OA
ATOM     35  H   UNL     1       7.582   3.537  17.753  0.00  0.00    +0.000 HD
ATOM     36  H   UNL     1       8.808   4.576  17.081  0.00  0.00    +0.000 HD
ENDBRANCH  31  32
ENDBRANCH  29  31
ENDBRANCH   6  27
TORSDOF 4
ENDMDL
MODEL 2
REMARK VINA RESULT:      -9.0      2.736      3.754
REMARK  Name = 
REMARK  5 active torsions:
REMARK  status: ('A' for Active; 'I' for Inactive)
REMARK    1  A    between atoms: C_1  and  C_2
REMARK    2  A    between atoms: C_12  and  C_13
REMARK    3  A    between atoms: C_18  and  C_19
REMARK    4  A    between atoms: N_21  and  C_22
REMARK    5  A    between atoms: C_22  and  C_23
REMARK                            x       y       z     vdW  Elec       q    Type
REMARK                         _______ _______ _______ _____ _____    ______ ____
ROOT
ATOM      1  C   UNL     1       3.490   7.177  17.851  0.00  0.00    +0.000 C 
ATOM      2  O   UNL     1       3.428   7.592  16.698  0.00  0.00    +0.000 OA
ATOM      3  N   UNL     1       4.421   6.290  18.338  0.00  0.00    +0.000 N 
ATOM      4  C   UNL     1       5.361   5.726  17.518  0.00  0.00    +0.000 A 
ATOM      5  N   UNL     1       5.472   5.787  16.215  0.00  0.00    +0.000 NA
ATOM      6  C   UNL     1       6.591   5.062  15.807  0.00  0.00    +0.000 A 
ATOM      7  C   UNL     1       7.314   4.495  16.843  0.00  0.00    +0.000 A 
ATOM      8  S   UNL     1       6.543   4.813  18.342  0.00  0.00    +0.000 S 
ATOM      9  H   UNL     1       4.442   6.011  19.305  0.00  0.00    +0.000 HD
ENDROOT
BRANCH   1  21
ATOM     10  C   UNL     1       1.786  12.541  18.537  0.00  0.00    +0.000 C 
ATOM     11  C   UNL     1       0.387  11.925  18.595  0.00  0.00    +0.000 C 
ATOM     12  C   UNL     1      -0.670  12.980  19.023  0.00  0.00    +0.000 C 
ATOM     13  N   UNL     1      -0.915  13.072  20.462  0.00  0.00    +0.000 N 
ATOM     14  C   UNL     1      -1.007  11.954  21.264  0.00  0.00    +0.000 C 
ATOM     15  O   UNL     1      -1.574  11.983  22.349  0.00  0.00    +0.000 OA
ATOM     16  C   UNL     1      -0.341  10.800  20.727  0.00  0.00    +0.000 A 
ATOM     17  N   UNL     1      -0.201   9.584  21.343  0.00  0.00    +0.000 N 
ATOM     18  C   UNL     1       0.660   8.786  20.616  0.00  0.00    +0.000 A 
ATOM     19  C   UNL     1       1.197   7.525  20.908  0.00  0.00    +0.000 A 
ATOM     20  C   UNL     1       2.124   6.982  20.000  0.00  0.00    +0.000 A 
ATOM     21  C   UNL     1       2.467   7.663  18.827  0.00  0.00    +0.000 A 
ATOM     22  C   UNL     1       1.886   8.909  18.544  0.00  0.00    +0.000 A 
ATOM     23  C   UNL     1       0.990   9.490  19.457  0.00  0.00    +0.000 A 
ATOM     24  C   UNL     1       0.334  10.749  19.524  0.00  0.00    +0.000 A 
ATOM     25  H   UNL     1      -1.426  13.867  20.820  0.00  0.00    +0.000 HD
ATOM     26  H   UNL     1      -0.598   9.356  22.244  0.00  0.00    +0.000 HD
ENDBRANCH   1  21
BRANCH   6  27
ATOM     27  C   UNL     1       6.947   4.924  14.393  0.00  0.00    +0.000 C 
ATOM     28  O   UNL     1       7.841   5.577  13.866  0.00  0.00    +0.000 OA
ATOM     29  N   UNL     1       6.185   3.999  13.718  0.00  0.00    +0.000 N 
ATOM     30  H   UNL     1       5.470   3.508  14.254  0.00  0.00    +0.000 HD
BRANCH  29  31
ATOM     31  C   UNL     1       6.449   3.636  12.339  0.00  0.00    +0.000 C 
BRANCH  31  32
ATOM     32  C   UNL     1       5.436   2.660  11.732  0.00  0.00    +0.000 C 
ATOM     33  N   UNL     1       5.878   1.390  11.502  0.00  0.00    +0.000 N 
ATOM     34  O   UNL     1       4.295   2.991  11.414  0.00  0.00    +0.000 OA
ATOM     35  H   UNL     1       6.738   1.066  11.918  0.00  0.00    +0.000 HD
ATOM     36  H   UNL     1       5.203   0.712  11.176  0.00  0.00    +0.000 HD
ENDBRANCH  31  32
ENDBRANCH  29  31
ENDBRANCH   6  27
TORSDOF 4
ENDMDL
MODEL 3
REMARK VINA RESULT:      -8.9      2.951      9.757
REMARK  Name = 
REMARK  5 active torsions:
REMARK  status: ('A' for Active; 'I' for Inactive)
REMARK    1  A    between atoms: C_1  and  C_2
REMARK    2  A    between atoms: C_12  and  C_13
REMARK    3  A    between atoms: C_18  and  C_19
REMARK    4  A    between atoms: N_21  and  C_22
REMARK    5  A    between atoms: C_22  and  C_23
REMARK                            x       y       z     vdW  Elec       q    Type
REMARK                         _______ _______ _______ _____ _____    ______ ____
ROOT
ATOM      1  C   UNL     1       2.232   9.104  18.123  0.00  0.00    +0.000 C 
ATOM      2  O   UNL     1       2.473  10.056  17.388  0.00  0.00    +0.000 OA
ATOM      3  N   UNL     1       1.449   9.140  19.254  0.00  0.00    +0.000 N 
ATOM      4  C   UNL     1       0.901  10.311  19.701  0.00  0.00    +0.000 A 
ATOM      5  N   UNL     1       1.101  11.536  19.284  0.00  0.00    +0.000 NA
ATOM      6  C   UNL     1       0.322  12.418  20.033  0.00  0.00    +0.000 A 
ATOM      7  C   UNL     1      -0.475  11.808  20.986  0.00  0.00    +0.000 A 
ATOM      8  S   UNL     1      -0.193  10.116  20.996  0.00  0.00    +0.000 S 
ATOM      9  H   UNL     1       1.259   8.316  19.801  0.00  0.00    +0.000 HD
ENDROOT
BRANCH   1  21
ATOM     10  C   UNL     1       0.917   4.103  20.448  0.00  0.00    +0.000 C 
ATOM     11  C   UNL     1       0.958   3.598  19.005  0.00  0.00    +0.000 C 
ATOM     12  C   UNL     1       0.865   2.047  18.954  0.00  0.00    +0.000 C 
ATOM     13  N   UNL     1       2.147   1.344  18.980  0.00  0.00    +0.000 N 
ATOM     14  C   UNL     1       3.239   1.779  18.259  0.00  0.00    +0.000 C 
ATOM     15  O   UNL     1       4.161   1.028  17.968  0.00  0.00    +0.000 OA
ATOM     16  C   UNL     1       3.202   3.180  17.943  0.00  0.00    +0.000 A 
ATOM     17  N   UNL     1       4.185   3.895  17.312  0.00  0.00    +0.000 N 
ATOM     18  C   UNL     1       3.887   5.243  17.355  0.00  0.00    +0.000 A 
ATOM     19  C   UNL     1       4.640   6.355  16.957  0.00  0.00    +0.000 A 
ATOM     20  C   UNL     1       4.102   7.632  17.198  0.00  0.00    +0.000 A 
ATOM     21  C   UNL     1       2.838   7.782  17.781  0.00  0.00    +0.000 A 
ATOM     22  C   UNL     1       2.091   6.648  18.136  0.00  0.00    +0.000 A 
ATOM     23  C   UNL     1       2.628   5.364  17.944  0.00  0.00    +0.000 A 
ATOM     24  C   UNL     1       2.193   4.056  18.288  0.00  0.00    +0.000 A 
ATOM     25  H   UNL     1       2.154   0.349  19.158  0.00  0.00    +0.000 HD
ATOM     26  H   UNL     1       5.042   3.491  16.959  0.00  0.00    +0.000 HD
ENDBRANCH   1  21
BRANCH   6  27
ATOM     27  C   UNL     1       0.367  13.865  19.811  0.00  0.00    +0.000 C 
ATOM     28  O   UNL     1      -0.424  14.642  20.333  0.00  0.00    +0.000 OA
ATOM     29  N   UNL     1       1.374  14.264  18.964  0.00  0.00    +0.000 N 
ATOM     30  H   UNL     1       1.980  13.535  18.587  0.00  0.00    +0.000 HD
BRANCH  29  31
ATOM     31  C   UNL     1       1.657  15.662  18.700  0.00  0.00    +0.000 C 
BRANCH  31  32
ATOM     32  C   UNL     1       2.990  15.920  17.991  0.00  0.00    +0.000 C 
ATOM     33  N   UNL     1       3.557  14.853  17.357  0.00  0.00    +0.000 N 
ATOM     34  O   UNL     1       3.562  17.008  18.016  0.00  0.00    +0.000 OA
ATOM     35  H   UNL     1       3.018  14.019  17.179  0.00  0.00    +0.000 HD
ATOM     36  H   UNL     1       4.395  15.022  16.817  0.00  0.00    +0.000 HD
ENDBRANCH  31  32
ENDBRANCH  29  31
ENDBRANCH   6  27
TORSDOF 4
ENDMDL
MODEL 4
REMARK VINA RESULT:      -8.8      2.550      3.439
REMARK  Name = 
REMARK  5 active torsions:
REMARK  status: ('A' for Active; 'I' for Inactive)
REMARK    1  A    between atoms: C_1  and  C_2
REMARK    2  A    between atoms: C_12  and  C_13
REMARK    3  A    between atoms: C_18  and  C_19
REMARK    4  A    between atoms: N_21  and  C_22
REMARK    5  A    between atoms: C_22  and  C_23
REMARK                            x       y       z     vdW  Elec       q    Type
REMARK                         _______ _______ _______ _____ _____    ______ ____
ROOT
ATOM      1  C   UNL     1       1.372   9.350  18.137  0.00  0.00    +0.000 C 
ATOM      2  O   UNL     1       2.237   9.817  17.402  0.00  0.00    +0.000 OA
ATOM      3  N   UNL     1       1.450   8.153  18.810  0.00  0.00    +0.000 N 
ATOM      4  C   UNL     1       2.526   7.321  18.657  0.00  0.00    +0.000 A 
ATOM      5  N   UNL     1       3.530   7.404  17.820  0.00  0.00    +0.000 NA
ATOM      6  C   UNL     1       4.400   6.334  18.025  0.00  0.00    +0.000 A 
ATOM      7  C   UNL     1       4.027   5.484  19.052  0.00  0.00    +0.000 A 
ATOM      8  S   UNL     1       2.531   5.988  19.721  0.00  0.00    +0.000 S 
ATOM      9  H   UNL     1       0.720   7.836  19.427  0.00  0.00    +0.000 HD
ENDROOT
BRANCH   1  21
ATOM     10  C   UNL     1      -0.895  10.928  23.088  0.00  0.00    +0.000 C 
ATOM     11  C   UNL     1      -1.109  12.269  22.384  0.00  0.00    +0.000 C 
ATOM     12  C   UNL     1      -1.989  13.217  23.246  0.00  0.00    +0.000 C 
ATOM     13  N   UNL     1      -3.427  13.132  22.997  0.00  0.00    +0.000 N 
ATOM     14  C   UNL     1      -3.947  13.027  21.724  0.00  0.00    +0.000 C 
ATOM     15  O   UNL     1      -5.106  13.334  21.473  0.00  0.00    +0.000 OA
ATOM     16  C   UNL     1      -3.025  12.482  20.766  0.00  0.00    +0.000 A 
ATOM     17  N   UNL     1      -3.296  12.191  19.455  0.00  0.00    +0.000 N 
ATOM     18  C   UNL     1      -2.236  11.505  18.897  0.00  0.00    +0.000 A 
ATOM     19  C   UNL     1      -2.103  10.899  17.641  0.00  0.00    +0.000 A 
ATOM     20  C   UNL     1      -0.915  10.193  17.377  0.00  0.00    +0.000 A 
ATOM     21  C   UNL     1       0.113  10.133  18.324  0.00  0.00    +0.000 A 
ATOM     22  C   UNL     1      -0.035  10.780  19.561  0.00  0.00    +0.000 A 
ATOM     23  C   UNL     1      -1.229  11.454  19.863  0.00  0.00    +0.000 A 
ATOM     24  C   UNL     1      -1.727  12.095  21.029  0.00  0.00    +0.000 A 
ATOM     25  H   UNL     1      -4.063  13.560  23.657  0.00  0.00    +0.000 HD
ATOM     26  H   UNL     1      -4.184  12.372  19.005  0.00  0.00    +0.000 HD
ENDBRANCH   1  21
BRANCH   6  27
ATOM     27  C   UNL     1       5.599   6.148  17.206  0.00  0.00    +0.000 C 
ATOM     28  O   UNL     1       6.314   7.079  16.853  0.00  0.00    +0.000 OA
ATOM     29  N   UNL     1       5.843   4.837  16.871  0.00  0.00    +0.000 N 
ATOM     30  H   UNL     1       5.186   4.138  17.221  0.00  0.00    +0.000 HD
BRANCH  29  31
ATOM     31  C   UNL     1       7.037   4.428  16.157  0.00  0.00    +0.000 C 
BRANCH  31  32
ATOM     32  C   UNL     1       6.957   4.589  14.636  0.00  0.00    +0.000 C 
ATOM     33  N   UNL     1       6.241   3.643  13.962  0.00  0.00    +0.000 N 
ATOM     34  O   UNL     1       7.537   5.485  14.027  0.00  0.00    +0.000 OA
ATOM     35  H   UNL     1       5.623   3.019  14.459  0.00  0.00    +0.000 HD
ATOM     36  H   UNL     1       6.111   3.776  12.968  0.00  0.00    +0.000 HD
ENDBRANCH  31  32
ENDBRANCH  29  31
ENDBRANCH   6  27
TORSDOF 4
ENDMDL
MODEL 5
REMARK VINA RESULT:      -8.6      2.093      2.460
REMARK  Name = 
REMARK  5 active torsions:
REMARK  status: ('A' for Active; 'I' for Inactive)
REMARK    1  A    between atoms: C_1  and  C_2
REMARK    2  A    between atoms: C_12  and  C_13
REMARK    3  A    between atoms: C_18  and  C_19
REMARK    4  A    between atoms: N_21  and  C_22
REMARK    5  A    between atoms: C_22  and  C_23
REMARK                            x       y       z     vdW  Elec       q    Type
REMARK                         _______ _______ _______ _____ _____    ______ ____
ROOT
ATOM      1  C   UNL     1       1.889   9.014  18.560  0.00  0.00    +0.000 C 
ATOM      2  O   UNL     1       2.849   9.011  17.795  0.00  0.00    +0.000 OA
ATOM      3  N   UNL     1       1.558   8.007  19.437  0.00  0.00    +0.000 N 
ATOM      4  C   UNL     1       2.274   6.841  19.483  0.00  0.00    +0.000 A 
ATOM      5  N   UNL     1       3.227   6.418  18.690  0.00  0.00    +0.000 NA
ATOM      6  C   UNL     1       3.673   5.169  19.121  0.00  0.00    +0.000 A 
ATOM      7  C   UNL     1       3.046   4.702  20.263  0.00  0.00    +0.000 A 
ATOM      8  S   UNL     1       1.833   5.805  20.764  0.00  0.00    +0.000 S 
ATOM      9  H   UNL     1       0.776   8.080  20.066  0.00  0.00    +0.000 HD
ENDROOT
BRANCH   1  21
ATOM     10  C   UNL     1       3.298  14.311  20.010  0.00  0.00    +0.000 C 
ATOM     11  C   UNL     1       2.507  14.697  18.759  0.00  0.00    +0.000 C 
ATOM     12  C   UNL     1       2.310  16.236  18.677  0.00  0.00    +0.000 C 
ATOM     13  N   UNL     1       1.093  16.745  19.307  0.00  0.00    +0.000 N 
ATOM     14  C   UNL     1      -0.121  16.103  19.185  0.00  0.00    +0.000 C 
ATOM     15  O   UNL     1      -1.182  16.688  19.366  0.00  0.00    +0.000 OA
ATOM     16  C   UNL     1      -0.007  14.703  18.883  0.00  0.00    +0.000 A 
ATOM     17  N   UNL     1      -1.039  13.807  18.787  0.00  0.00    +0.000 N 
ATOM     18  C   UNL     1      -0.540  12.524  18.680  0.00  0.00    +0.000 A 
ATOM     19  C   UNL     1      -1.198  11.288  18.679  0.00  0.00    +0.000 A 
ATOM     20  C   UNL     1      -0.408  10.125  18.633  0.00  0.00    +0.000 A 
ATOM     21  C   UNL     1       0.986  10.204  18.549  0.00  0.00    +0.000 A 
ATOM     22  C   UNL     1       1.616  11.459  18.516  0.00  0.00    +0.000 A 
ATOM     23  C   UNL     1       0.850  12.633  18.604  0.00  0.00    +0.000 A 
ATOM     24  C   UNL     1       1.174  14.011  18.708  0.00  0.00    +0.000 A 
ATOM     25  H   UNL     1       1.007  17.739  19.472  0.00  0.00    +0.000 HD
ATOM     26  H   UNL     1      -2.015  14.054  18.882  0.00  0.00    +0.000 HD
ENDBRANCH   1  21
BRANCH   6  27
ATOM     27  C   UNL     1       4.716   4.434  18.402  0.00  0.00    +0.000 C 
ATOM     28  O   UNL     1       5.460   3.629  18.952  0.00  0.00    +0.000 OA
ATOM     29  N   UNL     1       4.780   4.733  17.062  0.00  0.00    +0.000 N 
ATOM     30  H   UNL     1       4.110   5.414  16.705  0.00  0.00    +0.000 HD
BRANCH  29  31
ATOM     31  C   UNL     1       5.670   4.034  16.154  0.00  0.00    +0.000 C 
BRANCH  31  32
ATOM     32  C   UNL     1       7.082   4.623  16.067  0.00  0.00    +0.000 C 
ATOM     33  N   UNL     1       7.924   4.335  17.102  0.00  0.00    +0.000 N 
ATOM     34  O   UNL     1       7.447   5.355  15.150  0.00  0.00    +0.000 OA
ATOM     35  H   UNL     1       7.699   3.601  17.756  0.00  0.00    +0.000 HD
ATOM     36  H   UNL     1       8.883   4.648  17.025  0.00  0.00    +0.000 HD
ENDBRANCH  31  32
ENDBRANCH  29  31
ENDBRANCH   6  27
TORSDOF 4
ENDMDL
MODEL 6
REMARK VINA RESULT:      -8.6      1.140      1.174
REMARK  Name = 
REMARK  5 active torsions:
REMARK  status: ('A' for Active; 'I' for Inactive)
REMARK    1  A    between atoms: C_1  and  C_2
REMARK    2  A    between atoms: C_12  and  C_13
REMARK    3  A    between atoms: C_18  and  C_19
REMARK    4  A    between atoms: N_21  and  C_22
REMARK    5  A    between atoms: C_22  and  C_23
REMARK                            x       y       z     vdW  Elec       q    Type
REMARK                         _______ _______ _______ _____ _____    ______ ____
ROOT
ATOM      1  C   UNL     1       1.522   8.194  20.360  0.00  0.00    +0.000 C 
ATOM      2  O   UNL     1       2.082   8.601  19.346  0.00  0.00    +0.000 OA
ATOM      3  N   UNL     1       1.576   6.909  20.846  0.00  0.00    +0.000 N 
ATOM      4  C   UNL     1       2.241   5.921  20.172  0.00  0.00    +0.000 A 
ATOM      5  N   UNL     1       2.782   5.947  18.979  0.00  0.00    +0.000 NA
ATOM      6  C   UNL     1       3.360   4.709  18.701  0.00  0.00    +0.000 A 
ATOM      7  C   UNL     1       3.256   3.787  19.728  0.00  0.00    +0.000 A 
ATOM      8  S   UNL     1       2.362   4.453  21.031  0.00  0.00    +0.000 S 
ATOM      9  H   UNL     1       1.122   6.641  21.704  0.00  0.00    +0.000 HD
ENDROOT
BRANCH   1  21
ATOM     10  C   UNL     1       1.469  13.829  19.733  0.00  0.00    +0.000 C 
ATOM     11  C   UNL     1      -0.047  13.671  19.852  0.00  0.00    +0.000 C 
ATOM     12  C   UNL     1      -0.744  15.055  19.975  0.00  0.00    +0.000 C 
ATOM     13  N   UNL     1      -0.931  15.541  21.341  0.00  0.00    +0.000 N 
ATOM     14  C   UNL     1      -1.335  14.713  22.367  0.00  0.00    +0.000 C 
ATOM     15  O   UNL     1      -1.853  15.153  23.386  0.00  0.00    +0.000 OA
ATOM     16  C   UNL     1      -1.042  13.325  22.139  0.00  0.00    +0.000 A 
ATOM     17  N   UNL     1      -1.255  12.296  23.018  0.00  0.00    +0.000 N 
ATOM     18  C   UNL     1      -0.674  11.139  22.537  0.00  0.00    +0.000 A 
ATOM     19  C   UNL     1      -0.526   9.880  23.132  0.00  0.00    +0.000 A 
ATOM     20  C   UNL     1       0.190   8.900  22.421  0.00  0.00    +0.000 A 
ATOM     21  C   UNL     1       0.700   9.164  21.145  0.00  0.00    +0.000 A 
ATOM     22  C   UNL     1       0.504  10.425  20.559  0.00  0.00    +0.000 A 
ATOM     23  C   UNL     1      -0.170  11.433  21.269  0.00  0.00    +0.000 A 
ATOM     24  C   UNL     1      -0.429  12.806  21.017  0.00  0.00    +0.000 A 
ATOM     25  H   UNL     1      -1.183  16.510  21.484  0.00  0.00    +0.000 HD
ATOM     26  H   UNL     1      -1.689  12.405  23.925  0.00  0.00    +0.000 HD
ENDBRANCH   1  21
BRANCH   6  27
ATOM     27  C   UNL     1       4.011   4.433  17.419  0.00  0.00    +0.000 C 
ATOM     28  O   UNL     1       3.869   3.376  16.815  0.00  0.00    +0.000 OA
ATOM     29  N   UNL     1       4.794   5.467  16.962  0.00  0.00    +0.000 N 
ATOM     30  H   UNL     1       4.839   6.306  17.541  0.00  0.00    +0.000 HD
BRANCH  29  31
ATOM     31  C   UNL     1       5.437   5.437  15.662  0.00  0.00    +0.000 C 
BRANCH  31  32
ATOM     32  C   UNL     1       6.932   5.106  15.698  0.00  0.00    +0.000 C 
ATOM     33  N   UNL     1       7.652   5.427  14.584  0.00  0.00    +0.000 N 
ATOM     34  O   UNL     1       7.470   4.539  16.647  0.00  0.00    +0.000 OA
ATOM     35  H   UNL     1       7.265   6.045  13.886  0.00  0.00    +0.000 HD
ATOM     36  H   UNL     1       8.653   5.290  14.619  0.00  0.00    +0.000 HD
ENDBRANCH  31  32
ENDBRANCH  29  31
ENDBRANCH   6  27
TORSDOF 4
ENDMDL
MODEL 7
REMARK VINA RESULT:      -8.5      3.257      3.716
REMARK  Name = 
REMARK  5 active torsions:
REMARK  status: ('A' for Active; 'I' for Inactive)
REMARK    1  A    between atoms: C_1  and  C_2
REMARK    2  A    between atoms: C_12  and  C_13
REMARK    3  A    between atoms: C_18  and  C_19
REMARK    4  A    between atoms: N_21  and  C_22
REMARK    5  A    between atoms: C_22  and  C_23
REMARK                            x       y       z     vdW  Elec       q    Type
REMARK                         _______ _______ _______ _____ _____    ______ ____
ROOT
ATOM      1  C   UNL     1       1.339   9.713  18.602  0.00  0.00    +0.000 C 
ATOM      2  O   UNL     1       1.966  10.082  17.613  0.00  0.00    +0.000 OA
ATOM      3  N   UNL     1       1.509   8.519  19.262  0.00  0.00    +0.000 N 
ATOM      4  C   UNL     1       2.394   7.577  18.811  0.00  0.00    +0.000 A 
ATOM      5  N   UNL     1       3.081   7.549  17.696  0.00  0.00    +0.000 NA
ATOM      6  C   UNL     1       3.863   6.394  17.658  0.00  0.00    +0.000 A 
ATOM      7  C   UNL     1       3.754   5.594  18.783  0.00  0.00    +0.000 A 
ATOM      8  S   UNL     1       2.606   6.258  19.870  0.00  0.00    +0.000 S 
ATOM      9  H   UNL     1       0.987   8.285  20.091  0.00  0.00    +0.000 HD
ENDROOT
BRANCH   1  21
ATOM     10  C   UNL     1      -3.761  10.698  16.328  0.00  0.00    +0.000 C 
ATOM     11  C   UNL     1      -4.256  10.570  17.769  0.00  0.00    +0.000 C 
ATOM     12  C   UNL     1      -5.748  10.985  17.886  0.00  0.00    +0.000 C 
ATOM     13  N   UNL     1      -5.982  12.396  18.188  0.00  0.00    +0.000 N 
ATOM     14  C   UNL     1      -5.223  13.086  19.111  0.00  0.00    +0.000 C 
ATOM     15  O   UNL     1      -5.629  14.111  19.644  0.00  0.00    +0.000 OA
ATOM     16  C   UNL     1      -3.922  12.516  19.331  0.00  0.00    +0.000 A 
ATOM     17  N   UNL     1      -2.934  13.034  20.125  0.00  0.00    +0.000 N 
ATOM     18  C   UNL     1      -1.763  12.326  19.940  0.00  0.00    +0.000 A 
ATOM     19  C   UNL     1      -0.472  12.556  20.434  0.00  0.00    +0.000 A 
ATOM     20  C   UNL     1       0.556  11.697  20.005  0.00  0.00    +0.000 A 
ATOM     21  C   UNL     1       0.288  10.625  19.146  0.00  0.00    +0.000 A 
ATOM     22  C   UNL     1      -1.023  10.399  18.696  0.00  0.00    +0.000 A 
ATOM     23  C   UNL     1      -2.057  11.269  19.077  0.00  0.00    +0.000 A 
ATOM     24  C   UNL     1      -3.427  11.383  18.718  0.00  0.00    +0.000 A 
ATOM     25  H   UNL     1      -6.913  12.773  18.073  0.00  0.00    +0.000 HD
ATOM     26  H   UNL     1      -3.036  13.871  20.684  0.00  0.00    +0.000 HD
ENDBRANCH   1  21
BRANCH   6  27
ATOM     27  C   UNL     1       4.714   6.077  16.510  0.00  0.00    +0.000 C 
ATOM     28  O   UNL     1       5.238   6.940  15.814  0.00  0.00    +0.000 OA
ATOM     29  N   UNL     1       4.866   4.729  16.289  0.00  0.00    +0.000 N 
ATOM     30  H   UNL     1       4.389   4.096  16.932  0.00  0.00    +0.000 HD
BRANCH  29  31
ATOM     31  C   UNL     1       5.755   4.206  15.270  0.00  0.00    +0.000 C 
BRANCH  31  32
ATOM     32  C   UNL     1       7.203   4.696  15.374  0.00  0.00    +0.000 C 
ATOM     33  N   UNL     1       7.682   5.406  14.312  0.00  0.00    +0.000 N 
ATOM     34  O   UNL     1       7.930   4.436  16.331  0.00  0.00    +0.000 OA
ATOM     35  H   UNL     1       7.050   5.772  13.616  0.00  0.00    +0.000 HD
ATOM     36  H   UNL     1       8.607   5.805  14.395  0.00  0.00    +0.000 HD
ENDBRANCH  31  32
ENDBRANCH  29  31
ENDBRANCH   6  27
TORSDOF 4
ENDMDL
MODEL 8
REMARK VINA RESULT:      -8.5      3.220      3.610
REMARK  Name = 
REMARK  5 active torsions:
REMARK  status: ('A' for Active; 'I' for Inactive)
REMARK    1  A    between atoms: C_1  and  C_2
REMARK    2  A    between atoms: C_12  and  C_13
REMARK    3  A    between atoms: C_18  and  C_19
REMARK    4  A    between atoms: N_21  and  C_22
REMARK    5  A    between atoms: C_22  and  C_23
REMARK                            x       y       z     vdW  Elec       q    Type
REMARK                         _______ _______ _______ _____ _____    ______ ____
ROOT
ATOM      1  C   UNL     1       1.753   9.105  18.424  0.00  0.00    +0.000 C 
ATOM      2  O   UNL     1       2.297   9.581  17.432  0.00  0.00    +0.000 OA
ATOM      3  N   UNL     1       2.042   7.886  18.991  0.00  0.00    +0.000 N 
ATOM      4  C   UNL     1       2.961   7.042  18.431  0.00  0.00    +0.000 A 
ATOM      5  N   UNL     1       3.586   7.135  17.283  0.00  0.00    +0.000 NA
ATOM      6  C   UNL     1       4.440   6.044  17.126  0.00  0.00    +0.000 A 
ATOM      7  C   UNL     1       4.451   5.167  18.198  0.00  0.00    +0.000 A 
ATOM      8  S   UNL     1       3.323   5.675  19.386  0.00  0.00    +0.000 S 
ATOM      9  H   UNL     1       1.584   7.562  19.827  0.00  0.00    +0.000 HD
ENDROOT
BRANCH   1  21
ATOM     10  C   UNL     1      -2.870  11.223  15.915  0.00  0.00    +0.000 C 
ATOM     11  C   UNL     1      -3.591  10.706  17.160  0.00  0.00    +0.000 C 
ATOM     12  C   UNL     1      -5.062  11.207  17.200  0.00  0.00    +0.000 C 
ATOM     13  N   UNL     1      -5.272  12.473  17.901  0.00  0.00    +0.000 N 
ATOM     14  C   UNL     1      -4.636  12.770  19.088  0.00  0.00    +0.000 C 
ATOM     15  O   UNL     1      -5.071  13.616  19.859  0.00  0.00    +0.000 OA
ATOM     16  C   UNL     1      -3.415  12.038  19.289  0.00  0.00    +0.000 A 
ATOM     17  N   UNL     1      -2.541  12.191  20.333  0.00  0.00    +0.000 N 
ATOM     18  C   UNL     1      -1.391  11.466  20.092  0.00  0.00    +0.000 A 
ATOM     19  C   UNL     1      -0.185  11.408  20.802  0.00  0.00    +0.000 A 
ATOM     20  C   UNL     1       0.855  10.628  20.266  0.00  0.00    +0.000 A 
ATOM     21  C   UNL     1       0.675   9.902  19.083  0.00  0.00    +0.000 A 
ATOM     22  C   UNL     1      -0.558   9.951  18.412  0.00  0.00    +0.000 A 
ATOM     23  C   UNL     1      -1.596  10.758  18.906  0.00  0.00    +0.000 A 
ATOM     24  C   UNL     1      -2.885  11.106  18.421  0.00  0.00    +0.000 A 
ATOM     25  H   UNL     1      -6.154  12.954  17.787  0.00  0.00    +0.000 HD
ATOM     26  H   UNL     1      -2.689  12.821  21.109  0.00  0.00    +0.000 HD
ENDBRANCH   1  21
BRANCH   6  27
ATOM     27  C   UNL     1       5.246   5.864  15.916  0.00  0.00    +0.000 C 
ATOM     28  O   UNL     1       5.473   6.775  15.128  0.00  0.00    +0.000 OA
ATOM     29  N   UNL     1       5.716   4.583  15.750  0.00  0.00    +0.000 N 
ATOM     30  H   UNL     1       5.472   3.902  16.469  0.00  0.00    +0.000 HD
BRANCH  29  31
ATOM     31  C   UNL     1       6.622   4.223  14.676  0.00  0.00    +0.000 C 
BRANCH  31  32
ATOM     32  C   UNL     1       5.935   3.677  13.420  0.00  0.00    +0.000 C 
ATOM     33  N   UNL     1       6.724   2.982  12.550  0.00  0.00    +0.000 N 
ATOM     34  O   UNL     1       4.750   3.880  13.162  0.00  0.00    +0.000 OA
ATOM     35  H   UNL     1       7.637   2.660  12.834  0.00  0.00    +0.000 HD
ATOM     36  H   UNL     1       6.274   2.546  11.756  0.00  0.00    +0.000 HD
ENDBRANCH  31  32
ENDBRANCH  29  31
ENDBRANCH   6  27
TORSDOF 4
ENDMDL
MODEL 9
REMARK VINA RESULT:      -8.4      2.654     10.329
REMARK  Name = 
REMARK  5 active torsions:
REMARK  status: ('A' for Active; 'I' for Inactive)
REMARK    1  A    between atoms: C_1  and  C_2
REMARK    2  A    between atoms: C_12  and  C_13
REMARK    3  A    between atoms: C_18  and  C_19
REMARK    4  A    between atoms: N_21  and  C_22
REMARK    5  A    between atoms: C_22  and  C_23
REMARK                            x       y       z     vdW  Elec       q    Type
REMARK                         _______ _______ _______ _____ _____    ______ ____
ROOT
ATOM      1  C   UNL     1       2.262   9.118  18.178  0.00  0.00    +0.000 C 
ATOM      2  O   UNL     1       2.591  10.093  17.509  0.00  0.00    +0.000 OA
ATOM      3  N   UNL     1       1.397   9.132  19.247  0.00  0.00    +0.000 N 
ATOM      4  C   UNL     1       0.857  10.302  19.708  0.00  0.00    +0.000 A 
ATOM      5  N   UNL     1       1.130  11.536  19.367  0.00  0.00    +0.000 NA
ATOM      6  C   UNL     1       0.327  12.412  20.097  0.00  0.00    +0.000 A 
ATOM      7  C   UNL     1      -0.561  11.790  20.957  0.00  0.00    +0.000 A 
ATOM      8  S   UNL     1      -0.339  10.090  20.906  0.00  0.00    +0.000 S 
ATOM      9  H   UNL     1       1.138   8.292  19.738  0.00  0.00    +0.000 HD
ENDROOT
BRANCH   1  21
ATOM     10  C   UNL     1       0.915   4.118  20.486  0.00  0.00    +0.000 C 
ATOM     11  C   UNL     1       0.931   3.622  19.040  0.00  0.00    +0.000 C 
ATOM     12  C   UNL     1       0.818   2.074  18.979  0.00  0.00    +0.000 C 
ATOM     13  N   UNL     1       2.091   1.354  18.983  0.00  0.00    +0.000 N 
ATOM     14  C   UNL     1       3.178   1.781  18.251  0.00  0.00    +0.000 C 
ATOM     15  O   UNL     1       4.087   1.020  17.942  0.00  0.00    +0.000 OA
ATOM     16  C   UNL     1       3.155   3.185  17.944  0.00  0.00    +0.000 A 
ATOM     17  N   UNL     1       4.139   3.892  17.305  0.00  0.00    +0.000 N 
ATOM     18  C   UNL     1       3.858   5.242  17.361  0.00  0.00    +0.000 A 
ATOM     19  C   UNL     1       4.620   6.348  16.960  0.00  0.00    +0.000 A 
ATOM     20  C   UNL     1       4.100   7.629  17.218  0.00  0.00    +0.000 A 
ATOM     21  C   UNL     1       2.847   7.791  17.818  0.00  0.00    +0.000 A 
ATOM     22  C   UNL     1       2.091   6.664  18.176  0.00  0.00    +0.000 A 
ATOM     23  C   UNL     1       2.608   5.375  17.968  0.00  0.00    +0.000 A 
ATOM     24  C   UNL     1       2.162   4.070  18.310  0.00  0.00    +0.000 A 
ATOM     25  H   UNL     1       2.088   0.358  19.155  0.00  0.00    +0.000 HD
ATOM     26  H   UNL     1       4.986   3.479  16.938  0.00  0.00    +0.000 HD
ENDBRANCH   1  21
BRANCH   6  27
ATOM     27  C   UNL     1       0.438  13.865  19.949  0.00  0.00    +0.000 C 
ATOM     28  O   UNL     1       1.330  14.520  20.478  0.00  0.00    +0.000 OA
ATOM     29  N   UNL     1      -0.547  14.418  19.166  0.00  0.00    +0.000 N 
ATOM     30  H   UNL     1      -1.238  13.781  18.770  0.00  0.00    +0.000 HD
BRANCH  29  31
ATOM     31  C   UNL     1      -0.554  15.823  18.807  0.00  0.00    +0.000 C 
BRANCH  31  32
ATOM     32  C   UNL     1      -1.472  16.697  19.667  0.00  0.00    +0.000 C 
ATOM     33  N   UNL     1      -2.295  17.556  18.998  0.00  0.00    +0.000 N 
ATOM     34  O   UNL     1      -1.454  16.680  20.896  0.00  0.00    +0.000 OA
ATOM     35  H   UNL     1      -2.445  17.451  18.006  0.00  0.00    +0.000 HD
ATOM     36  H   UNL     1      -2.963  18.083  19.543  0.00  0.00    +0.000 HD
ENDBRANCH  31  32
ENDBRANCH  29  31
ENDBRANCH   6  27
TORSDOF 4
ENDMDL
