MODEL 1
REMARK VINA RESULT:      -8.3      0.000      0.000
REMARK  Name = 
REMARK  4 active torsions:
REMARK  status: ('A' for Active; 'I' for Inactive)
REMARK    1  A    between atoms: C_1  and  C_2
REMARK    2  A    between atoms: C_7  and  S_8
REMARK    3  A    between atoms: S_8  and  N_11
REMARK    4  A    between atoms: C_12  and  C_14
REMARK                            x       y       z     vdW  Elec       q    Type
REMARK                         _______ _______ _______ _____ _____    ______ ____
ROOT
ATOM      1  N   UNL     1       2.449   6.694  19.958  0.00  0.00    +0.000 N 
ATOM      2  C   UNL     1       2.078   7.992  19.628  0.00  0.00    +0.000 C 
ATOM      3  O   UNL     1       2.307   8.470  18.528  0.00  0.00    +0.000 OA
ATOM      4  H   UNL     1       2.259   6.273  20.860  0.00  0.00    +0.000 HD
ENDROOT
BRANCH   2   5
ATOM      5  C   UNL     1       1.406   8.801  20.699  0.00  0.00    +0.000 C 
ATOM      6  C   UNL     1       0.097   8.213  21.167  0.00  0.00    +0.000 C 
ATOM      7  C   UNL     1       0.094   9.580  20.500  0.00  0.00    +0.000 C 
ATOM      8  C   UNL     1      -0.230   9.863  19.045  0.00  0.00    +0.000 C 
ATOM      9  C   UNL     1       0.579  11.111  18.651  0.00  0.00    +0.000 C 
ATOM     10  C   UNL     1       0.196  12.348  19.474  0.00  0.00    +0.000 C 
ATOM     11  C   UNL     1      -0.199  12.079  20.911  0.00  0.00    +0.000 A 
ATOM     12  C   UNL     1      -0.592  13.172  21.706  0.00  0.00    +0.000 A 
ATOM     13  C   UNL     1      -1.209  12.970  22.937  0.00  0.00    +0.000 A 
ATOM     14  C   UNL     1      -1.460  11.677  23.370  0.00  0.00    +0.000 A 
ATOM     15  C   UNL     1      -1.031  10.591  22.602  0.00  0.00    +0.000 A 
ATOM     16  C   UNL     1      -0.341  10.757  21.385  0.00  0.00    +0.000 A 
ENDBRANCH   2   5
BRANCH   1  17
ATOM     17  S   UNL     1       2.997   5.631  18.794  0.00  0.00    +0.000 S 
ATOM     18  O   UNL     1       4.166   6.197  18.159  0.00  0.00    +0.000 OA
ATOM     19  O   UNL     1       1.821   5.275  18.023  0.00  0.00    +0.000 OA
BRANCH  17  26
ATOM     20  C   UNL     1       1.386   3.556  20.989  0.00  0.00    +0.000 C 
ATOM     21  C   UNL     1       2.728   3.422  20.397  0.00  0.00    +0.000 A 
ATOM     22  O   UNL     1       3.455   2.338  20.776  0.00  0.00    +0.000 OA
ATOM     23  N   UNL     1       4.683   2.366  20.144  0.00  0.00    +0.000 NA
ATOM     24  C   UNL     1       4.689   3.467  19.382  0.00  0.00    +0.000 A 
ATOM     25  N   UNL     1       5.730   3.819  18.609  0.00  0.00    +0.000 N 
ATOM     26  C   UNL     1       3.474   4.167  19.517  0.00  0.00    +0.000 A 
ATOM     27  H   UNL     1       6.624   3.364  18.757  0.00  0.00    +0.000 HD
ATOM     28  H   UNL     1       5.790   4.751  18.200  0.00  0.00    +0.000 HD
ENDBRANCH  17  26
ENDBRANCH   1  17
TORSDOF 3
ENDMDL
MODEL 2
REMARK VINA RESULT:      -8.3      1.777      3.097
REMARK  Name = 
REMARK  4 active torsions:
REMARK  status: ('A' for Active; 'I' for Inactive)
REMARK    1  A    between atoms: C_1  and  C_2
REMARK    2  A    between atoms: C_7  and  S_8
REMARK    3  A    between atoms: S_8  and  N_11
REMARK    4  A    between atoms: C_12  and  C_14
REMARK                            x       y       z     vdW  Elec       q    Type
REMARK                         _______ _______ _______ _____ _____    ______ ____
ROOT
ATOM      1  N   UNL     1       1.258   4.844  18.436  0.00  0.00    +0.000 N 
ATOM      2  C   UNL     1       2.195   5.789  18.035  0.00  0.00    +0.000 C 
ATOM      3  O   UNL     1       3.347   5.482  17.767  0.00  0.00    +0.000 OA
ATOM      4  H   UNL     1       0.295   5.073  18.652  0.00  0.00    +0.000 HD
ENDROOT
BRANCH   2   5
ATOM      5  C   UNL     1       1.739   7.217  17.973  0.00  0.00    +0.000 C 
ATOM      6  C   UNL     1       2.873   8.206  17.856  0.00  0.00    +0.000 C 
ATOM      7  C   UNL     1       1.980   8.251  19.087  0.00  0.00    +0.000 C 
ATOM      8  C   UNL     1       2.287   7.630  20.436  0.00  0.00    +0.000 C 
ATOM      9  C   UNL     1       0.934   7.256  21.065  0.00  0.00    +0.000 C 
ATOM     10  C   UNL     1       0.033   8.476  21.297  0.00  0.00    +0.000 C 
ATOM     11  C   UNL     1       0.152   9.580  20.267  0.00  0.00    +0.000 A 
ATOM     12  C   UNL     1      -0.627  10.740  20.444  0.00  0.00    +0.000 A 
ATOM     13  C   UNL     1      -0.378  11.884  19.692  0.00  0.00    +0.000 A 
ATOM     14  C   UNL     1       0.665  11.887  18.779  0.00  0.00    +0.000 A 
ATOM     15  C   UNL     1       1.411  10.724  18.570  0.00  0.00    +0.000 A 
ATOM     16  C   UNL     1       1.142   9.525  19.262  0.00  0.00    +0.000 A 
ENDBRANCH   2   5
BRANCH   1  17
ATOM     17  S   UNL     1       1.578   3.210  18.330  0.00  0.00    +0.000 S 
ATOM     18  O   UNL     1       2.109   2.923  17.015  0.00  0.00    +0.000 OA
ATOM     19  O   UNL     1       0.377   2.556  18.815  0.00  0.00    +0.000 OA
BRANCH  17  26
ATOM     20  C   UNL     1       1.405   2.639  21.700  0.00  0.00    +0.000 C 
ATOM     21  C   UNL     1       2.573   2.576  20.806  0.00  0.00    +0.000 A 
ATOM     22  O   UNL     1       3.764   2.266  21.381  0.00  0.00    +0.000 OA
ATOM     23  N   UNL     1       4.751   2.257  20.415  0.00  0.00    +0.000 NA
ATOM     24  C   UNL     1       4.148   2.558  19.259  0.00  0.00    +0.000 A 
ATOM     25  N   UNL     1       4.803   2.633  18.087  0.00  0.00    +0.000 N 
ATOM     26  C   UNL     1       2.771   2.773  19.461  0.00  0.00    +0.000 A 
ATOM     27  H   UNL     1       5.816   2.675  18.095  0.00  0.00    +0.000 HD
ATOM     28  H   UNL     1       4.367   3.054  17.268  0.00  0.00    +0.000 HD
ENDBRANCH  17  26
ENDBRANCH   1  17
TORSDOF 3
ENDMDL
MODEL 3
REMARK VINA RESULT:      -8.2      2.299      3.972
REMARK  Name = 
REMARK  4 active torsions:
REMARK  status: ('A' for Active; 'I' for Inactive)
REMARK    1  A    between atoms: C_1  and  C_2
REMARK    2  A    between atoms: C_7  and  S_8
REMARK    3  A    between atoms: S_8  and  N_11
REMARK    4  A    between atoms: C_12  and  C_14
REMARK                            x       y       z     vdW  Elec       q    Type
REMARK                         _______ _______ _______ _____ _____    ______ ____
ROOT
ATOM      1  N   UNL     1       3.547   5.826  17.650  0.00  0.00    +0.000 N 
ATOM      2  C   UNL     1       2.228   6.014  18.045  0.00  0.00    +0.000 C 
ATOM      3  O   UNL     1       1.519   5.083  18.395  0.00  0.00    +0.000 OA
ATOM      4  H   UNL     1       4.157   6.584  17.367  0.00  0.00    +0.000 HD
ENDROOT
BRANCH   2   5
ATOM      5  C   UNL     1       1.694   7.416  17.993  0.00  0.00    +0.000 C 
ATOM      6  C   UNL     1       2.771   8.466  17.872  0.00  0.00    +0.000 C 
ATOM      7  C   UNL     1       1.886   8.457  19.110  0.00  0.00    +0.000 C 
ATOM      8  C   UNL     1       2.238   7.848  20.454  0.00  0.00    +0.000 C 
ATOM      9  C   UNL     1       0.912   7.398  21.092  0.00  0.00    +0.000 C 
ATOM     10  C   UNL     1      -0.053   8.566  21.335  0.00  0.00    +0.000 C 
ATOM     11  C   UNL     1      -0.002   9.679  20.310  0.00  0.00    +0.000 A 
ATOM     12  C   UNL     1      -0.842  10.793  20.499  0.00  0.00    +0.000 A 
ATOM     13  C   UNL     1      -0.662  11.953  19.750  0.00  0.00    +0.000 A 
ATOM     14  C   UNL     1       0.373  12.017  18.829  0.00  0.00    +0.000 A 
ATOM     15  C   UNL     1       1.179  10.898  18.609  0.00  0.00    +0.000 A 
ATOM     16  C   UNL     1       0.981   9.683  19.297  0.00  0.00    +0.000 A 
ENDBRANCH   2   5
BRANCH   1  17
ATOM     17  S   UNL     1       4.315   4.361  17.874  0.00  0.00    +0.000 S 
ATOM     18  O   UNL     1       3.658   3.362  17.061  0.00  0.00    +0.000 OA
ATOM     19  O   UNL     1       4.424   4.207  19.313  0.00  0.00    +0.000 OA
BRANCH  17  26
ATOM     20  C   UNL     1       5.714   3.966  14.775  0.00  0.00    +0.000 C 
ATOM     21  C   UNL     1       6.368   4.274  16.058  0.00  0.00    +0.000 A 
ATOM     22  O   UNL     1       7.720   4.408  16.035  0.00  0.00    +0.000 OA
ATOM     23  N   UNL     1       8.175   4.684  17.310  0.00  0.00    +0.000 NA
ATOM     24  C   UNL     1       7.092   4.721  18.096  0.00  0.00    +0.000 A 
ATOM     25  N   UNL     1       7.150   4.974  19.415  0.00  0.00    +0.000 N 
ATOM     26  C   UNL     1       5.928   4.461  17.346  0.00  0.00    +0.000 A 
ATOM     27  H   UNL     1       8.049   4.930  19.882  0.00  0.00    +0.000 HD
ATOM     28  H   UNL     1       6.348   4.801  20.019  0.00  0.00    +0.000 HD
ENDBRANCH  17  26
ENDBRANCH   1  17
TORSDOF 3
ENDMDL
MODEL 4
REMARK VINA RESULT:      -8.0      3.473      8.262
REMARK  Name = 
REMARK  4 active torsions:
REMARK  status: ('A' for Active; 'I' for Inactive)
REMARK    1  A    between atoms: C_1  and  C_2
REMARK    2  A    between atoms: C_7  and  S_8
REMARK    3  A    between atoms: S_8  and  N_11
REMARK    4  A    between atoms: C_12  and  C_14
REMARK                            x       y       z     vdW  Elec       q    Type
REMARK                         _______ _______ _______ _____ _____    ______ ____
ROOT
ATOM      1  N   UNL     1       1.589   8.487  20.593  0.00  0.00    +0.000 N 
ATOM      2  C   UNL     1       1.968   7.169  20.373  0.00  0.00    +0.000 C 
ATOM      3  O   UNL     1       1.466   6.241  20.989  0.00  0.00    +0.000 OA
ATOM      4  H   UNL     1       1.983   9.272  20.087  0.00  0.00    +0.000 HD
ENDROOT
BRANCH   2   5
ATOM      5  C   UNL     1       3.051   6.931  19.363  0.00  0.00    +0.000 C 
ATOM      6  C   UNL     1       2.897   7.756  18.109  0.00  0.00    +0.000 C 
ATOM      7  C   UNL     1       2.832   6.240  18.005  0.00  0.00    +0.000 C 
ATOM      8  C   UNL     1       1.569   5.402  17.947  0.00  0.00    +0.000 C 
ATOM      9  C   UNL     1       1.912   4.047  18.590  0.00  0.00    +0.000 C 
ATOM     10  C   UNL     1       3.016   3.297  17.834  0.00  0.00    +0.000 C 
ATOM     11  C   UNL     1       4.081   4.168  17.201  0.00  0.00    +0.000 A 
ATOM     12  C   UNL     1       5.103   3.537  16.467  0.00  0.00    +0.000 A 
ATOM     13  C   UNL     1       5.954   4.279  15.653  0.00  0.00    +0.000 A 
ATOM     14  C   UNL     1       5.774   5.650  15.546  0.00  0.00    +0.000 A 
ATOM     15  C   UNL     1       4.788   6.283  16.308  0.00  0.00    +0.000 A 
ATOM     16  C   UNL     1       3.955   5.574  17.198  0.00  0.00    +0.000 A 
ENDBRANCH   2   5
BRANCH   1  17
ATOM     17  S   UNL     1       0.252   8.858  21.521  0.00  0.00    +0.000 S 
ATOM     18  O   UNL     1       0.683   9.112  22.878  0.00  0.00    +0.000 OA
ATOM     19  O   UNL     1      -0.717   7.821  21.221  0.00  0.00    +0.000 OA
BRANCH  17  26
ATOM     20  C   UNL     1      -0.231  10.041  18.345  0.00  0.00    +0.000 C 
ATOM     21  C   UNL     1      -0.609  10.650  19.632  0.00  0.00    +0.000 A 
ATOM     22  O   UNL     1      -1.222  11.862  19.575  0.00  0.00    +0.000 OA
ATOM     23  N   UNL     1      -1.499  12.296  20.856  0.00  0.00    +0.000 NA
ATOM     24  C   UNL     1      -1.056  11.340  21.682  0.00  0.00    +0.000 A 
ATOM     25  N   UNL     1      -1.165  11.415  23.020  0.00  0.00    +0.000 N 
ATOM     26  C   UNL     1      -0.480  10.283  20.949  0.00  0.00    +0.000 A 
ATOM     27  H   UNL     1      -1.395  12.308  23.441  0.00  0.00    +0.000 HD
ATOM     28  H   UNL     1      -0.648  10.779  23.625  0.00  0.00    +0.000 HD
ENDBRANCH  17  26
ENDBRANCH   1  17
TORSDOF 3
ENDMDL
MODEL 5
REMARK VINA RESULT:      -8.0      3.205      4.911
REMARK  Name = 
REMARK  4 active torsions:
REMARK  status: ('A' for Active; 'I' for Inactive)
REMARK    1  A    between atoms: C_1  and  C_2
REMARK    2  A    between atoms: C_7  and  S_8
REMARK    3  A    between atoms: S_8  and  N_11
REMARK    4  A    between atoms: C_12  and  C_14
REMARK                            x       y       z     vdW  Elec       q    Type
REMARK                         _______ _______ _______ _____ _____    ______ ____
ROOT
ATOM      1  N   UNL     1       5.754   6.089  17.924  0.00  0.00    +0.000 N 
ATOM      2  C   UNL     1       5.158   5.359  18.946  0.00  0.00    +0.000 C 
ATOM      3  O   UNL     1       5.425   4.183  19.140  0.00  0.00    +0.000 OA
ATOM      4  H   UNL     1       5.556   7.067  17.751  0.00  0.00    +0.000 HD
ENDROOT
BRANCH   2   5
ATOM      5  C   UNL     1       4.142   6.071  19.789  0.00  0.00    +0.000 C 
ATOM      6  C   UNL     1       2.997   5.189  20.225  0.00  0.00    +0.000 C 
ATOM      7  C   UNL     1       2.706   6.386  19.332  0.00  0.00    +0.000 C 
ATOM      8  C   UNL     1       2.527   6.353  17.826  0.00  0.00    +0.000 C 
ATOM      9  C   UNL     1       3.002   7.718  17.298  0.00  0.00    +0.000 C 
ATOM     10  C   UNL     1       2.175   8.886  17.851  0.00  0.00    +0.000 C 
ATOM     11  C   UNL     1       1.670   8.715  19.269  0.00  0.00    +0.000 A 
ATOM     12  C   UNL     1       0.878   9.740  19.819  0.00  0.00    +0.000 A 
ATOM     13  C   UNL     1       0.174   9.536  21.002  0.00  0.00    +0.000 A 
ATOM     14  C   UNL     1       0.235   8.301  21.629  0.00  0.00    +0.000 A 
ATOM     15  C   UNL     1       1.055   7.297  21.108  0.00  0.00    +0.000 A 
ATOM     16  C   UNL     1       1.839   7.490  19.951  0.00  0.00    +0.000 A 
ENDBRANCH   2   5
BRANCH   1  17
ATOM     17  S   UNL     1       7.050   5.478  17.069  0.00  0.00    +0.000 S 
ATOM     18  O   UNL     1       7.663   4.421  17.843  0.00  0.00    +0.000 OA
ATOM     19  O   UNL     1       7.810   6.641  16.651  0.00  0.00    +0.000 OA
BRANCH  17  26
ATOM     20  C   UNL     1       4.375   3.465  16.360  0.00  0.00    +0.000 C 
ATOM     21  C   UNL     1       5.413   3.984  15.454  0.00  0.00    +0.000 A 
ATOM     22  O   UNL     1       5.327   3.609  14.150  0.00  0.00    +0.000 OA
ATOM     23  N   UNL     1       6.372   4.168  13.443  0.00  0.00    +0.000 NA
ATOM     24  C   UNL     1       7.083   4.883  14.323  0.00  0.00    +0.000 A 
ATOM     25  N   UNL     1       8.182   5.581  13.987  0.00  0.00    +0.000 N 
ATOM     26  C   UNL     1       6.515   4.789  15.609  0.00  0.00    +0.000 A 
ATOM     27  H   UNL     1       8.618   5.402  13.090  0.00  0.00    +0.000 HD
ATOM     28  H   UNL     1       8.810   5.948  14.700  0.00  0.00    +0.000 HD
ENDBRANCH  17  26
ENDBRANCH   1  17
TORSDOF 3
ENDMDL
MODEL 6
REMARK VINA RESULT:      -7.9      2.817      4.286
REMARK  Name = 
REMARK  4 active torsions:
REMARK  status: ('A' for Active; 'I' for Inactive)
REMARK    1  A    between atoms: C_1  and  C_2
REMARK    2  A    between atoms: C_7  and  S_8
REMARK    3  A    between atoms: S_8  and  N_11
REMARK    4  A    between atoms: C_12  and  C_14
REMARK                            x       y       z     vdW  Elec       q    Type
REMARK                         _______ _______ _______ _____ _____    ______ ____
ROOT
ATOM      1  N   UNL     1       4.426   5.556  18.557  0.00  0.00    +0.000 N 
ATOM      2  C   UNL     1       3.504   5.255  19.552  0.00  0.00    +0.000 C 
ATOM      3  O   UNL     1       3.220   4.103  19.843  0.00  0.00    +0.000 OA
ATOM      4  H   UNL     1       4.686   6.502  18.306  0.00  0.00    +0.000 HD
ENDROOT
BRANCH   2   5
ATOM      5  C   UNL     1       2.843   6.413  20.241  0.00  0.00    +0.000 C 
ATOM      6  C   UNL     1       1.455   6.102  20.745  0.00  0.00    +0.000 C 
ATOM      7  C   UNL     1       1.629   7.175  19.681  0.00  0.00    +0.000 C 
ATOM      8  C   UNL     1       1.433   6.991  18.187  0.00  0.00    +0.000 C 
ATOM      9  C   UNL     1       2.384   7.983  17.496  0.00  0.00    +0.000 C 
ATOM     10  C   UNL     1       2.068   9.444  17.842  0.00  0.00    +0.000 C 
ATOM     11  C   UNL     1       1.552   9.685  19.245  0.00  0.00    +0.000 A 
ATOM     12  C   UNL     1       1.214  11.002  19.610  0.00  0.00    +0.000 A 
ATOM     13  C   UNL     1       0.499  11.255  20.777  0.00  0.00    +0.000 A 
ATOM     14  C   UNL     1       0.095  10.193  21.573  0.00  0.00    +0.000 A 
ATOM     15  C   UNL     1       0.468   8.890  21.235  0.00  0.00    +0.000 A 
ATOM     16  C   UNL     1       1.252   8.602  20.099  0.00  0.00    +0.000 A 
ENDBRANCH   2   5
BRANCH   1  17
ATOM     17  S   UNL     1       5.384   4.368  17.879  0.00  0.00    +0.000 S 
ATOM     18  O   UNL     1       4.533   3.410  17.209  0.00  0.00    +0.000 OA
ATOM     19  O   UNL     1       6.287   3.960  18.938  0.00  0.00    +0.000 OA
BRANCH  17  26
ATOM     20  C   UNL     1       7.396   7.136  17.945  0.00  0.00    +0.000 C 
ATOM     21  C   UNL     1       7.170   6.177  16.851  0.00  0.00    +0.000 A 
ATOM     22  O   UNL     1       7.831   6.414  15.687  0.00  0.00    +0.000 OA
ATOM     23  N   UNL     1       7.505   5.436  14.768  0.00  0.00    +0.000 NA
ATOM     24  C   UNL     1       6.652   4.609  15.384  0.00  0.00    +0.000 A 
ATOM     25  N   UNL     1       6.123   3.524  14.792  0.00  0.00    +0.000 N 
ATOM     26  C   UNL     1       6.407   5.044  16.701  0.00  0.00    +0.000 A 
ATOM     27  H   UNL     1       6.197   3.432  13.786  0.00  0.00    +0.000 HD
ATOM     28  H   UNL     1       5.334   3.031  15.208  0.00  0.00    +0.000 HD
ENDBRANCH  17  26
ENDBRANCH   1  17
TORSDOF 3
ENDMDL
MODEL 7
REMARK VINA RESULT:      -7.9      2.492      4.061
REMARK  Name = 
REMARK  4 active torsions:
REMARK  status: ('A' for Active; 'I' for Inactive)
REMARK    1  A    between atoms: C_1  and  C_2
REMARK    2  A    between atoms: C_7  and  S_8
REMARK    3  A    between atoms: S_8  and  N_11
REMARK    4  A    between atoms: C_12  and  C_14
REMARK                            x       y       z     vdW  Elec       q    Type
REMARK                         _______ _______ _______ _____ _____    ______ ____
ROOT
ATOM      1  N   UNL     1       3.563   6.443  17.674  0.00  0.00    +0.000 N 
ATOM      2  C   UNL     1       2.300   6.500  18.250  0.00  0.00    +0.000 C 
ATOM      3  O   UNL     1       1.804   5.538  18.815  0.00  0.00    +0.000 OA
ATOM      4  H   UNL     1       4.000   7.231  17.210  0.00  0.00    +0.000 HD
ENDROOT
BRANCH   2   5
ATOM      5  C   UNL     1       1.550   7.793  18.121  0.00  0.00    +0.000 C 
ATOM      6  C   UNL     1       2.442   8.985  17.874  0.00  0.00    +0.000 C 
ATOM      7  C   UNL     1       1.613   8.937  19.149  0.00  0.00    +0.000 C 
ATOM      8  C   UNL     1       2.103   8.498  20.516  0.00  0.00    +0.000 C 
ATOM      9  C   UNL     1       0.887   7.900  21.245  0.00  0.00    +0.000 C 
ATOM     10  C   UNL     1      -0.241   8.920  21.448  0.00  0.00    +0.000 C 
ATOM     11  C   UNL     1      -0.403   9.943  20.342  0.00  0.00    +0.000 A 
ATOM     12  C   UNL     1      -1.401  10.924  20.488  0.00  0.00    +0.000 A 
ATOM     13  C   UNL     1      -1.433  12.035  19.649  0.00  0.00    +0.000 A 
ATOM     14  C   UNL     1      -0.454  12.185  18.679  0.00  0.00    +0.000 A 
ATOM     15  C   UNL     1       0.512  11.191  18.505  0.00  0.00    +0.000 A 
ATOM     16  C   UNL     1       0.533  10.018  19.288  0.00  0.00    +0.000 A 
ENDBRANCH   2   5
BRANCH   1  17
ATOM     17  S   UNL     1       4.577   5.144  17.942  0.00  0.00    +0.000 S 
ATOM     18  O   UNL     1       3.871   3.926  17.610  0.00  0.00    +0.000 OA
ATOM     19  O   UNL     1       5.124   5.358  19.269  0.00  0.00    +0.000 OA
BRANCH  17  26
ATOM     20  C   UNL     1       6.911   7.607  17.491  0.00  0.00    +0.000 C 
ATOM     21  C   UNL     1       6.800   6.298  16.825  0.00  0.00    +0.000 A 
ATOM     22  O   UNL     1       7.736   6.014  15.881  0.00  0.00    +0.000 OA
ATOM     23  N   UNL     1       7.485   4.764  15.350  0.00  0.00    +0.000 NA
ATOM     24  C   UNL     1       6.401   4.297  15.981  0.00  0.00    +0.000 A 
ATOM     25  N   UNL     1       5.865   3.091  15.726  0.00  0.00    +0.000 N 
ATOM     26  C   UNL     1       5.931   5.238  16.917  0.00  0.00    +0.000 A 
ATOM     27  H   UNL     1       6.152   2.596  14.889  0.00  0.00    +0.000 HD
ATOM     28  H   UNL     1       4.937   2.845  16.069  0.00  0.00    +0.000 HD
ENDBRANCH  17  26
ENDBRANCH   1  17
TORSDOF 3
ENDMDL
MODEL 8
REMARK VINA RESULT:      -7.7      1.047      1.177
REMARK  Name = 
REMARK  4 active torsions:
REMARK  status: ('A' for Active; 'I' for Inactive)
REMARK    1  A    between atoms: C_1  and  C_2
REMARK    2  A    between atoms: C_7  and  S_8
REMARK    3  A    between atoms: S_8  and  N_11
REMARK    4  A    between atoms: C_12  and  C_14
REMARK                            x       y       z     vdW  Elec       q    Type
REMARK                         _______ _______ _______ _____ _____    ______ ____
ROOT
ATOM      1  N   UNL     1       1.641   5.786  20.046  0.00  0.00    +0.000 N 
ATOM      2  C   UNL     1       2.223   7.041  19.923  0.00  0.00    +0.000 C 
ATOM      3  O   UNL     1       3.184   7.239  19.196  0.00  0.00    +0.000 OA
ATOM      4  H   UNL     1       0.837   5.599  20.634  0.00  0.00    +0.000 HD
ENDROOT
BRANCH   2   5
ATOM      5  C   UNL     1       1.638   8.147  20.752  0.00  0.00    +0.000 C 
ATOM      6  C   UNL     1       0.183   7.940  21.092  0.00  0.00    +0.000 C 
ATOM      7  C   UNL     1       0.578   9.141  20.245  0.00  0.00    +0.000 C 
ATOM      8  C   UNL     1       0.502   9.230  18.732  0.00  0.00    +0.000 C 
ATOM      9  C   UNL     1       1.622  10.190  18.294  0.00  0.00    +0.000 C 
ATOM     10  C   UNL     1       1.445  11.603  18.864  0.00  0.00    +0.000 C 
ATOM     11  C   UNL     1       0.832  11.677  20.247  0.00  0.00    +0.000 A 
ATOM     12  C   UNL     1       0.615  12.950  20.808  0.00  0.00    +0.000 A 
ATOM     13  C   UNL     1      -0.172  13.099  21.947  0.00  0.00    +0.000 A 
ATOM     14  C   UNL     1      -0.768  11.983  22.515  0.00  0.00    +0.000 A 
ATOM     15  C   UNL     1      -0.518  10.715  21.985  0.00  0.00    +0.000 A 
ATOM     16  C   UNL     1       0.330  10.518  20.876  0.00  0.00    +0.000 A 
ENDBRANCH   2   5
BRANCH   1  17
ATOM     17  S   UNL     1       2.055   4.537  19.018  0.00  0.00    +0.000 S 
ATOM     18  O   UNL     1       2.731   5.089  17.864  0.00  0.00    +0.000 OA
ATOM     19  O   UNL     1       0.847   3.747  18.875  0.00  0.00    +0.000 OA
BRANCH  17  26
ATOM     20  C   UNL     1       1.755   2.628  21.843  0.00  0.00    +0.000 C 
ATOM     21  C   UNL     1       2.905   2.770  20.935  0.00  0.00    +0.000 A 
ATOM     22  O   UNL     1       4.023   2.066  21.254  0.00  0.00    +0.000 OA
ATOM     23  N   UNL     1       5.005   2.315  20.315  0.00  0.00    +0.000 NA
ATOM     24  C   UNL     1       4.472   3.166  19.430  0.00  0.00    +0.000 A 
ATOM     25  N   UNL     1       5.142   3.629  18.360  0.00  0.00    +0.000 N 
ATOM     26  C   UNL     1       3.148   3.485  19.787  0.00  0.00    +0.000 A 
ATOM     27  H   UNL     1       6.148   3.506  18.323  0.00  0.00    +0.000 HD
ATOM     28  H   UNL     1       4.790   4.418  17.821  0.00  0.00    +0.000 HD
ENDBRANCH  17  26
ENDBRANCH   1  17
TORSDOF 3
ENDMDL
MODEL 9
REMARK VINA RESULT:      -7.5      1.409      2.124
REMARK  Name = 
REMARK  4 active torsions:
REMARK  status: ('A' for Active; 'I' for Inactive)
REMARK    1  A    between atoms: C_1  and  C_2
REMARK    2  A    between atoms: C_7  and  S_8
REMARK    3  A    between atoms: S_8  and  N_11
REMARK    4  A    between atoms: C_12  and  C_14
REMARK                            x       y       z     vdW  Elec       q    Type
REMARK                         _______ _______ _______ _____ _____    ______ ____
ROOT
ATOM      1  N   UNL     1       1.392   5.726  20.212  0.00  0.00    +0.000 N 
ATOM      2  C   UNL     1       2.094   6.901  19.972  0.00  0.00    +0.000 C 
ATOM      3  O   UNL     1       3.050   6.938  19.213  0.00  0.00    +0.000 OA
ATOM      4  H   UNL     1       0.590   5.673  20.829  0.00  0.00    +0.000 HD
ENDROOT
BRANCH   2   5
ATOM      5  C   UNL     1       1.646   8.126  20.714  0.00  0.00    +0.000 C 
ATOM      6  C   UNL     1       0.189   8.094  21.107  0.00  0.00    +0.000 C 
ATOM      7  C   UNL     1       0.670   9.173  20.149  0.00  0.00    +0.000 C 
ATOM      8  C   UNL     1       0.554   9.139  18.636  0.00  0.00    +0.000 C 
ATOM      9  C   UNL     1       1.746   9.943  18.088  0.00  0.00    +0.000 C 
ATOM     10  C   UNL     1       1.725  11.410  18.535  0.00  0.00    +0.000 C 
ATOM     11  C   UNL     1       1.168  11.662  19.921  0.00  0.00    +0.000 A 
ATOM     12  C   UNL     1       1.094  12.993  20.373  0.00  0.00    +0.000 A 
ATOM     13  C   UNL     1       0.363  13.316  21.513  0.00  0.00    +0.000 A 
ATOM     14  C   UNL     1      -0.319  12.318  22.192  0.00  0.00    +0.000 A 
ATOM     15  C   UNL     1      -0.211  10.990  21.769  0.00  0.00    +0.000 A 
ATOM     16  C   UNL     1       0.578  10.616  20.662  0.00  0.00    +0.000 A 
ENDBRANCH   2   5
BRANCH   1  17
ATOM     17  S   UNL     1       1.650   4.361  19.287  0.00  0.00    +0.000 S 
ATOM     18  O   UNL     1       1.842   4.761  17.911  0.00  0.00    +0.000 OA
ATOM     19  O   UNL     1       0.592   3.443  19.663  0.00  0.00    +0.000 OA
BRANCH  17  26
ATOM     20  C   UNL     1       4.760   4.183  17.868  0.00  0.00    +0.000 C 
ATOM     21  C   UNL     1       4.273   3.577  19.119  0.00  0.00    +0.000 A 
ATOM     22  O   UNL     1       5.162   2.821  19.816  0.00  0.00    +0.000 OA
ATOM     23  N   UNL     1       4.550   2.322  20.948  0.00  0.00    +0.000 NA
ATOM     24  C   UNL     1       3.293   2.783  20.932  0.00  0.00    +0.000 A 
ATOM     25  N   UNL     1       2.396   2.505  21.893  0.00  0.00    +0.000 N 
ATOM     26  C   UNL     1       3.074   3.576  19.789  0.00  0.00    +0.000 A 
ATOM     27  H   UNL     1       2.596   1.755  22.545  0.00  0.00    +0.000 HD
ATOM     28  H   UNL     1       1.404   2.698  21.758  0.00  0.00    +0.000 HD
ENDBRANCH  17  26
ENDBRANCH   1  17
TORSDOF 3
ENDMDL
