MODEL 1
REMARK VINA RESULT:      -6.0      0.000      0.000
REMARK  Name = 
REMARK  2 active torsions:
REMARK  status: ('A' for Active; 'I' for Inactive)
REMARK    1  A    between atoms: O_1  and  N_2
REMARK    2  A    between atoms: C_3  and  C_4
REMARK                            x       y       z     vdW  Elec       q    Type
REMARK                         _______ _______ _______ _____ _____    ______ ____
ROOT
ATOM      1  C   UNL     1       6.564   4.521  16.440  0.00  0.00    +0.000 A 
ATOM      2  C   UNL     1       7.497   4.575  17.460  0.00  0.00    +0.000 A 
ATOM      3  N   UNL     1       6.855   4.363  18.646  0.00  0.00    +0.000 N 
ATOM      4  C   UNL     1       5.514   4.152  18.429  0.00  0.00    +0.000 A 
ATOM      5  C   UNL     1       4.489   3.887  19.345  0.00  0.00    +0.000 A 
ATOM      6  C   UNL     1       3.199   3.698  18.837  0.00  0.00    +0.000 A 
ATOM      7  C   UNL     1       2.950   3.780  17.472  0.00  0.00    +0.000 A 
ATOM      8  C   UNL     1       3.985   4.056  16.569  0.00  0.00    +0.000 A 
ATOM      9  C   UNL     1       5.298   4.245  17.051  0.00  0.00    +0.000 A 
ATOM     10  H   UNL     1       7.298   4.354  19.554  0.00  0.00    +0.000 HD
ENDROOT
BRANCH   1  12
ATOM     11  N   UNL     1       7.777   5.529  14.670  0.00  0.00    +0.000 NA
ATOM     12  C   UNL     1       6.845   4.706  15.031  0.00  0.00    +0.000 C 
BRANCH  11  13
ATOM     13  O   UNL     1       7.873   5.537  13.273  0.00  0.00    +0.000 OA
ATOM     14  H   UNL     1       7.867   4.584  13.062  0.00  0.00    +0.000 HD
ENDBRANCH  11  13
ENDBRANCH   1  12
TORSDOF 2
ENDMDL
MODEL 2
REMARK VINA RESULT:      -5.9      2.262      2.998
REMARK  Name = 
REMARK  2 active torsions:
REMARK  status: ('A' for Active; 'I' for Inactive)
REMARK    1  A    between atoms: O_1  and  N_2
REMARK    2  A    between atoms: C_3  and  C_4
REMARK                            x       y       z     vdW  Elec       q    Type
REMARK                         _______ _______ _______ _____ _____    ______ ____
ROOT
ATOM      1  C   UNL     1       4.972   4.933  17.505  0.00  0.00    +0.000 A 
ATOM      2  C   UNL     1       4.496   6.230  17.582  0.00  0.00    +0.000 A 
ATOM      3  N   UNL     1       3.157   6.186  17.839  0.00  0.00    +0.000 N 
ATOM      4  C   UNL     1       2.738   4.881  17.953  0.00  0.00    +0.000 A 
ATOM      5  C   UNL     1       1.463   4.370  18.221  0.00  0.00    +0.000 A 
ATOM      6  C   UNL     1       1.324   2.980  18.295  0.00  0.00    +0.000 A 
ATOM      7  C   UNL     1       2.417   2.142  18.099  0.00  0.00    +0.000 A 
ATOM      8  C   UNL     1       3.684   2.669  17.822  0.00  0.00    +0.000 A 
ATOM      9  C   UNL     1       3.856   4.068  17.748  0.00  0.00    +0.000 A 
ATOM     10  H   UNL     1       2.557   6.993  17.941  0.00  0.00    +0.000 HD
ENDROOT
BRANCH   1  12
ATOM     11  N   UNL     1       7.175   4.426  18.221  0.00  0.00    +0.000 NA
ATOM     12  C   UNL     1       6.344   4.554  17.236  0.00  0.00    +0.000 C 
BRANCH  11  13
ATOM     13  O   UNL     1       8.429   4.049  17.723  0.00  0.00    +0.000 OA
ATOM     14  H   UNL     1       9.011   4.218  18.488  0.00  0.00    +0.000 HD
ENDBRANCH  11  13
ENDBRANCH   1  12
TORSDOF 2
ENDMDL
MODEL 3
REMARK VINA RESULT:      -5.9      2.169      3.145
REMARK  Name = 
REMARK  2 active torsions:
REMARK  status: ('A' for Active; 'I' for Inactive)
REMARK    1  A    between atoms: O_1  and  N_2
REMARK    2  A    between atoms: C_3  and  C_4
REMARK                            x       y       z     vdW  Elec       q    Type
REMARK                         _______ _______ _______ _____ _____    ______ ____
ROOT
ATOM      1  C   UNL     1       4.699   4.566  18.563  0.00  0.00    +0.000 A 
ATOM      2  C   UNL     1       4.587   5.623  19.448  0.00  0.00    +0.000 A 
ATOM      3  N   UNL     1       3.358   5.565  20.038  0.00  0.00    +0.000 N 
ATOM      4  C   UNL     1       2.659   4.476  19.573  0.00  0.00    +0.000 A 
ATOM      5  C   UNL     1       1.376   4.026  19.907  0.00  0.00    +0.000 A 
ATOM      6  C   UNL     1       0.913   2.864  19.280  0.00  0.00    +0.000 A 
ATOM      7  C   UNL     1       1.701   2.191  18.352  0.00  0.00    +0.000 A 
ATOM      8  C   UNL     1       2.978   2.661  18.022  0.00  0.00    +0.000 A 
ATOM      9  C   UNL     1       3.475   3.827  18.644  0.00  0.00    +0.000 A 
ATOM     10  H   UNL     1       3.010   6.220  20.725  0.00  0.00    +0.000 HD
ENDROOT
BRANCH   1  12
ATOM     11  N   UNL     1       7.040   4.514  18.190  0.00  0.00    +0.000 NA
ATOM     12  C   UNL     1       5.851   4.283  17.732  0.00  0.00    +0.000 C 
BRANCH  11  13
ATOM     13  O   UNL     1       7.987   4.159  17.221  0.00  0.00    +0.000 OA
ATOM     14  H   UNL     1       8.801   4.072  17.753  0.00  0.00    +0.000 HD
ENDBRANCH  11  13
ENDBRANCH   1  12
TORSDOF 2
ENDMDL
MODEL 4
REMARK VINA RESULT:      -5.8      2.953      4.060
REMARK  Name = 
REMARK  2 active torsions:
REMARK  status: ('A' for Active; 'I' for Inactive)
REMARK    1  A    between atoms: O_1  and  N_2
REMARK    2  A    between atoms: C_3  and  C_4
REMARK                            x       y       z     vdW  Elec       q    Type
REMARK                         _______ _______ _______ _____ _____    ______ ____
ROOT
ATOM      1  C   UNL     1       4.374   4.513  18.372  0.00  0.00    +0.000 A 
ATOM      2  C   UNL     1       4.200   4.014  17.094  0.00  0.00    +0.000 A 
ATOM      3  N   UNL     1       2.996   3.375  17.038  0.00  0.00    +0.000 N 
ATOM      4  C   UNL     1       2.359   3.457  18.254  0.00  0.00    +0.000 A 
ATOM      5  C   UNL     1       1.110   2.959  18.647  0.00  0.00    +0.000 A 
ATOM      6  C   UNL     1       0.700   3.204  19.961  0.00  0.00    +0.000 A 
ATOM      7  C   UNL     1       1.511   3.909  20.844  0.00  0.00    +0.000 A 
ATOM      8  C   UNL     1       2.761   4.392  20.438  0.00  0.00    +0.000 A 
ATOM      9  C   UNL     1       3.199   4.167  19.115  0.00  0.00    +0.000 A 
ATOM     10  H   UNL     1       2.618   2.914  16.222  0.00  0.00    +0.000 HD
ENDROOT
BRANCH   1  12
ATOM     11  N   UNL     1       6.336   4.696  19.691  0.00  0.00    +0.000 NA
ATOM     12  C   UNL     1       5.532   5.247  18.838  0.00  0.00    +0.000 C 
BRANCH  11  13
ATOM     13  O   UNL     1       7.378   5.584  19.987  0.00  0.00    +0.000 OA
ATOM     14  H   UNL     1       6.950   6.202  20.610  0.00  0.00    +0.000 HD
ENDBRANCH  11  13
ENDBRANCH   1  12
TORSDOF 2
ENDMDL
MODEL 5
REMARK VINA RESULT:      -5.8      2.239      2.574
REMARK  Name = 
REMARK  2 active torsions:
REMARK  status: ('A' for Active; 'I' for Inactive)
REMARK    1  A    between atoms: O_1  and  N_2
REMARK    2  A    between atoms: C_3  and  C_4
REMARK                            x       y       z     vdW  Elec       q    Type
REMARK                         _______ _______ _______ _____ _____    ______ ____
ROOT
ATOM      1  C   UNL     1       5.583   5.596  17.012  0.00  0.00    +0.000 A 
ATOM      2  C   UNL     1       6.215   4.474  16.508  0.00  0.00    +0.000 A 
ATOM      3  N   UNL     1       5.343   3.425  16.562  0.00  0.00    +0.000 N 
ATOM      4  C   UNL     1       4.137   3.836  17.077  0.00  0.00    +0.000 A 
ATOM      5  C   UNL     1       2.962   3.107  17.299  0.00  0.00    +0.000 A 
ATOM      6  C   UNL     1       1.864   3.793  17.829  0.00  0.00    +0.000 A 
ATOM      7  C   UNL     1       1.946   5.149  18.130  0.00  0.00    +0.000 A 
ATOM      8  C   UNL     1       3.132   5.861  17.910  0.00  0.00    +0.000 A 
ATOM      9  C   UNL     1       4.254   5.197  17.370  0.00  0.00    +0.000 A 
ATOM     10  H   UNL     1       5.547   2.482  16.260  0.00  0.00    +0.000 HD
ENDROOT
BRANCH   1  12
ATOM     11  N   UNL     1       7.464   7.034  17.121  0.00  0.00    +0.000 NA
ATOM     12  C   UNL     1       6.175   6.912  17.136  0.00  0.00    +0.000 C 
BRANCH  11  13
ATOM     13  O   UNL     1       7.803   8.388  17.245  0.00  0.00    +0.000 OA
ATOM     14  H   UNL     1       8.409   8.517  16.491  0.00  0.00    +0.000 HD
ENDBRANCH  11  13
ENDBRANCH   1  12
TORSDOF 2
ENDMDL
MODEL 6
REMARK VINA RESULT:      -5.8      4.171      5.581
REMARK  Name = 
REMARK  2 active torsions:
REMARK  status: ('A' for Active; 'I' for Inactive)
REMARK    1  A    between atoms: O_1  and  N_2
REMARK    2  A    between atoms: C_3  and  C_4
REMARK                            x       y       z     vdW  Elec       q    Type
REMARK                         _______ _______ _______ _____ _____    ______ ____
ROOT
ATOM      1  C   UNL     1       3.374   3.515  19.853  0.00  0.00    +0.000 A 
ATOM      2  C   UNL     1       4.565   2.838  19.661  0.00  0.00    +0.000 A 
ATOM      3  N   UNL     1       5.346   3.567  18.812  0.00  0.00    +0.000 N 
ATOM      4  C   UNL     1       4.701   4.727  18.452  0.00  0.00    +0.000 A 
ATOM      5  C   UNL     1       5.127   5.767  17.616  0.00  0.00    +0.000 A 
ATOM      6  C   UNL     1       4.259   6.848  17.434  0.00  0.00    +0.000 A 
ATOM      7  C   UNL     1       3.016   6.879  18.057  0.00  0.00    +0.000 A 
ATOM      8  C   UNL     1       2.601   5.826  18.882  0.00  0.00    +0.000 A 
ATOM      9  C   UNL     1       3.458   4.724  19.090  0.00  0.00    +0.000 A 
ATOM     10  H   UNL     1       6.270   3.302  18.497  0.00  0.00    +0.000 HD
ENDROOT
BRANCH   1  12
ATOM     11  N   UNL     1       2.490   2.769  21.923  0.00  0.00    +0.000 NA
ATOM     12  C   UNL     1       2.274   3.064  20.681  0.00  0.00    +0.000 C 
BRANCH  11  13
ATOM     13  O   UNL     1       1.288   2.369  22.520  0.00  0.00    +0.000 OA
ATOM     14  H   UNL     1       1.583   2.094  23.409  0.00  0.00    +0.000 HD
ENDBRANCH  11  13
ENDBRANCH   1  12
TORSDOF 2
ENDMDL
MODEL 7
REMARK VINA RESULT:      -5.7      2.144      2.917
REMARK  Name = 
REMARK  2 active torsions:
REMARK  status: ('A' for Active; 'I' for Inactive)
REMARK    1  A    between atoms: O_1  and  N_2
REMARK    2  A    between atoms: C_3  and  C_4
REMARK                            x       y       z     vdW  Elec       q    Type
REMARK                         _______ _______ _______ _____ _____    ______ ____
ROOT
ATOM      1  C   UNL     1       4.150   4.525  17.779  0.00  0.00    +0.000 A 
ATOM      2  C   UNL     1       4.734   5.481  18.591  0.00  0.00    +0.000 A 
ATOM      3  N   UNL     1       3.968   5.627  19.710  0.00  0.00    +0.000 N 
ATOM      4  C   UNL     1       2.893   4.771  19.665  0.00  0.00    +0.000 A 
ATOM      5  C   UNL     1       1.864   4.574  20.593  0.00  0.00    +0.000 A 
ATOM      6  C   UNL     1       0.893   3.613  20.291  0.00  0.00    +0.000 A 
ATOM      7  C   UNL     1       0.950   2.889  19.105  0.00  0.00    +0.000 A 
ATOM      8  C   UNL     1       1.981   3.105  18.182  0.00  0.00    +0.000 A 
ATOM      9  C   UNL     1       2.978   4.063  18.463  0.00  0.00    +0.000 A 
ATOM     10  H   UNL     1       4.162   6.264  20.471  0.00  0.00    +0.000 HD
ENDROOT
BRANCH   1  12
ATOM     11  N   UNL     1       5.927   3.925  16.330  0.00  0.00    +0.000 NA
ATOM     12  C   UNL     1       4.653   4.091  16.493  0.00  0.00    +0.000 C 
BRANCH  11  13
ATOM     13  O   UNL     1       6.175   3.498  15.019  0.00  0.00    +0.000 OA
ATOM     14  H   UNL     1       6.544   4.303  14.609  0.00  0.00    +0.000 HD
ENDBRANCH  11  13
ENDBRANCH   1  12
TORSDOF 2
ENDMDL
MODEL 8
REMARK VINA RESULT:      -5.7      2.960      3.635
REMARK  Name = 
REMARK  2 active torsions:
REMARK  status: ('A' for Active; 'I' for Inactive)
REMARK    1  A    between atoms: O_1  and  N_2
REMARK    2  A    between atoms: C_3  and  C_4
REMARK                            x       y       z     vdW  Elec       q    Type
REMARK                         _______ _______ _______ _____ _____    ______ ____
ROOT
ATOM      1  C   UNL     1       4.996   5.134  18.393  0.00  0.00    +0.000 A 
ATOM      2  C   UNL     1       4.340   6.300  18.043  0.00  0.00    +0.000 A 
ATOM      3  N   UNL     1       3.019   6.013  17.852  0.00  0.00    +0.000 N 
ATOM      4  C   UNL     1       2.785   4.679  18.086  0.00  0.00    +0.000 A 
ATOM      5  C   UNL     1       1.588   3.955  18.020  0.00  0.00    +0.000 A 
ATOM      6  C   UNL     1       1.639   2.591  18.326  0.00  0.00    +0.000 A 
ATOM      7  C   UNL     1       2.839   1.981  18.674  0.00  0.00    +0.000 A 
ATOM      8  C   UNL     1       4.029   2.718  18.726  0.00  0.00    +0.000 A 
ATOM      9  C   UNL     1       4.008   4.097  18.428  0.00  0.00    +0.000 A 
ATOM     10  H   UNL     1       2.310   6.683  17.584  0.00  0.00    +0.000 HD
ENDROOT
BRANCH   1  12
ATOM     11  N   UNL     1       6.883   5.471  19.788  0.00  0.00    +0.000 NA
ATOM     12  C   UNL     1       6.413   5.016  18.671  0.00  0.00    +0.000 C 
BRANCH  11  13
ATOM     13  O   UNL     1       8.264   5.241  19.838  0.00  0.00    +0.000 OA
ATOM     14  H   UNL     1       8.543   5.477  18.933  0.00  0.00    +0.000 HD
ENDBRANCH  11  13
ENDBRANCH   1  12
TORSDOF 2
ENDMDL
MODEL 9
REMARK VINA RESULT:      -5.7      3.208      4.647
REMARK  Name = 
REMARK  2 active torsions:
REMARK  status: ('A' for Active; 'I' for Inactive)
REMARK    1  A    between atoms: O_1  and  N_2
REMARK    2  A    between atoms: C_3  and  C_4
REMARK                            x       y       z     vdW  Elec       q    Type
REMARK                         _______ _______ _______ _____ _____    ______ ____
ROOT
ATOM      1  C   UNL     1       4.033   3.428  17.988  0.00  0.00    +0.000 A 
ATOM      2  C   UNL     1       4.684   3.487  19.207  0.00  0.00    +0.000 A 
ATOM      3  N   UNL     1       5.932   4.002  19.007  0.00  0.00    +0.000 N 
ATOM      4  C   UNL     1       6.115   4.303  17.678  0.00  0.00    +0.000 A 
ATOM      5  C   UNL     1       7.225   4.855  17.029  0.00  0.00    +0.000 A 
ATOM      6  C   UNL     1       7.129   5.070  15.650  0.00  0.00    +0.000 A 
ATOM      7  C   UNL     1       5.972   4.736  14.954  0.00  0.00    +0.000 A 
ATOM      8  C   UNL     1       4.873   4.176  15.617  0.00  0.00    +0.000 A 
ATOM      9  C   UNL     1       4.938   3.954  17.010  0.00  0.00    +0.000 A 
ATOM     10  H   UNL     1       6.623   4.151  19.730  0.00  0.00    +0.000 HD
ENDROOT
BRANCH   1  12
ATOM     11  N   UNL     1       2.100   2.265  18.715  0.00  0.00    +0.000 NA
ATOM     12  C   UNL     1       2.690   2.930  17.774  0.00  0.00    +0.000 C 
BRANCH  11  13
ATOM     13  O   UNL     1       0.818   1.896  18.287  0.00  0.00    +0.000 OA
ATOM     14  H   UNL     1       0.956   1.744  17.333  0.00  0.00    +0.000 HD
ENDBRANCH  11  13
ENDBRANCH   1  12
TORSDOF 2
ENDMDL
