MODEL 1
REMARK VINA RESULT:      -7.7      0.000      0.000
REMARK  Name = 
REMARK  14 active torsions:
REMARK  status: ('A' for Active; 'I' for Inactive)
REMARK    1  A    between atoms: C_2  and  O_3
REMARK    2  A    between atoms: C_2  and  C_4
REMARK    3  A    between atoms: C_4  and  C_5
REMARK    4  A    between atoms: C_5  and  C_6
REMARK    5  A    between atoms: C_6  and  C_7
REMARK    6  A    between atoms: C_8  and  C_9
REMARK    7  A    between atoms: C_9  and  C_10
REMARK    8  A    between atoms: C_11  and  O_12
REMARK    9  A    between atoms: C_14  and  O_15
REMARK   10  A    between atoms: C_16  and  C_17
REMARK   11  A    between atoms: C_18  and  C_19
REMARK   12  A    between atoms: C_19  and  C_20
REMARK   13  A    between atoms: C_20  and  O_21
REMARK   14  A    between atoms: O_21  and  C_22
REMARK                            x       y       z     vdW  Elec       q    Type
REMARK                         _______ _______ _______ _____ _____    ______ ____
ROOT
ATOM      1  C   UNL     1       2.631   4.389  19.290  0.00  0.00    +0.000 C 
ATOM      2  C   UNL     1       1.810   3.457  20.214  0.00  0.00    +0.000 C 
ATOM      3  C   UNL     1       2.189   2.030  19.863  0.00  0.00    +0.000 C 
ATOM      4  C   UNL     1       3.575   2.136  19.268  0.00  0.00    +0.000 C 
ATOM      5  C   UNL     1       3.594   3.470  18.497  0.00  0.00    +0.000 C 
ENDROOT
BRANCH   2   6
ATOM      6  O   UNL     1       0.405   3.604  20.161  0.00  0.00    +0.000 OA
ATOM      7  H   UNL     1      -0.005   2.755  20.400  0.00  0.00    +0.000 HD
ENDBRANCH   2   6
BRANCH   4   8
ATOM      8  O   UNL     1       3.825   1.027  18.408  0.00  0.00    +0.000 OA
ATOM      9  H   UNL     1       3.587   0.216  18.879  0.00  0.00    +0.000 HD
ENDBRANCH   4   8
BRANCH   5  10
ATOM     10  C   UNL     1       4.954   4.114  18.305  0.00  0.00    +0.000 C 
ATOM     11  C   UNL     1       5.412   4.639  17.154  0.00  0.00    +0.000 C 
BRANCH  11  12
ATOM     12  C   UNL     1       6.757   5.266  16.899  0.00  0.00    +0.000 C 
ATOM     13  O   UNL     1       6.551   6.661  16.607  0.00  0.00    +0.000 OA
ATOM     14  C   UNL     1       7.582   7.331  17.325  0.00  0.00    +0.000 C 
ATOM     15  C   UNL     1       7.794   6.467  18.538  0.00  0.00    +0.000 C 
ATOM     16  O   UNL     1       7.584   5.139  18.070  0.00  0.00    +0.000 OA
BRANCH  12  17
ATOM     17  C   UNL     1       7.473   4.601  15.693  0.00  0.00    +0.000 C 
BRANCH  17  18
ATOM     18  O   UNL     1       7.064   5.203  14.457  0.00  0.00    +0.000 OA
BRANCH  18  19
ATOM     19  C   UNL     1       6.396   4.408  13.568  0.00  0.00    +0.000 A 
ATOM     20  C   UNL     1       5.009   4.291  13.462  0.00  0.00    +0.000 A 
ATOM     21  C   UNL     1       4.445   3.450  12.499  0.00  0.00    +0.000 A 
ATOM     22  C   UNL     1       5.266   2.718  11.641  0.00  0.00    +0.000 A 
ATOM     23  C   UNL     1       6.650   2.828  11.755  0.00  0.00    +0.000 A 
ATOM     24 CL   UNL     1       7.665   1.924  10.700  0.00  0.00    +0.000 Cl
ATOM     25  C   UNL     1       7.216   3.665  12.715  0.00  0.00    +0.000 A 
ENDBRANCH  18  19
ENDBRANCH  17  18
ENDBRANCH  12  17
ENDBRANCH  11  12
ENDBRANCH   5  10
BRANCH   1  26
ATOM     26  C   UNL     1       1.858   5.376  18.397  0.00  0.00    +0.000 C 
BRANCH  26  28
ATOM     27  C   UNL     1       2.274   7.726  19.252  0.00  0.00    +0.000 C 
ATOM     28  C   UNL     1       2.432   6.768  18.324  0.00  0.00    +0.000 C 
BRANCH  27  29
ATOM     29  C   UNL     1       1.505   7.580  20.539  0.00  0.00    +0.000 C 
BRANCH  29  30
ATOM     30  C   UNL     1       1.474   8.890  21.327  0.00  0.00    +0.000 C 
BRANCH  30  31
ATOM     31  C   UNL     1       0.046   9.327  21.644  0.00  0.00    +0.000 C 
BRANCH  31  33
ATOM     32  O   UNL     1       0.704   9.546  23.973  0.00  0.00    +0.000 OA
ATOM     33  C   UNL     1      -0.152   9.629  23.107  0.00  0.00    +0.000 C 
BRANCH  33  34
ATOM     34  O   UNL     1      -1.422  10.015  23.374  0.00  0.00    +0.000 OA
ATOM     35  H   UNL     1      -2.096   9.423  22.991  0.00  0.00    +0.000 HD
ENDBRANCH  33  34
ENDBRANCH  31  33
ENDBRANCH  30  31
ENDBRANCH  29  30
ENDBRANCH  27  29
ENDBRANCH  26  28
ENDBRANCH   1  26
TORSDOF 14
ENDMDL
MODEL 2
REMARK VINA RESULT:      -7.5      3.403      9.107
REMARK  Name = 
REMARK  14 active torsions:
REMARK  status: ('A' for Active; 'I' for Inactive)
REMARK    1  A    between atoms: C_2  and  O_3
REMARK    2  A    between atoms: C_2  and  C_4
REMARK    3  A    between atoms: C_4  and  C_5
REMARK    4  A    between atoms: C_5  and  C_6
REMARK    5  A    between atoms: C_6  and  C_7
REMARK    6  A    between atoms: C_8  and  C_9
REMARK    7  A    between atoms: C_9  and  C_10
REMARK    8  A    between atoms: C_11  and  O_12
REMARK    9  A    between atoms: C_14  and  O_15
REMARK   10  A    between atoms: C_16  and  C_17
REMARK   11  A    between atoms: C_18  and  C_19
REMARK   12  A    between atoms: C_19  and  C_20
REMARK   13  A    between atoms: C_20  and  O_21
REMARK   14  A    between atoms: O_21  and  C_22
REMARK                            x       y       z     vdW  Elec       q    Type
REMARK                         _______ _______ _______ _____ _____    ______ ____
ROOT
ATOM      1  C   UNL     1       3.179   4.781  19.184  0.00  0.00    +0.000 C 
ATOM      2  C   UNL     1       3.235   3.269  18.858  0.00  0.00    +0.000 C 
ATOM      3  C   UNL     1       2.689   2.529  20.065  0.00  0.00    +0.000 C 
ATOM      4  C   UNL     1       1.786   3.529  20.753  0.00  0.00    +0.000 C 
ATOM      5  C   UNL     1       2.458   4.900  20.550  0.00  0.00    +0.000 C 
ENDROOT
BRANCH   2   6
ATOM      6  O   UNL     1       4.504   2.750  18.514  0.00  0.00    +0.000 OA
ATOM      7  H   UNL     1       5.082   3.488  18.255  0.00  0.00    +0.000 HD
ENDBRANCH   2   6
BRANCH   4   8
ATOM      8  O   UNL     1       1.657   3.204  22.134  0.00  0.00    +0.000 OA
ATOM      9  H   UNL     1       0.755   2.889  22.290  0.00  0.00    +0.000 HD
ENDBRANCH   4   8
BRANCH   5  10
ATOM     10  C   UNL     1       1.542   6.108  20.597  0.00  0.00    +0.000 C 
ATOM     11  C   UNL     1       1.886   7.330  21.047  0.00  0.00    +0.000 C 
BRANCH  11  12
ATOM     12  C   UNL     1       1.016   8.555  21.141  0.00  0.00    +0.000 C 
ATOM     13  O   UNL     1      -0.317   8.130  21.484  0.00  0.00    +0.000 OA
ATOM     14  C   UNL     1      -0.750   9.072  22.459  0.00  0.00    +0.000 C 
ATOM     15  C   UNL     1       0.515   9.454  23.177  0.00  0.00    +0.000 C 
ATOM     16  O   UNL     1       1.517   9.431  22.166  0.00  0.00    +0.000 OA
BRANCH  12  17
ATOM     17  C   UNL     1       0.967   9.320  19.792  0.00  0.00    +0.000 C 
BRANCH  17  18
ATOM     18  O   UNL     1       0.536  10.675  19.985  0.00  0.00    +0.000 OA
BRANCH  18  19
ATOM     19  C   UNL     1      -0.691  11.014  19.487  0.00  0.00    +0.000 A 
ATOM     20  C   UNL     1      -1.565  11.952  20.042  0.00  0.00    +0.000 A 
ATOM     21  C   UNL     1      -2.791  12.221  19.428  0.00  0.00    +0.000 A 
ATOM     22  C   UNL     1      -3.150  11.550  18.259  0.00  0.00    +0.000 A 
ATOM     23  C   UNL     1      -2.283  10.608  17.713  0.00  0.00    +0.000 A 
ATOM     24 CL   UNL     1      -2.726   9.777  16.273  0.00  0.00    +0.000 Cl
ATOM     25  C   UNL     1      -1.060  10.336  18.323  0.00  0.00    +0.000 A 
ENDBRANCH  18  19
ENDBRANCH  17  18
ENDBRANCH  12  17
ENDBRANCH  11  12
ENDBRANCH   5  10
BRANCH   1  26
ATOM     26  C   UNL     1       4.494   5.578  19.118  0.00  0.00    +0.000 C 
BRANCH  26  28
ATOM     27  C   UNL     1       5.847   6.253  17.083  0.00  0.00    +0.000 C 
ATOM     28  C   UNL     1       4.734   6.325  17.831  0.00  0.00    +0.000 C 
BRANCH  27  29
ATOM     29  C   UNL     1       7.054   5.405  17.389  0.00  0.00    +0.000 C 
BRANCH  29  30
ATOM     30  C   UNL     1       7.454   4.544  16.191  0.00  0.00    +0.000 C 
BRANCH  30  31
ATOM     31  C   UNL     1       6.235   4.067  15.404  0.00  0.00    +0.000 C 
BRANCH  31  33
ATOM     32  O   UNL     1       5.814   3.609  13.055  0.00  0.00    +0.000 OA
ATOM     33  C   UNL     1       6.408   4.237  13.917  0.00  0.00    +0.000 C 
BRANCH  33  34
ATOM     34  O   UNL     1       7.324   5.190  13.622  0.00  0.00    +0.000 OA
ATOM     35  H   UNL     1       6.932   6.004  13.254  0.00  0.00    +0.000 HD
ENDBRANCH  33  34
ENDBRANCH  31  33
ENDBRANCH  30  31
ENDBRANCH  29  30
ENDBRANCH  27  29
ENDBRANCH  26  28
ENDBRANCH   1  26
TORSDOF 14
ENDMDL
MODEL 3
REMARK VINA RESULT:      -7.5      3.600      8.686
REMARK  Name = 
REMARK  14 active torsions:
REMARK  status: ('A' for Active; 'I' for Inactive)
REMARK    1  A    between atoms: C_2  and  O_3
REMARK    2  A    between atoms: C_2  and  C_4
REMARK    3  A    between atoms: C_4  and  C_5
REMARK    4  A    between atoms: C_5  and  C_6
REMARK    5  A    between atoms: C_6  and  C_7
REMARK    6  A    between atoms: C_8  and  C_9
REMARK    7  A    between atoms: C_9  and  C_10
REMARK    8  A    between atoms: C_11  and  O_12
REMARK    9  A    between atoms: C_14  and  O_15
REMARK   10  A    between atoms: C_16  and  C_17
REMARK   11  A    between atoms: C_18  and  C_19
REMARK   12  A    between atoms: C_19  and  C_20
REMARK   13  A    between atoms: C_20  and  O_21
REMARK   14  A    between atoms: O_21  and  C_22
REMARK                            x       y       z     vdW  Elec       q    Type
REMARK                         _______ _______ _______ _____ _____    ______ ____
ROOT
ATOM      1  C   UNL     1       1.772   4.117  18.633  0.00  0.00    +0.000 C 
ATOM      2  C   UNL     1       1.628   2.583  18.772  0.00  0.00    +0.000 C 
ATOM      3  C   UNL     1       1.846   2.242  20.235  0.00  0.00    +0.000 C 
ATOM      4  C   UNL     1       1.487   3.507  20.982  0.00  0.00    +0.000 C 
ATOM      5  C   UNL     1       1.939   4.666  20.073  0.00  0.00    +0.000 C 
ENDROOT
BRANCH   2   6
ATOM      6  O   UNL     1       2.486   1.799  17.967  0.00  0.00    +0.000 OA
ATOM      7  H   UNL     1       2.608   2.250  17.113  0.00  0.00    +0.000 HD
ENDBRANCH   2   6
BRANCH   4   8
ATOM      8  O   UNL     1       2.152   3.537  22.242  0.00  0.00    +0.000 OA
ATOM      9  H   UNL     1       1.602   3.069  22.888  0.00  0.00    +0.000 HD
ENDBRANCH   4   8
BRANCH   5  10
ATOM     10  C   UNL     1       1.212   5.985  20.258  0.00  0.00    +0.000 C 
ATOM     11  C   UNL     1       1.749   7.103  20.780  0.00  0.00    +0.000 C 
BRANCH  11  12
ATOM     12  C   UNL     1       1.072   8.428  21.011  0.00  0.00    +0.000 C 
ATOM     13  O   UNL     1      -0.290   8.171  21.405  0.00  0.00    +0.000 OA
ATOM     14  C   UNL     1      -0.532   9.087  22.467  0.00  0.00    +0.000 C 
ATOM     15  C   UNL     1       0.810   9.230  23.131  0.00  0.00    +0.000 C 
ATOM     16  O   UNL     1       1.746   9.144  22.061  0.00  0.00    +0.000 OA
BRANCH  12  17
ATOM     17  C   UNL     1       1.067   9.294  19.724  0.00  0.00    +0.000 C 
BRANCH  17  18
ATOM     18  O   UNL     1      -0.196   9.954  19.553  0.00  0.00    +0.000 OA
BRANCH  18  19
ATOM     19  C   UNL     1      -0.175  11.314  19.427  0.00  0.00    +0.000 A 
ATOM     20  C   UNL     1      -1.202  12.183  19.804  0.00  0.00    +0.000 A 
ATOM     21  C   UNL     1      -1.053  13.563  19.636  0.00  0.00    +0.000 A 
ATOM     22  C   UNL     1       0.120  14.079  19.087  0.00  0.00    +0.000 A 
ATOM     23  C   UNL     1       1.139  13.210  18.702  0.00  0.00    +0.000 A 
ATOM     24 CL   UNL     1       2.586  13.845  18.021  0.00  0.00    +0.000 Cl
ATOM     25  C   UNL     1       0.994  11.834  18.867  0.00  0.00    +0.000 A 
ENDBRANCH  18  19
ENDBRANCH  17  18
ENDBRANCH  12  17
ENDBRANCH  11  12
ENDBRANCH   5  10
BRANCH   1  26
ATOM     26  C   UNL     1       2.830   4.653  17.652  0.00  0.00    +0.000 C 
BRANCH  26  28
ATOM     27  C   UNL     1       4.537   6.514  17.420  0.00  0.00    +0.000 C 
ATOM     28  C   UNL     1       3.569   5.886  18.107  0.00  0.00    +0.000 C 
BRANCH  27  29
ATOM     29  C   UNL     1       5.054   6.106  16.065  0.00  0.00    +0.000 C 
BRANCH  29  30
ATOM     30  C   UNL     1       6.496   5.607  16.142  0.00  0.00    +0.000 C 
BRANCH  30  31
ATOM     31  C   UNL     1       7.237   6.194  17.341  0.00  0.00    +0.000 C 
BRANCH  31  33
ATOM     32  O   UNL     1       7.506   5.198  19.541  0.00  0.00    +0.000 OA
ATOM     33  C   UNL     1       7.657   5.139  18.331  0.00  0.00    +0.000 C 
BRANCH  33  34
ATOM     34  O   UNL     1       8.241   4.080  17.722  0.00  0.00    +0.000 OA
ATOM     35  H   UNL     1       9.177   4.232  17.492  0.00  0.00    +0.000 HD
ENDBRANCH  33  34
ENDBRANCH  31  33
ENDBRANCH  30  31
ENDBRANCH  29  30
ENDBRANCH  27  29
ENDBRANCH  26  28
ENDBRANCH   1  26
TORSDOF 14
ENDMDL
MODEL 4
REMARK VINA RESULT:      -7.5      2.883      8.722
REMARK  Name = 
REMARK  14 active torsions:
REMARK  status: ('A' for Active; 'I' for Inactive)
REMARK    1  A    between atoms: C_2  and  O_3
REMARK    2  A    between atoms: C_2  and  C_4
REMARK    3  A    between atoms: C_4  and  C_5
REMARK    4  A    between atoms: C_5  and  C_6
REMARK    5  A    between atoms: C_6  and  C_7
REMARK    6  A    between atoms: C_8  and  C_9
REMARK    7  A    between atoms: C_9  and  C_10
REMARK    8  A    between atoms: C_11  and  O_12
REMARK    9  A    between atoms: C_14  and  O_15
REMARK   10  A    between atoms: C_16  and  C_17
REMARK   11  A    between atoms: C_18  and  C_19
REMARK   12  A    between atoms: C_19  and  C_20
REMARK   13  A    between atoms: C_20  and  O_21
REMARK   14  A    between atoms: O_21  and  C_22
REMARK                            x       y       z     vdW  Elec       q    Type
REMARK                         _______ _______ _______ _____ _____    ______ ____
ROOT
ATOM      1  C   UNL     1       6.163   4.999  17.462  0.00  0.00    +0.000 C 
ATOM      2  C   UNL     1       7.478   4.973  18.277  0.00  0.00    +0.000 C 
ATOM      3  C   UNL     1       8.110   6.347  18.154  0.00  0.00    +0.000 C 
ATOM      4  C   UNL     1       6.954   7.277  17.857  0.00  0.00    +0.000 C 
ATOM      5  C   UNL     1       5.982   6.461  16.983  0.00  0.00    +0.000 C 
ENDROOT
BRANCH   2   6
ATOM      6  O   UNL     1       8.419   3.982  17.915  0.00  0.00    +0.000 OA
ATOM      7  H   UNL     1       8.884   4.274  17.112  0.00  0.00    +0.000 HD
ENDBRANCH   2   6
BRANCH   4   8
ATOM      8  O   UNL     1       7.421   8.440  17.181  0.00  0.00    +0.000 OA
ATOM      9  H   UNL     1       7.888   8.160  16.380  0.00  0.00    +0.000 HD
ENDBRANCH   4   8
BRANCH   5  10
ATOM     10  C   UNL     1       4.527   6.888  17.021  0.00  0.00    +0.000 C 
ATOM     11  C   UNL     1       3.797   7.066  18.138  0.00  0.00    +0.000 C 
BRANCH  11  12
ATOM     12  C   UNL     1       2.347   7.462  18.237  0.00  0.00    +0.000 C 
ATOM     13  O   UNL     1       2.104   7.935  19.576  0.00  0.00    +0.000 OA
ATOM     14  C   UNL     1       1.288   9.088  19.403  0.00  0.00    +0.000 C 
ATOM     15  C   UNL     1       1.744   9.658  18.088  0.00  0.00    +0.000 C 
ATOM     16  O   UNL     1       2.065   8.516  17.299  0.00  0.00    +0.000 OA
BRANCH  12  17
ATOM     17  C   UNL     1       1.410   6.259  17.951  0.00  0.00    +0.000 C 
BRANCH  17  18
ATOM     18  O   UNL     1       2.148   5.030  17.915  0.00  0.00    +0.000 OA
BRANCH  18  19
ATOM     19  C   UNL     1       2.161   4.278  19.056  0.00  0.00    +0.000 A 
ATOM     20  C   UNL     1       1.147   4.234  20.015  0.00  0.00    +0.000 A 
ATOM     21  C   UNL     1       1.274   3.411  21.137  0.00  0.00    +0.000 A 
ATOM     22  C   UNL     1       2.418   2.632  21.308  0.00  0.00    +0.000 A 
ATOM     23  C   UNL     1       3.434   2.685  20.356  0.00  0.00    +0.000 A 
ATOM     24 CL   UNL     1       4.848   1.727  20.567  0.00  0.00    +0.000 Cl
ATOM     25  C   UNL     1       3.311   3.505  19.236  0.00  0.00    +0.000 A 
ENDBRANCH  18  19
ENDBRANCH  17  18
ENDBRANCH  12  17
ENDBRANCH  11  12
ENDBRANCH   5  10
BRANCH   1  26
ATOM     26  C   UNL     1       5.997   3.965  16.334  0.00  0.00    +0.000 C 
BRANCH  26  28
ATOM     27  C   UNL     1       5.574   4.467  13.885  0.00  0.00    +0.000 C 
ATOM     28  C   UNL     1       5.162   4.414  15.162  0.00  0.00    +0.000 C 
BRANCH  27  29
ATOM     29  C   UNL     1       6.942   4.077  13.390  0.00  0.00    +0.000 C 
BRANCH  29  30
ATOM     30  C   UNL     1       6.973   3.951  11.867  0.00  0.00    +0.000 C 
BRANCH  30  31
ATOM     31  C   UNL     1       7.175   2.504  11.422  0.00  0.00    +0.000 C 
BRANCH  31  33
ATOM     32  O   UNL     1       4.765   2.226  11.271  0.00  0.00    +0.000 OA
ATOM     33  C   UNL     1       5.880   1.736  11.356  0.00  0.00    +0.000 C 
BRANCH  33  34
ATOM     34  O   UNL     1       6.084   0.398  11.403  0.00  0.00    +0.000 OA
ATOM     35  H   UNL     1       5.258  -0.120  11.423  0.00  0.00    +0.000 HD
ENDBRANCH  33  34
ENDBRANCH  31  33
ENDBRANCH  30  31
ENDBRANCH  29  30
ENDBRANCH  27  29
ENDBRANCH  26  28
ENDBRANCH   1  26
TORSDOF 14
ENDMDL
MODEL 5
REMARK VINA RESULT:      -7.5      3.838      8.923
REMARK  Name = 
REMARK  14 active torsions:
REMARK  status: ('A' for Active; 'I' for Inactive)
REMARK    1  A    between atoms: C_2  and  O_3
REMARK    2  A    between atoms: C_2  and  C_4
REMARK    3  A    between atoms: C_4  and  C_5
REMARK    4  A    between atoms: C_5  and  C_6
REMARK    5  A    between atoms: C_6  and  C_7
REMARK    6  A    between atoms: C_8  and  C_9
REMARK    7  A    between atoms: C_9  and  C_10
REMARK    8  A    between atoms: C_11  and  O_12
REMARK    9  A    between atoms: C_14  and  O_15
REMARK   10  A    between atoms: C_16  and  C_17
REMARK   11  A    between atoms: C_18  and  C_19
REMARK   12  A    between atoms: C_19  and  C_20
REMARK   13  A    between atoms: C_20  and  O_21
REMARK   14  A    between atoms: O_21  and  C_22
REMARK                            x       y       z     vdW  Elec       q    Type
REMARK                         _______ _______ _______ _____ _____    ______ ____
ROOT
ATOM      1  C   UNL     1       1.503   4.023  18.767  0.00  0.00    +0.000 C 
ATOM      2  C   UNL     1       0.947   2.652  19.223  0.00  0.00    +0.000 C 
ATOM      3  C   UNL     1       1.381   2.447  20.662  0.00  0.00    +0.000 C 
ATOM      4  C   UNL     1       1.594   3.844  21.203  0.00  0.00    +0.000 C 
ATOM      5  C   UNL     1       2.148   4.664  20.022  0.00  0.00    +0.000 C 
ENDROOT
BRANCH   2   6
ATOM      6  O   UNL     1       1.327   1.534  18.446  0.00  0.00    +0.000 OA
ATOM      7  H   UNL     1       2.294   1.442  18.487  0.00  0.00    +0.000 HD
ENDBRANCH   2   6
BRANCH   4   8
ATOM      8  O   UNL     1       2.506   3.813  22.297  0.00  0.00    +0.000 OA
ATOM      9  H   UNL     1       2.594   4.712  22.645  0.00  0.00    +0.000 HD
ENDBRANCH   4   8
BRANCH   5  10
ATOM     10  C   UNL     1       1.907   6.161  20.074  0.00  0.00    +0.000 C 
ATOM     11  C   UNL     1       1.177   6.800  21.007  0.00  0.00    +0.000 C 
BRANCH  11  12
ATOM     12  C   UNL     1       0.883   8.274  21.095  0.00  0.00    +0.000 C 
ATOM     13  O   UNL     1      -0.501   8.432  21.463  0.00  0.00    +0.000 OA
ATOM     14  C   UNL     1      -0.494   9.477  22.430  0.00  0.00    +0.000 C 
ATOM     15  C   UNL     1       0.831   9.316  23.123  0.00  0.00    +0.000 C 
ATOM     16  O   UNL     1       1.718   8.879  22.099  0.00  0.00    +0.000 OA
BRANCH  12  17
ATOM     17  C   UNL     1       1.124   8.982  19.735  0.00  0.00    +0.000 C 
BRANCH  17  18
ATOM     18  O   UNL     1       1.599  10.322  19.930  0.00  0.00    +0.000 OA
BRANCH  18  19
ATOM     19  C   UNL     1       0.857  11.330  19.382  0.00  0.00    +0.000 A 
ATOM     20  C   UNL     1      -0.436  11.206  18.869  0.00  0.00    +0.000 A 
ATOM     21  C   UNL     1      -1.096  12.320  18.346  0.00  0.00    +0.000 A 
ATOM     22  C   UNL     1      -0.465  13.563  18.328  0.00  0.00    +0.000 A 
ATOM     23  C   UNL     1       0.829  13.685  18.830  0.00  0.00    +0.000 A 
ATOM     24 CL   UNL     1       1.611  15.217  18.807  0.00  0.00    +0.000 Cl
ATOM     25  C   UNL     1       1.491  12.575  19.352  0.00  0.00    +0.000 A 
ENDBRANCH  18  19
ENDBRANCH  17  18
ENDBRANCH  12  17
ENDBRANCH  11  12
ENDBRANCH   5  10
BRANCH   1  26
ATOM     26  C   UNL     1       2.419   4.051  17.531  0.00  0.00    +0.000 C 
BRANCH  26  28
ATOM     27  C   UNL     1       4.912   4.468  17.733  0.00  0.00    +0.000 C 
ATOM     28  C   UNL     1       3.850   3.646  17.777  0.00  0.00    +0.000 C 
BRANCH  27  29
ATOM     29  C   UNL     1       4.864   5.944  17.438  0.00  0.00    +0.000 C 
BRANCH  29  30
ATOM     30  C   UNL     1       5.593   6.281  16.137  0.00  0.00    +0.000 C 
BRANCH  30  31
ATOM     31  C   UNL     1       6.877   5.470  15.980  0.00  0.00    +0.000 C 
BRANCH  31  33
ATOM     32  O   UNL     1       6.405   3.881  14.203  0.00  0.00    +0.000 OA
ATOM     33  C   UNL     1       7.008   4.861  14.608  0.00  0.00    +0.000 C 
BRANCH  33  34
ATOM     34  O   UNL     1       7.897   5.536  13.841  0.00  0.00    +0.000 OA
ATOM     35  H   UNL     1       7.689   5.504  12.888  0.00  0.00    +0.000 HD
ENDBRANCH  33  34
ENDBRANCH  31  33
ENDBRANCH  30  31
ENDBRANCH  29  30
ENDBRANCH  27  29
ENDBRANCH  26  28
ENDBRANCH   1  26
TORSDOF 14
ENDMDL
MODEL 6
REMARK VINA RESULT:      -7.4      3.470      8.813
REMARK  Name = 
REMARK  14 active torsions:
REMARK  status: ('A' for Active; 'I' for Inactive)
REMARK    1  A    between atoms: C_2  and  O_3
REMARK    2  A    between atoms: C_2  and  C_4
REMARK    3  A    between atoms: C_4  and  C_5
REMARK    4  A    between atoms: C_5  and  C_6
REMARK    5  A    between atoms: C_6  and  C_7
REMARK    6  A    between atoms: C_8  and  C_9
REMARK    7  A    between atoms: C_9  and  C_10
REMARK    8  A    between atoms: C_11  and  O_12
REMARK    9  A    between atoms: C_14  and  O_15
REMARK   10  A    between atoms: C_16  and  C_17
REMARK   11  A    between atoms: C_18  and  C_19
REMARK   12  A    between atoms: C_19  and  C_20
REMARK   13  A    between atoms: C_20  and  O_21
REMARK   14  A    between atoms: O_21  and  C_22
REMARK                            x       y       z     vdW  Elec       q    Type
REMARK                         _______ _______ _______ _____ _____    ______ ____
ROOT
ATOM      1  C   UNL     1       2.510   4.491  18.918  0.00  0.00    +0.000 C 
ATOM      2  C   UNL     1       2.446   2.953  18.759  0.00  0.00    +0.000 C 
ATOM      3  C   UNL     1       2.241   2.367  20.143  0.00  0.00    +0.000 C 
ATOM      4  C   UNL     1       1.581   3.473  20.936  0.00  0.00    +0.000 C 
ATOM      5  C   UNL     1       2.196   4.783  20.407  0.00  0.00    +0.000 C 
ENDROOT
BRANCH   2   6
ATOM      6  O   UNL     1       3.561   2.342  18.142  0.00  0.00    +0.000 OA
ATOM      7  H   UNL     1       4.036   1.817  18.810  0.00  0.00    +0.000 HD
ENDBRANCH   2   6
BRANCH   4   8
ATOM      8  O   UNL     1       1.834   3.297  22.327  0.00  0.00    +0.000 OA
ATOM      9  H   UNL     1       1.314   3.952  22.816  0.00  0.00    +0.000 HD
ENDBRANCH   4   8
BRANCH   5  10
ATOM     10  C   UNL     1       1.351   6.033  20.568  0.00  0.00    +0.000 C 
ATOM     11  C   UNL     1       1.813   7.245  20.927  0.00  0.00    +0.000 C 
BRANCH  11  12
ATOM     12  C   UNL     1       1.021   8.510  21.126  0.00  0.00    +0.000 C 
ATOM     13  O   UNL     1      -0.313   8.142  21.529  0.00  0.00    +0.000 OA
ATOM     14  C   UNL     1      -0.636   9.059  22.568  0.00  0.00    +0.000 C 
ATOM     15  C   UNL     1       0.688   9.338  23.226  0.00  0.00    +0.000 C 
ATOM     16  O   UNL     1       1.629   9.308  22.157  0.00  0.00    +0.000 OA
BRANCH  12  17
ATOM     17  C   UNL     1       0.939   9.340  19.818  0.00  0.00    +0.000 C 
BRANCH  17  18
ATOM     18  O   UNL     1       0.480  10.673  20.082  0.00  0.00    +0.000 OA
BRANCH  18  19
ATOM     19  C   UNL     1      -0.732  11.028  19.560  0.00  0.00    +0.000 A 
ATOM     20  C   UNL     1      -1.614  11.962  20.109  0.00  0.00    +0.000 A 
ATOM     21  C   UNL     1      -2.823  12.249  19.469  0.00  0.00    +0.000 A 
ATOM     22  C   UNL     1      -3.157  11.600  18.281  0.00  0.00    +0.000 A 
ATOM     23  C   UNL     1      -2.282  10.661  17.741  0.00  0.00    +0.000 A 
ATOM     24 CL   UNL     1      -2.695   9.857  16.277  0.00  0.00    +0.000 Cl
ATOM     25  C   UNL     1      -1.076  10.371  18.376  0.00  0.00    +0.000 A 
ENDBRANCH  18  19
ENDBRANCH  17  18
ENDBRANCH  12  17
ENDBRANCH  11  12
ENDBRANCH   5  10
BRANCH   1  26
ATOM     26  C   UNL     1       3.770   5.214  18.409  0.00  0.00    +0.000 C 
BRANCH  26  28
ATOM     27  C   UNL     1       4.350   7.204  16.948  0.00  0.00    +0.000 C 
ATOM     28  C   UNL     1       3.536   6.581  17.817  0.00  0.00    +0.000 C 
BRANCH  27  29
ATOM     29  C   UNL     1       5.637   6.647  16.401  0.00  0.00    +0.000 C 
BRANCH  29  30
ATOM     30  C   UNL     1       5.455   6.095  14.987  0.00  0.00    +0.000 C 
BRANCH  30  31
ATOM     31  C   UNL     1       6.329   4.868  14.740  0.00  0.00    +0.000 C 
BRANCH  31  33
ATOM     32  O   UNL     1       7.854   4.471  16.590  0.00  0.00    +0.000 OA
ATOM     33  C   UNL     1       6.802   4.230  16.021  0.00  0.00    +0.000 C 
BRANCH  33  34
ATOM     34  O   UNL     1       5.909   3.328  16.493  0.00  0.00    +0.000 OA
ATOM     35  H   UNL     1       4.980   3.599  16.369  0.00  0.00    +0.000 HD
ENDBRANCH  33  34
ENDBRANCH  31  33
ENDBRANCH  30  31
ENDBRANCH  29  30
ENDBRANCH  27  29
ENDBRANCH  26  28
ENDBRANCH   1  26
TORSDOF 14
ENDMDL
MODEL 7
REMARK VINA RESULT:      -7.4      2.884      5.880
REMARK  Name = 
REMARK  14 active torsions:
REMARK  status: ('A' for Active; 'I' for Inactive)
REMARK    1  A    between atoms: C_2  and  O_3
REMARK    2  A    between atoms: C_2  and  C_4
REMARK    3  A    between atoms: C_4  and  C_5
REMARK    4  A    between atoms: C_5  and  C_6
REMARK    5  A    between atoms: C_6  and  C_7
REMARK    6  A    between atoms: C_8  and  C_9
REMARK    7  A    between atoms: C_9  and  C_10
REMARK    8  A    between atoms: C_11  and  O_12
REMARK    9  A    between atoms: C_14  and  O_15
REMARK   10  A    between atoms: C_16  and  C_17
REMARK   11  A    between atoms: C_18  and  C_19
REMARK   12  A    between atoms: C_19  and  C_20
REMARK   13  A    between atoms: C_20  and  O_21
REMARK   14  A    between atoms: O_21  and  C_22
REMARK                            x       y       z     vdW  Elec       q    Type
REMARK                         _______ _______ _______ _____ _____    ______ ____
ROOT
ATOM      1  C   UNL     1       1.026   8.729  20.161  0.00  0.00    +0.000 C 
ATOM      2  C   UNL     1       0.681   9.791  19.089  0.00  0.00    +0.000 C 
ATOM      3  C   UNL     1       1.713   9.664  17.983  0.00  0.00    +0.000 C 
ATOM      4  C   UNL     1       2.206   8.236  18.079  0.00  0.00    +0.000 C 
ATOM      5  C   UNL     1       2.197   7.896  19.581  0.00  0.00    +0.000 C 
ENDROOT
BRANCH   2   6
ATOM      6  O   UNL     1       0.621  11.131  19.533  0.00  0.00    +0.000 OA
ATOM      7  H   UNL     1       1.141  11.684  18.924  0.00  0.00    +0.000 HD
ENDBRANCH   2   6
BRANCH   4   8
ATOM      8  O   UNL     1       3.513   8.130  17.522  0.00  0.00    +0.000 OA
ATOM      9  H   UNL     1       3.502   7.436  16.847  0.00  0.00    +0.000 HD
ENDBRANCH   4   8
BRANCH   5  10
ATOM     10  C   UNL     1       2.068   6.426  19.934  0.00  0.00    +0.000 C 
ATOM     11  C   UNL     1       2.871   5.444  19.486  0.00  0.00    +0.000 C 
BRANCH  11  12
ATOM     12  C   UNL     1       2.776   3.970  19.781  0.00  0.00    +0.000 C 
ATOM     13  O   UNL     1       2.914   3.790  21.204  0.00  0.00    +0.000 OA
ATOM     14  C   UNL     1       1.927   2.819  21.536  0.00  0.00    +0.000 C 
ATOM     15  C   UNL     1       0.822   3.076  20.549  0.00  0.00    +0.000 C 
ATOM     16  O   UNL     1       1.495   3.470  19.357  0.00  0.00    +0.000 OA
BRANCH  12  17
ATOM     17  C   UNL     1       3.898   3.175  19.063  0.00  0.00    +0.000 C 
BRANCH  17  18
ATOM     18  O   UNL     1       5.194   3.601  19.507  0.00  0.00    +0.000 OA
BRANCH  18  19
ATOM     19  C   UNL     1       5.862   4.492  18.714  0.00  0.00    +0.000 A 
ATOM     20  C   UNL     1       6.761   5.464  19.158  0.00  0.00    +0.000 A 
ATOM     21  C   UNL     1       7.391   6.310  18.242  0.00  0.00    +0.000 A 
ATOM     22  C   UNL     1       7.122   6.192  16.880  0.00  0.00    +0.000 A 
ATOM     23  C   UNL     1       6.217   5.229  16.439  0.00  0.00    +0.000 A 
ATOM     24 CL   UNL     1       5.881   5.083  14.757  0.00  0.00    +0.000 Cl
ATOM     25  C   UNL     1       5.585   4.383  17.349  0.00  0.00    +0.000 A 
ENDBRANCH  18  19
ENDBRANCH  17  18
ENDBRANCH  12  17
ENDBRANCH  11  12
ENDBRANCH   5  10
BRANCH   1  26
ATOM     26  C   UNL     1       1.281   9.218  21.598  0.00  0.00    +0.000 C 
BRANCH  26  28
ATOM     27  C   UNL     1      -0.712  10.008  22.952  0.00  0.00    +0.000 C 
ATOM     28  C   UNL     1       0.131   9.040  22.556  0.00  0.00    +0.000 C 
BRANCH  27  29
ATOM     29  C   UNL     1      -0.666  11.446  22.505  0.00  0.00    +0.000 C 
BRANCH  29  30
ATOM     30  C   UNL     1      -1.680  12.302  23.262  0.00  0.00    +0.000 C 
BRANCH  30  31
ATOM     31  C   UNL     1      -2.834  12.742  22.363  0.00  0.00    +0.000 C 
BRANCH  31  33
ATOM     32  O   UNL     1      -5.156  13.346  22.748  0.00  0.00    +0.000 OA
ATOM     33  C   UNL     1      -4.160  12.722  23.078  0.00  0.00    +0.000 C 
BRANCH  33  34
ATOM     34  O   UNL     1      -4.135  11.914  24.164  0.00  0.00    +0.000 OA
ATOM     35  H   UNL     1      -3.719  12.326  24.945  0.00  0.00    +0.000 HD
ENDBRANCH  33  34
ENDBRANCH  31  33
ENDBRANCH  30  31
ENDBRANCH  29  30
ENDBRANCH  27  29
ENDBRANCH  26  28
ENDBRANCH   1  26
TORSDOF 14
ENDMDL
MODEL 8
REMARK VINA RESULT:      -7.4      1.942      2.349
REMARK  Name = 
REMARK  14 active torsions:
REMARK  status: ('A' for Active; 'I' for Inactive)
REMARK    1  A    between atoms: C_2  and  O_3
REMARK    2  A    between atoms: C_2  and  C_4
REMARK    3  A    between atoms: C_4  and  C_5
REMARK    4  A    between atoms: C_5  and  C_6
REMARK    5  A    between atoms: C_6  and  C_7
REMARK    6  A    between atoms: C_8  and  C_9
REMARK    7  A    between atoms: C_9  and  C_10
REMARK    8  A    between atoms: C_11  and  O_12
REMARK    9  A    between atoms: C_14  and  O_15
REMARK   10  A    between atoms: C_16  and  C_17
REMARK   11  A    between atoms: C_18  and  C_19
REMARK   12  A    between atoms: C_19  and  C_20
REMARK   13  A    between atoms: C_20  and  O_21
REMARK   14  A    between atoms: O_21  and  C_22
REMARK                            x       y       z     vdW  Elec       q    Type
REMARK                         _______ _______ _______ _____ _____    ______ ____
ROOT
ATOM      1  C   UNL     1       2.467   4.161  20.116  0.00  0.00    +0.000 C 
ATOM      2  C   UNL     1       1.999   2.845  20.784  0.00  0.00    +0.000 C 
ATOM      3  C   UNL     1       2.002   1.771  19.711  0.00  0.00    +0.000 C 
ATOM      4  C   UNL     1       3.007   2.253  18.687  0.00  0.00    +0.000 C 
ATOM      5  C   UNL     1       2.873   3.788  18.667  0.00  0.00    +0.000 C 
ENDROOT
BRANCH   2   6
ATOM      6  O   UNL     1       0.738   2.881  21.419  0.00  0.00    +0.000 OA
ATOM      7  H   UNL     1       0.105   3.326  20.829  0.00  0.00    +0.000 HD
ENDBRANCH   2   6
BRANCH   4   8
ATOM      8  O   UNL     1       2.720   1.683  17.413  0.00  0.00    +0.000 OA
ATOM      9  H   UNL     1       3.189   2.194  16.738  0.00  0.00    +0.000 HD
ENDBRANCH   4   8
BRANCH   5  10
ATOM     10  C   UNL     1       4.096   4.561  18.211  0.00  0.00    +0.000 C 
ATOM     11  C   UNL     1       5.362   4.104  18.241  0.00  0.00    +0.000 C 
BRANCH  11  12
ATOM     12  C   UNL     1       6.613   4.833  17.827  0.00  0.00    +0.000 C 
ATOM     13  O   UNL     1       6.319   6.243  17.799  0.00  0.00    +0.000 OA
ATOM     14  C   UNL     1       7.458   6.855  18.396  0.00  0.00    +0.000 C 
ATOM     15  C   UNL     1       7.931   5.836  19.396  0.00  0.00    +0.000 C 
ATOM     16  O   UNL     1       7.661   4.581  18.780  0.00  0.00    +0.000 OA
BRANCH  12  17
ATOM     17  C   UNL     1       7.086   4.391  16.417  0.00  0.00    +0.000 C 
BRANCH  17  18
ATOM     18  O   UNL     1       6.237   4.936  15.396  0.00  0.00    +0.000 OA
BRANCH  18  19
ATOM     19  C   UNL     1       6.603   4.711  14.098  0.00  0.00    +0.000 A 
ATOM     20  C   UNL     1       7.534   5.457  13.373  0.00  0.00    +0.000 A 
ATOM     21  C   UNL     1       7.832   5.116  12.051  0.00  0.00    +0.000 A 
ATOM     22  C   UNL     1       7.197   4.032  11.447  0.00  0.00    +0.000 A 
ATOM     23  C   UNL     1       6.260   3.295  12.168  0.00  0.00    +0.000 A 
ATOM     24 CL   UNL     1       5.473   1.958  11.424  0.00  0.00    +0.000 Cl
ATOM     25  C   UNL     1       5.960   3.631  13.487  0.00  0.00    +0.000 A 
ENDBRANCH  18  19
ENDBRANCH  17  18
ENDBRANCH  12  17
ENDBRANCH  11  12
ENDBRANCH   5  10
BRANCH   1  26
ATOM     26  C   UNL     1       1.527   5.377  20.190  0.00  0.00    +0.000 C 
BRANCH  26  28
ATOM     27  C   UNL     1       2.238   7.772  19.757  0.00  0.00    +0.000 C 
ATOM     28  C   UNL     1       2.187   6.685  20.544  0.00  0.00    +0.000 C 
BRANCH  27  29
ATOM     29  C   UNL     1       1.635   7.885  18.381  0.00  0.00    +0.000 C 
BRANCH  29  30
ATOM     30  C   UNL     1       1.744   9.308  17.836  0.00  0.00    +0.000 C 
BRANCH  30  31
ATOM     31  C   UNL     1       1.161  10.333  18.806  0.00  0.00    +0.000 C 
BRANCH  31  33
ATOM     32  O   UNL     1      -1.013  11.342  19.210  0.00  0.00    +0.000 OA
ATOM     33  C   UNL     1      -0.300  10.599  18.553  0.00  0.00    +0.000 C 
BRANCH  33  34
ATOM     34  O   UNL     1      -0.761   9.906  17.485  0.00  0.00    +0.000 OA
ATOM     35  H   UNL     1      -1.708  10.057  17.304  0.00  0.00    +0.000 HD
ENDBRANCH  33  34
ENDBRANCH  31  33
ENDBRANCH  30  31
ENDBRANCH  29  30
ENDBRANCH  27  29
ENDBRANCH  26  28
ENDBRANCH   1  26
TORSDOF 14
ENDMDL
MODEL 9
REMARK VINA RESULT:      -7.4      3.758      8.812
REMARK  Name = 
REMARK  14 active torsions:
REMARK  status: ('A' for Active; 'I' for Inactive)
REMARK    1  A    between atoms: C_2  and  O_3
REMARK    2  A    between atoms: C_2  and  C_4
REMARK    3  A    between atoms: C_4  and  C_5
REMARK    4  A    between atoms: C_5  and  C_6
REMARK    5  A    between atoms: C_6  and  C_7
REMARK    6  A    between atoms: C_8  and  C_9
REMARK    7  A    between atoms: C_9  and  C_10
REMARK    8  A    between atoms: C_11  and  O_12
REMARK    9  A    between atoms: C_14  and  O_15
REMARK   10  A    between atoms: C_16  and  C_17
REMARK   11  A    between atoms: C_18  and  C_19
REMARK   12  A    between atoms: C_19  and  C_20
REMARK   13  A    between atoms: C_20  and  O_21
REMARK   14  A    between atoms: O_21  and  C_22
REMARK                            x       y       z     vdW  Elec       q    Type
REMARK                         _______ _______ _______ _____ _____    ______ ____
ROOT
ATOM      1  C   UNL     1       2.596   4.682  18.677  0.00  0.00    +0.000 C 
ATOM      2  C   UNL     1       2.442   3.205  18.245  0.00  0.00    +0.000 C 
ATOM      3  C   UNL     1       1.829   2.456  19.414  0.00  0.00    +0.000 C 
ATOM      4  C   UNL     1       1.084   3.513  20.199  0.00  0.00    +0.000 C 
ATOM      5  C   UNL     1       1.929   4.795  20.071  0.00  0.00    +0.000 C 
ENDROOT
BRANCH   2   6
ATOM      6  O   UNL     1       3.622   2.550  17.826  0.00  0.00    +0.000 OA
ATOM      7  H   UNL     1       4.269   2.580  18.552  0.00  0.00    +0.000 HD
ENDBRANCH   2   6
BRANCH   4   8
ATOM      8  O   UNL     1       0.944   3.108  21.558  0.00  0.00    +0.000 OA
ATOM      9  H   UNL     1       1.638   3.540  22.077  0.00  0.00    +0.000 HD
ENDBRANCH   4   8
BRANCH   5  10
ATOM     10  C   UNL     1       1.184   6.107  20.232  0.00  0.00    +0.000 C 
ATOM     11  C   UNL     1       1.655   7.198  20.865  0.00  0.00    +0.000 C 
BRANCH  11  12
ATOM     12  C   UNL     1       0.954   8.514  21.077  0.00  0.00    +0.000 C 
ATOM     13  O   UNL     1      -0.395   8.237  21.501  0.00  0.00    +0.000 OA
ATOM     14  C   UNL     1      -0.637   9.173  22.546  0.00  0.00    +0.000 C 
ATOM     15  C   UNL     1       0.713   9.360  23.182  0.00  0.00    +0.000 C 
ATOM     16  O   UNL     1       1.632   9.268  22.098  0.00  0.00    +0.000 OA
BRANCH  12  17
ATOM     17  C   UNL     1       0.908   9.348  19.770  0.00  0.00    +0.000 C 
BRANCH  17  18
ATOM     18  O   UNL     1      -0.213  10.244  19.771  0.00  0.00    +0.000 OA
BRANCH  18  19
ATOM     19  C   UNL     1       0.045  11.564  19.527  0.00  0.00    +0.000 A 
ATOM     20  C   UNL     1      -0.756  12.425  18.774  0.00  0.00    +0.000 A 
ATOM     21  C   UNL     1      -0.389  13.763  18.608  0.00  0.00    +0.000 A 
ATOM     22  C   UNL     1       0.783  14.244  19.190  0.00  0.00    +0.000 A 
ATOM     23  C   UNL     1       1.587  13.382  19.932  0.00  0.00    +0.000 A 
ATOM     24 CL   UNL     1       3.035  13.973  20.648  0.00  0.00    +0.000 Cl
ATOM     25  C   UNL     1       1.225  12.046  20.099  0.00  0.00    +0.000 A 
ENDBRANCH  18  19
ENDBRANCH  17  18
ENDBRANCH  12  17
ENDBRANCH  11  12
ENDBRANCH   5  10
BRANCH   1  26
ATOM     26  C   UNL     1       4.004   5.302  18.626  0.00  0.00    +0.000 C 
BRANCH  26  28
ATOM     27  C   UNL     1       4.970   6.216  16.467  0.00  0.00    +0.000 C 
ATOM     28  C   UNL     1       4.209   6.354  17.565  0.00  0.00    +0.000 C 
BRANCH  27  29
ATOM     29  C   UNL     1       5.750   4.983  16.091  0.00  0.00    +0.000 C 
BRANCH  29  30
ATOM     30  C   UNL     1       7.220   5.105  16.489  0.00  0.00    +0.000 C 
BRANCH  30  31
ATOM     31  C   UNL     1       7.450   4.692  17.941  0.00  0.00    +0.000 C 
BRANCH  31  33
ATOM     32  O   UNL     1       7.949   7.015  18.453  0.00  0.00    +0.000 OA
ATOM     33  C   UNL     1       7.789   5.864  18.826  0.00  0.00    +0.000 C 
BRANCH  33  34
ATOM     34  O   UNL     1       7.903   5.499  20.125  0.00  0.00    +0.000 OA
ATOM     35  H   UNL     1       7.442   4.665  20.335  0.00  0.00    +0.000 HD
ENDBRANCH  33  34
ENDBRANCH  31  33
ENDBRANCH  30  31
ENDBRANCH  29  30
ENDBRANCH  27  29
ENDBRANCH  26  28
ENDBRANCH   1  26
TORSDOF 14
ENDMDL
