MODEL 1
REMARK VINA RESULT:      -8.1      0.000      0.000
REMARK  Name = 
REMARK  3 active torsions:
REMARK  status: ('A' for Active; 'I' for Inactive)
REMARK    1  A    between atoms: C_1  and  C_2
REMARK    2  A    between atoms: C_2  and  C_3
REMARK    3  A    between atoms: C_2  and  N_30
REMARK                            x       y       z     vdW  Elec       q    Type
REMARK                         _______ _______ _______ _____ _____    ______ ____
ROOT
ATOM      1  C   UNL     1       6.232  11.778  26.645  0.00  0.00    +0.000 C 
ATOM      2  O   UNL     1       7.046  11.657  27.580  0.00  0.00    +0.000 OA
ATOM      3  N   UNL     1       6.734  11.983  25.336  0.00  0.00    +0.000 N 
ATOM      4  C   UNL     1       8.195  12.099  25.255  0.00  0.00    +0.000 C 
ATOM      5  C   UNL     1       8.844  12.272  23.861  0.00  0.00    +0.000 C 
ATOM      6  C   UNL     1       8.146  13.241  22.867  0.00  0.00    +0.000 C 
ATOM      7  C   UNL     1       6.691  12.588  22.861  0.00  0.00    +0.000 C 
ATOM      8  C   UNL     1       5.983  12.646  24.269  0.00  0.00    +0.000 C 
ATOM      9  C   UNL     1       7.957  14.755  23.256  0.00  0.00    +0.000 C 
ATOM     10  C   UNL     1       6.978  15.424  22.251  0.00  0.00    +0.000 A 
ATOM     11  C   UNL     1       5.661  15.704  22.588  0.00  0.00    +0.000 A 
ATOM     12  C   UNL     1       4.728  15.916  21.558  0.00  0.00    +0.000 A 
ATOM     13  C   UNL     1       5.098  15.881  20.201  0.00  0.00    +0.000 A 
ATOM     14  C   UNL     1       6.423  15.662  19.852  0.00  0.00    +0.000 A 
ATOM     15  C   UNL     1       7.330  15.497  20.890  0.00  0.00    +0.000 A 
ATOM     16  O   UNL     1       6.747  15.586  18.496  0.00  0.00    +0.000 OA
ATOM     17  C   UNL     1       7.911  14.932  18.134  0.00  0.00    +0.000 A 
ATOM     18  C   UNL     1       7.912  13.549  17.894  0.00  0.00    +0.000 A 
ATOM     19  C   UNL     1       9.109  12.871  17.616  0.00  0.00    +0.000 A 
ATOM     20  C   UNL     1      10.318  13.533  17.745  0.00  0.00    +0.000 A 
ATOM     21  C   UNL     1      10.288  14.850  18.182  0.00  0.00    +0.000 A 
ATOM     22  C   UNL     1       9.117  15.618  18.110  0.00  0.00    +0.000 A 
ATOM     23  C   UNL     1      11.335  15.243  19.191  0.00  0.00    +0.000 C 
ATOM     24  C   UNL     1      10.760  15.243  20.655  0.00  0.00    +0.000 C 
ATOM     25  N   UNL     1      10.259  14.037  21.498  0.00  0.00    +0.000 N 
ATOM     26  C   UNL     1       9.051  13.239  21.470  0.00  0.00    +0.000 C 
ATOM     27  O   UNL     1       8.741  12.527  20.540  0.00  0.00    +0.000 OA
ATOM     28  H   UNL     1      10.542  14.196  22.442  0.00  0.00    +0.000 HD
ENDROOT
BRANCH   1  30
ATOM     29  C   UNL     1       4.165  12.667  28.001  0.00  0.00    +0.000 C 
ATOM     30  C   UNL     1       4.747  11.625  27.047  0.00  0.00    +0.000 C 
BRANCH  30  31
ATOM     31  N   UNL     1       4.311  10.267  27.339  0.00  0.00    +0.000 N 
ATOM     32  C   UNL     1       3.027   9.793  27.297  0.00  0.00    +0.000 A 
ATOM     33  N   UNL     1       2.971   8.675  27.983  0.00  0.00    +0.000 NA
ATOM     34  N   UNL     1       4.238   8.468  28.466  0.00  0.00    +0.000 NA
ATOM     35  N   UNL     1       5.061   9.435  28.081  0.00  0.00    +0.000 NA
ENDBRANCH  30  31
ENDBRANCH   1  30
TORSDOF 2
ENDMDL
MODEL 2
REMARK VINA RESULT:      -7.8      8.144     10.473
REMARK  Name = 
REMARK  3 active torsions:
REMARK  status: ('A' for Active; 'I' for Inactive)
REMARK    1  A    between atoms: C_1  and  C_2
REMARK    2  A    between atoms: C_2  and  C_3
REMARK    3  A    between atoms: C_2  and  N_30
REMARK                            x       y       z     vdW  Elec       q    Type
REMARK                         _______ _______ _______ _____ _____    ______ ____
ROOT
ATOM      1  C   UNL     1       1.649   7.407  20.244  0.00  0.00    +0.000 C 
ATOM      2  O   UNL     1       1.154   6.318  20.590  0.00  0.00    +0.000 OA
ATOM      3  N   UNL     1       1.186   8.588  20.873  0.00  0.00    +0.000 N 
ATOM      4  C   UNL     1       0.098   8.379  21.835  0.00  0.00    +0.000 C 
ATOM      5  C   UNL     1      -0.442   9.602  22.615  0.00  0.00    +0.000 C 
ATOM      6  C   UNL     1      -0.640  10.921  21.819  0.00  0.00    +0.000 C 
ATOM      7  C   UNL     1       0.835  11.086  21.236  0.00  0.00    +0.000 C 
ATOM      8  C   UNL     1       1.247   9.917  20.261  0.00  0.00    +0.000 C 
ATOM      9  C   UNL     1      -1.617  10.949  20.584  0.00  0.00    +0.000 C 
ATOM     10  C   UNL     1      -1.404  12.268  19.791  0.00  0.00    +0.000 A 
ATOM     11  C   UNL     1      -0.708  12.297  18.590  0.00  0.00    +0.000 A 
ATOM     12  C   UNL     1      -0.195  13.523  18.133  0.00  0.00    +0.000 A 
ATOM     13  C   UNL     1      -0.393  14.722  18.842  0.00  0.00    +0.000 A 
ATOM     14  C   UNL     1      -1.139  14.717  20.013  0.00  0.00    +0.000 A 
ATOM     15  C   UNL     1      -1.667  13.500  20.419  0.00  0.00    +0.000 A 
ATOM     16  O   UNL     1      -1.274  15.916  20.716  0.00  0.00    +0.000 OA
ATOM     17  C   UNL     1      -1.593  15.856  22.061  0.00  0.00    +0.000 A 
ATOM     18  C   UNL     1      -0.585  15.759  23.033  0.00  0.00    +0.000 A 
ATOM     19  C   UNL     1      -0.912  15.607  24.390  0.00  0.00    +0.000 A 
ATOM     20  C   UNL     1      -2.227  15.381  24.758  0.00  0.00    +0.000 A 
ATOM     21  C   UNL     1      -3.171  15.282  23.746  0.00  0.00    +0.000 A 
ATOM     22  C   UNL     1      -2.920  15.781  22.459  0.00  0.00    +0.000 A 
ATOM     23  C   UNL     1      -4.201  14.192  23.897  0.00  0.00    +0.000 C 
ATOM     24  C   UNL     1      -3.839  12.927  23.035  0.00  0.00    +0.000 C 
ATOM     25  N   UNL     1      -2.640  11.953  23.201  0.00  0.00    +0.000 N 
ATOM     26  C   UNL     1      -1.229  12.051  22.890  0.00  0.00    +0.000 C 
ATOM     27  O   UNL     1      -0.478  12.833  23.431  0.00  0.00    +0.000 OA
ATOM     28  H   UNL     1      -2.972  11.034  22.995  0.00  0.00    +0.000 HD
ENDROOT
BRANCH   1  30
ATOM     29  C   UNL     1       2.621   8.145  17.917  0.00  0.00    +0.000 C 
ATOM     30  C   UNL     1       2.773   7.308  19.186  0.00  0.00    +0.000 C 
BRANCH  30  31
ATOM     31  N   UNL     1       3.286   5.968  18.936  0.00  0.00    +0.000 N 
ATOM     32  C   UNL     1       4.443   5.430  19.432  0.00  0.00    +0.000 A 
ATOM     33  N   UNL     1       4.768   4.390  18.702  0.00  0.00    +0.000 NA
ATOM     34  N   UNL     1       3.802   4.297  17.731  0.00  0.00    +0.000 NA
ATOM     35  N   UNL     1       2.897   5.258  17.864  0.00  0.00    +0.000 NA
ENDBRANCH  30  31
ENDBRANCH   1  30
TORSDOF 2
ENDMDL
MODEL 3
REMARK VINA RESULT:      -7.8      1.095      1.359
REMARK  Name = 
REMARK  3 active torsions:
REMARK  status: ('A' for Active; 'I' for Inactive)
REMARK    1  A    between atoms: C_1  and  C_2
REMARK    2  A    between atoms: C_2  and  C_3
REMARK    3  A    between atoms: C_2  and  N_30
REMARK                            x       y       z     vdW  Elec       q    Type
REMARK                         _______ _______ _______ _____ _____    ______ ____
ROOT
ATOM      1  C   UNL     1       6.610  12.750  26.730  0.00  0.00    +0.000 C 
ATOM      2  O   UNL     1       7.410  12.893  27.674  0.00  0.00    +0.000 OA
ATOM      3  N   UNL     1       7.131  12.576  25.425  0.00  0.00    +0.000 N 
ATOM      4  C   UNL     1       8.594  12.655  25.337  0.00  0.00    +0.000 C 
ATOM      5  C   UNL     1       9.264  12.424  23.961  0.00  0.00    +0.000 C 
ATOM      6  C   UNL     1       8.589  13.078  22.724  0.00  0.00    +0.000 C 
ATOM      7  C   UNL     1       7.128  12.459  22.879  0.00  0.00    +0.000 C 
ATOM      8  C   UNL     1       6.402  12.916  24.202  0.00  0.00    +0.000 C 
ATOM      9  C   UNL     1       8.410  14.641  22.667  0.00  0.00    +0.000 C 
ATOM     10  C   UNL     1       7.452  15.007  21.500  0.00  0.00    +0.000 A 
ATOM     11  C   UNL     1       6.133  15.378  21.723  0.00  0.00    +0.000 A 
ATOM     12  C   UNL     1       5.216  15.297  20.661  0.00  0.00    +0.000 A 
ATOM     13  C   UNL     1       5.604  14.879  19.375  0.00  0.00    +0.000 A 
ATOM     14  C   UNL     1       6.932  14.562  19.122  0.00  0.00    +0.000 A 
ATOM     15  C   UNL     1       7.823  14.690  20.179  0.00  0.00    +0.000 A 
ATOM     16  O   UNL     1       7.273  14.105  17.847  0.00  0.00    +0.000 OA
ATOM     17  C   UNL     1       8.434  13.368  17.703  0.00  0.00    +0.000 A 
ATOM     18  C   UNL     1       8.424  11.974  17.862  0.00  0.00    +0.000 A 
ATOM     19  C   UNL     1       9.618  11.238  17.805  0.00  0.00    +0.000 A 
ATOM     20  C   UNL     1      10.832  11.902  17.761  0.00  0.00    +0.000 A 
ATOM     21  C   UNL     1      10.810  13.288  17.809  0.00  0.00    +0.000 A 
ATOM     22  C   UNL     1       9.648  14.013  17.505  0.00  0.00    +0.000 A 
ATOM     23  C   UNL     1      11.848  13.943  18.684  0.00  0.00    +0.000 C 
ATOM     24  C   UNL     1      11.253  14.359  20.079  0.00  0.00    +0.000 C 
ATOM     25  N   UNL     1      10.728  13.443  21.219  0.00  0.00    +0.000 N 
ATOM     26  C   UNL     1       9.512  12.676  21.398  0.00  0.00    +0.000 C 
ATOM     27  O   UNL     1       9.208  11.734  20.702  0.00  0.00    +0.000 OA
ATOM     28  H   UNL     1      11.001  13.860  22.085  0.00  0.00    +0.000 HD
ENDROOT
BRANCH   1  30
ATOM     29  C   UNL     1       4.607  13.872  28.008  0.00  0.00    +0.000 C 
ATOM     30  C   UNL     1       5.118  12.727  27.136  0.00  0.00    +0.000 C 
BRANCH  30  31
ATOM     31  N   UNL     1       4.593  11.425  27.524  0.00  0.00    +0.000 N 
ATOM     32  C   UNL     1       5.257  10.229  27.482  0.00  0.00    +0.000 A 
ATOM     33  N   UNL     1       4.375   9.258  27.523  0.00  0.00    +0.000 NA
ATOM     34  N   UNL     1       3.147   9.869  27.577  0.00  0.00    +0.000 NA
ATOM     35  N   UNL     1       3.270  11.190  27.574  0.00  0.00    +0.000 NA
ENDBRANCH  30  31
ENDBRANCH   1  30
TORSDOF 2
ENDMDL
MODEL 4
REMARK VINA RESULT:      -7.6      8.734     10.899
REMARK  Name = 
REMARK  3 active torsions:
REMARK  status: ('A' for Active; 'I' for Inactive)
REMARK    1  A    between atoms: C_1  and  C_2
REMARK    2  A    between atoms: C_2  and  C_3
REMARK    3  A    between atoms: C_2  and  N_30
REMARK                            x       y       z     vdW  Elec       q    Type
REMARK                         _______ _______ _______ _____ _____    ______ ____
ROOT
ATOM      1  C   UNL     1      -5.146  10.761  18.202  0.00  0.00    +0.000 C 
ATOM      2  O   UNL     1      -4.887   9.848  17.395  0.00  0.00    +0.000 OA
ATOM      3  N   UNL     1      -4.118  11.673  18.541  0.00  0.00    +0.000 N 
ATOM      4  C   UNL     1      -2.815  11.376  17.933  0.00  0.00    +0.000 C 
ATOM      5  C   UNL     1      -1.639  12.345  18.200  0.00  0.00    +0.000 C 
ATOM      6  C   UNL     1      -1.474  12.880  19.650  0.00  0.00    +0.000 C 
ATOM      7  C   UNL     1      -2.927  13.506  19.852  0.00  0.00    +0.000 C 
ATOM      8  C   UNL     1      -4.076  12.427  19.795  0.00  0.00    +0.000 C 
ATOM      9  C   UNL     1      -1.252  11.868  20.835  0.00  0.00    +0.000 C 
ATOM     10  C   UNL     1      -1.427  12.614  22.187  0.00  0.00    +0.000 A 
ATOM     11  C   UNL     1      -2.571  12.474  22.959  0.00  0.00    +0.000 A 
ATOM     12  C   UNL     1      -2.860  13.449  23.929  0.00  0.00    +0.000 A 
ATOM     13  C   UNL     1      -2.007  14.545  24.156  0.00  0.00    +0.000 A 
ATOM     14  C   UNL     1      -0.828  14.666  23.433  0.00  0.00    +0.000 A 
ATOM     15  C   UNL     1      -0.549  13.666  22.512  0.00  0.00    +0.000 A 
ATOM     16  O   UNL     1      -0.030  15.790  23.651  0.00  0.00    +0.000 OA
ATOM     17  C   UNL     1       0.863  16.163  22.663  0.00  0.00    +0.000 A 
ATOM     18  C   UNL     1       0.469  17.026  21.628  0.00  0.00    +0.000 A 
ATOM     19  C   UNL     1       1.347  17.332  20.577  0.00  0.00    +0.000 A 
ATOM     20  C   UNL     1       2.547  16.649  20.465  0.00  0.00    +0.000 A 
ATOM     21  C   UNL     1       2.813  15.656  21.396  0.00  0.00    +0.000 A 
ATOM     22  C   UNL     1       2.131  15.600  22.621  0.00  0.00    +0.000 A 
ATOM     23  C   UNL     1       3.420  14.385  20.862  0.00  0.00    +0.000 C 
ATOM     24  C   UNL     1       2.339  13.258  20.674  0.00  0.00    +0.000 C 
ATOM     25  N   UNL     1       1.144  13.220  19.681  0.00  0.00    +0.000 N 
ATOM     26  C   UNL     1      -0.144  13.881  19.650  0.00  0.00    +0.000 C 
ATOM     27  O   UNL     1      -0.278  15.079  19.534  0.00  0.00    +0.000 OA
ATOM     28  H   UNL     1       1.053  12.278  19.361  0.00  0.00    +0.000 HD
ENDROOT
BRANCH   1  30
ATOM     29  C   UNL     1      -7.334  12.151  18.629  0.00  0.00    +0.000 C 
ATOM     30  C   UNL     1      -6.614  10.806  18.689  0.00  0.00    +0.000 C 
BRANCH  30  31
ATOM     31  N   UNL     1      -6.896  10.052  19.903  0.00  0.00    +0.000 N 
ATOM     32  C   UNL     1      -7.149   8.710  19.992  0.00  0.00    +0.000 A 
ATOM     33  N   UNL     1      -7.733   8.469  21.142  0.00  0.00    +0.000 NA
ATOM     34  N   UNL     1      -7.854   9.687  21.764  0.00  0.00    +0.000 NA
ATOM     35  N   UNL     1      -7.350  10.658  21.014  0.00  0.00    +0.000 NA
ENDBRANCH  30  31
ENDBRANCH   1  30
TORSDOF 2
ENDMDL
MODEL 5
REMARK VINA RESULT:      -7.2      7.531      9.094
REMARK  Name = 
REMARK  3 active torsions:
REMARK  status: ('A' for Active; 'I' for Inactive)
REMARK    1  A    between atoms: C_1  and  C_2
REMARK    2  A    between atoms: C_2  and  C_3
REMARK    3  A    between atoms: C_2  and  N_30
REMARK                            x       y       z     vdW  Elec       q    Type
REMARK                         _______ _______ _______ _____ _____    ______ ____
ROOT
ATOM      1  C   UNL     1      -4.160  12.708  22.041  0.00  0.00    +0.000 C 
ATOM      2  O   UNL     1      -4.269  12.289  23.209  0.00  0.00    +0.000 OA
ATOM      3  N   UNL     1      -2.864  12.990  21.543  0.00  0.00    +0.000 N 
ATOM      4  C   UNL     1      -1.785  12.812  22.521  0.00  0.00    +0.000 C 
ATOM      5  C   UNL     1      -0.326  13.044  22.059  0.00  0.00    +0.000 C 
ATOM      6  C   UNL     1      -0.058  14.267  21.140  0.00  0.00    +0.000 C 
ATOM      7  C   UNL     1      -1.094  13.937  19.974  0.00  0.00    +0.000 C 
ATOM      8  C   UNL     1      -2.593  13.939  20.462  0.00  0.00    +0.000 C 
ATOM      9  C   UNL     1      -0.402  15.717  21.649  0.00  0.00    +0.000 C 
ATOM     10  C   UNL     1      -0.335  16.710  20.456  0.00  0.00    +0.000 A 
ATOM     11  C   UNL     1      -1.481  17.205  19.849  0.00  0.00    +0.000 A 
ATOM     12  C   UNL     1      -1.383  17.750  18.557  0.00  0.00    +0.000 A 
ATOM     13  C   UNL     1      -0.154  17.832  17.877  0.00  0.00    +0.000 A 
ATOM     14  C   UNL     1       1.009  17.397  18.496  0.00  0.00    +0.000 A 
ATOM     15  C   UNL     1       0.889  16.901  19.787  0.00  0.00    +0.000 A 
ATOM     16  O   UNL     1       2.203  17.449  17.774  0.00  0.00    +0.000 OA
ATOM     17  C   UNL     1       3.244  16.627  18.165  0.00  0.00    +0.000 A 
ATOM     18  C   UNL     1       3.357  15.323  17.660  0.00  0.00    +0.000 A 
ATOM     19  C   UNL     1       4.361  14.459  18.127  0.00  0.00    +0.000 A 
ATOM     20  C   UNL     1       5.138  14.832  19.210  0.00  0.00    +0.000 A 
ATOM     21  C   UNL     1       4.861  16.050  19.813  0.00  0.00    +0.000 A 
ATOM     22  C   UNL     1       4.130  17.046  19.148  0.00  0.00    +0.000 A 
ATOM     23  C   UNL     1       4.883  16.070  21.319  0.00  0.00    +0.000 C 
ATOM     24  C   UNL     1       3.434  15.980  21.923  0.00  0.00    +0.000 C 
ATOM     25  N   UNL     1       2.429  14.797  21.855  0.00  0.00    +0.000 N 
ATOM     26  C   UNL     1       1.574  14.277  20.808  0.00  0.00    +0.000 C 
ATOM     27  O   UNL     1       1.994  13.785  19.784  0.00  0.00    +0.000 OA
ATOM     28  H   UNL     1       1.956  14.757  22.734  0.00  0.00    +0.000 HD
ENDROOT
BRANCH   1  30
ATOM     29  C   UNL     1      -6.741  13.202  22.039  0.00  0.00    +0.000 C 
ATOM     30  C   UNL     1      -5.489  12.810  21.256  0.00  0.00    +0.000 C 
BRANCH  30  31
ATOM     31  N   UNL     1      -5.724  11.756  20.279  0.00  0.00    +0.000 N 
ATOM     32  C   UNL     1      -5.299  11.736  18.978  0.00  0.00    +0.000 A 
ATOM     33  N   UNL     1      -6.011  10.855  18.317  0.00  0.00    +0.000 NA
ATOM     34  N   UNL     1      -6.900  10.335  19.225  0.00  0.00    +0.000 NA
ATOM     35  N   UNL     1      -6.735  10.881  20.422  0.00  0.00    +0.000 NA
ENDBRANCH  30  31
ENDBRANCH   1  30
TORSDOF 2
ENDMDL
MODEL 6
REMARK VINA RESULT:      -7.2      8.074     10.386
REMARK  Name = 
REMARK  3 active torsions:
REMARK  status: ('A' for Active; 'I' for Inactive)
REMARK    1  A    between atoms: C_1  and  C_2
REMARK    2  A    between atoms: C_2  and  C_3
REMARK    3  A    between atoms: C_2  and  N_30
REMARK                            x       y       z     vdW  Elec       q    Type
REMARK                         _______ _______ _______ _____ _____    ______ ____
ROOT
ATOM      1  C   UNL     1       2.443   5.728  19.283  0.00  0.00    +0.000 C 
ATOM      2  O   UNL     1       2.478   4.843  20.158  0.00  0.00    +0.000 OA
ATOM      3  N   UNL     1       2.156   7.057  19.678  0.00  0.00    +0.000 N 
ATOM      4  C   UNL     1       1.860   7.217  21.107  0.00  0.00    +0.000 C 
ATOM      5  C   UNL     1       1.585   8.641  21.648  0.00  0.00    +0.000 C 
ATOM      6  C   UNL     1       0.694   9.571  20.780  0.00  0.00    +0.000 C 
ATOM      7  C   UNL     1       1.521   9.512  19.418  0.00  0.00    +0.000 C 
ATOM      8  C   UNL     1       1.573   8.065  18.791  0.00  0.00    +0.000 C 
ATOM      9  C   UNL     1      -0.779   9.138  20.430  0.00  0.00    +0.000 C 
ATOM     10  C   UNL     1      -1.339  10.070  19.320  0.00  0.00    +0.000 A 
ATOM     11  C   UNL     1      -1.448   9.654  18.000  0.00  0.00    +0.000 A 
ATOM     12  C   UNL     1      -1.560  10.625  16.990  0.00  0.00    +0.000 A 
ATOM     13  C   UNL     1      -1.593  12.001  17.282  0.00  0.00    +0.000 A 
ATOM     14  C   UNL     1      -1.545  12.429  18.602  0.00  0.00    +0.000 A 
ATOM     15  C   UNL     1      -1.476  11.447  19.581  0.00  0.00    +0.000 A 
ATOM     16  O   UNL     1      -1.532  13.802  18.853  0.00  0.00    +0.000 OA
ATOM     17  C   UNL     1      -1.032  14.243  20.065  0.00  0.00    +0.000 A 
ATOM     18  C   UNL     1       0.336  14.515  20.221  0.00  0.00    +0.000 A 
ATOM     19  C   UNL     1       0.856  14.875  21.474  0.00  0.00    +0.000 A 
ATOM     20  C   UNL     1       0.052  14.798  22.598  0.00  0.00    +0.000 A 
ATOM     21  C   UNL     1      -1.244  14.330  22.433  0.00  0.00    +0.000 A 
ATOM     22  C   UNL     1      -1.863  14.318  21.175  0.00  0.00    +0.000 A 
ATOM     23  C   UNL     1      -1.746  13.371  23.482  0.00  0.00    +0.000 C 
ATOM     24  C   UNL     1      -1.651  11.878  22.997  0.00  0.00    +0.000 C 
ATOM     25  N   UNL     1      -0.379  11.038  22.697  0.00  0.00    +0.000 N 
ATOM     26  C   UNL     1       0.562  11.017  21.596  0.00  0.00    +0.000 C 
ATOM     27  O   UNL     1       1.291  11.944  21.322  0.00  0.00    +0.000 OA
ATOM     28  H   UNL     1      -0.557  10.107  23.013  0.00  0.00    +0.000 HD
ENDROOT
BRANCH   1  30
ATOM     29  C   UNL     1       2.318   3.850  17.450  0.00  0.00    +0.000 C 
ATOM     30  C   UNL     1       2.785   5.248  17.853  0.00  0.00    +0.000 C 
BRANCH  30  31
ATOM     31  N   UNL     1       4.127   5.566  17.386  0.00  0.00    +0.000 N 
ATOM     32  C   UNL     1       4.597   6.800  17.025  0.00  0.00    +0.000 A 
ATOM     33  N   UNL     1       5.682   6.641  16.305  0.00  0.00    +0.000 NA
ATOM     34  N   UNL     1       5.874   5.285  16.211  0.00  0.00    +0.000 NA
ATOM     35  N   UNL     1       4.929   4.622  16.864  0.00  0.00    +0.000 NA
ENDBRANCH  30  31
ENDBRANCH   1  30
TORSDOF 2
ENDMDL
MODEL 7
REMARK VINA RESULT:      -6.9      7.598      9.417
REMARK  Name = 
REMARK  3 active torsions:
REMARK  status: ('A' for Active; 'I' for Inactive)
REMARK    1  A    between atoms: C_1  and  C_2
REMARK    2  A    between atoms: C_2  and  C_3
REMARK    3  A    between atoms: C_2  and  N_30
REMARK                            x       y       z     vdW  Elec       q    Type
REMARK                         _______ _______ _______ _____ _____    ______ ____
ROOT
ATOM      1  C   UNL     1      -4.645  14.752  23.433  0.00  0.00    +0.000 C 
ATOM      2  O   UNL     1      -5.403  15.740  23.465  0.00  0.00    +0.000 OA
ATOM      3  N   UNL     1      -3.333  14.926  22.930  0.00  0.00    +0.000 N 
ATOM      4  C   UNL     1      -3.046  16.276  22.430  0.00  0.00    +0.000 C 
ATOM      5  C   UNL     1      -1.621  16.581  21.908  0.00  0.00    +0.000 C 
ATOM      6  C   UNL     1      -0.940  15.498  21.027  0.00  0.00    +0.000 C 
ATOM      7  C   UNL     1      -1.045  14.259  22.026  0.00  0.00    +0.000 C 
ATOM      8  C   UNL     1      -2.534  13.848  22.344  0.00  0.00    +0.000 C 
ATOM      9  C   UNL     1      -1.619  15.046  19.680  0.00  0.00    +0.000 C 
ATOM     10  C   UNL     1      -0.918  13.762  19.157  0.00  0.00    +0.000 A 
ATOM     11  C   UNL     1      -1.502  12.508  19.275  0.00  0.00    +0.000 A 
ATOM     12  C   UNL     1      -0.687  11.367  19.174  0.00  0.00    +0.000 A 
ATOM     13  C   UNL     1       0.695  11.462  18.928  0.00  0.00    +0.000 A 
ATOM     14  C   UNL     1       1.282  12.707  18.747  0.00  0.00    +0.000 A 
ATOM     15  C   UNL     1       0.446  13.813  18.812  0.00  0.00    +0.000 A 
ATOM     16  O   UNL     1       2.664  12.766  18.553  0.00  0.00    +0.000 OA
ATOM     17  C   UNL     1       3.315  13.954  18.829  0.00  0.00    +0.000 A 
ATOM     18  C   UNL     1       3.797  14.226  20.119  0.00  0.00    +0.000 A 
ATOM     19  C   UNL     1       4.377  15.468  20.420  0.00  0.00    +0.000 A 
ATOM     20  C   UNL     1       4.323  16.493  19.492  0.00  0.00    +0.000 A 
ATOM     21  C   UNL     1       3.657  16.249  18.300  0.00  0.00    +0.000 A 
ATOM     22  C   UNL     1       3.404  14.942  17.857  0.00  0.00    +0.000 A 
ATOM     23  C   UNL     1       2.770  17.355  17.790  0.00  0.00    +0.000 C 
ATOM     24  C   UNL     1       1.258  17.095  18.137  0.00  0.00    +0.000 C 
ATOM     25  N   UNL     1       0.578  17.060  19.534  0.00  0.00    +0.000 N 
ATOM     26  C   UNL     1       0.559  16.086  20.606  0.00  0.00    +0.000 C 
ATOM     27  O   UNL     1       1.542  15.771  21.241  0.00  0.00    +0.000 OA
ATOM     28  H   UNL     1      -0.323  17.479  19.437  0.00  0.00    +0.000 HD
ENDROOT
BRANCH   1  30
ATOM     29  C   UNL     1      -4.281  12.482  24.705  0.00  0.00    +0.000 C 
ATOM     30  C   UNL     1      -5.242  13.450  24.017  0.00  0.00    +0.000 C 
BRANCH  30  31
ATOM     31  N   UNL     1      -6.235  12.785  23.185  0.00  0.00    +0.000 N 
ATOM     32  C   UNL     1      -7.422  12.245  23.601  0.00  0.00    +0.000 A 
ATOM     33  N   UNL     1      -7.848  11.411  22.682  0.00  0.00    +0.000 NA
ATOM     34  N   UNL     1      -6.898  11.428  21.691  0.00  0.00    +0.000 NA
ATOM     35  N   UNL     1      -5.910  12.260  21.991  0.00  0.00    +0.000 NA
ENDBRANCH  30  31
ENDBRANCH   1  30
TORSDOF 2
ENDMDL
MODEL 8
REMARK VINA RESULT:      -6.9      7.265      8.841
REMARK  Name = 
REMARK  3 active torsions:
REMARK  status: ('A' for Active; 'I' for Inactive)
REMARK    1  A    between atoms: C_1  and  C_2
REMARK    2  A    between atoms: C_2  and  C_3
REMARK    3  A    between atoms: C_2  and  N_30
REMARK                            x       y       z     vdW  Elec       q    Type
REMARK                         _______ _______ _______ _____ _____    ______ ____
ROOT
ATOM      1  C   UNL     1      -3.936  12.631  22.284  0.00  0.00    +0.000 C 
ATOM      2  O   UNL     1      -3.990  12.237  23.465  0.00  0.00    +0.000 OA
ATOM      3  N   UNL     1      -2.668  12.933  21.731  0.00  0.00    +0.000 N 
ATOM      4  C   UNL     1      -1.548  12.806  22.671  0.00  0.00    +0.000 C 
ATOM      5  C   UNL     1      -0.114  13.064  22.148  0.00  0.00    +0.000 C 
ATOM      6  C   UNL     1       0.087  14.272  21.192  0.00  0.00    +0.000 C 
ATOM      7  C   UNL     1      -0.983  13.888  20.074  0.00  0.00    +0.000 C 
ATOM      8  C   UNL     1      -2.463  13.863  20.620  0.00  0.00    +0.000 C 
ATOM      9  C   UNL     1      -0.276  15.724  21.681  0.00  0.00    +0.000 C 
ATOM     10  C   UNL     1      -0.280  16.690  20.464  0.00  0.00    +0.000 A 
ATOM     11  C   UNL     1      -1.461  17.141  19.890  0.00  0.00    +0.000 A 
ATOM     12  C   UNL     1      -1.426  17.657  18.583  0.00  0.00    +0.000 A 
ATOM     13  C   UNL     1      -0.226  17.755  17.855  0.00  0.00    +0.000 A 
ATOM     14  C   UNL     1       0.971  17.364  18.439  0.00  0.00    +0.000 A 
ATOM     15  C   UNL     1       0.912  16.896  19.744  0.00  0.00    +0.000 A 
ATOM     16  O   UNL     1       2.135  17.430  17.670  0.00  0.00    +0.000 OA
ATOM     17  C   UNL     1       3.211  16.644  18.041  0.00  0.00    +0.000 A 
ATOM     18  C   UNL     1       3.340  15.331  17.561  0.00  0.00    +0.000 A 
ATOM     19  C   UNL     1       4.382  14.504  18.008  0.00  0.00    +0.000 A 
ATOM     20  C   UNL     1       5.190  14.922  19.052  0.00  0.00    +0.000 A 
ATOM     21  C   UNL     1       4.904  16.147  19.638  0.00  0.00    +0.000 A 
ATOM     22  C   UNL     1       4.123  17.108  18.979  0.00  0.00    +0.000 A 
ATOM     23  C   UNL     1       4.982  16.203  21.141  0.00  0.00    +0.000 C 
ATOM     24  C   UNL     1       3.559  16.091  21.802  0.00  0.00    +0.000 C 
ATOM     25  N   UNL     1       2.584  14.881  21.799  0.00  0.00    +0.000 N 
ATOM     26  C   UNL     1       1.704  14.315  20.798  0.00  0.00    +0.000 C 
ATOM     27  O   UNL     1       2.098  13.810  19.770  0.00  0.00    +0.000 OA
ATOM     28  H   UNL     1       2.145  14.850  22.696  0.00  0.00    +0.000 HD
ENDROOT
BRANCH   1  30
ATOM     29  C   UNL     1      -5.371  13.500  20.262  0.00  0.00    +0.000 C 
ATOM     30  C   UNL     1      -5.296  12.680  21.549  0.00  0.00    +0.000 C 
BRANCH  30  31
ATOM     31  N   UNL     1      -6.466  12.835  22.401  0.00  0.00    +0.000 N 
ATOM     32  C   UNL     1      -6.749  13.896  23.219  0.00  0.00    +0.000 A 
ATOM     33  N   UNL     1      -7.646  13.520  24.099  0.00  0.00    +0.000 NA
ATOM     34  N   UNL     1      -7.908  12.200  23.827  0.00  0.00    +0.000 NA
ATOM     35  N   UNL     1      -7.191  11.774  22.796  0.00  0.00    +0.000 NA
ENDBRANCH  30  31
ENDBRANCH   1  30
TORSDOF 2
ENDMDL
MODEL 9
REMARK VINA RESULT:      -6.8      9.219     12.834
REMARK  Name = 
REMARK  3 active torsions:
REMARK  status: ('A' for Active; 'I' for Inactive)
REMARK    1  A    between atoms: C_1  and  C_2
REMARK    2  A    between atoms: C_2  and  C_3
REMARK    3  A    between atoms: C_2  and  N_30
REMARK                            x       y       z     vdW  Elec       q    Type
REMARK                         _______ _______ _______ _____ _____    ______ ____
ROOT
ATOM      1  C   UNL     1       1.869  15.764  21.131  0.00  0.00    +0.000 C 
ATOM      2  O   UNL     1       2.548  15.897  22.167  0.00  0.00    +0.000 OA
ATOM      3  N   UNL     1       0.462  15.667  21.255  0.00  0.00    +0.000 N 
ATOM      4  C   UNL     1      -0.029  15.667  22.639  0.00  0.00    +0.000 C 
ATOM      5  C   UNL     1      -1.557  15.618  22.879  0.00  0.00    +0.000 C 
ATOM      6  C   UNL     1      -2.386  14.653  21.987  0.00  0.00    +0.000 C 
ATOM      7  C   UNL     1      -1.942  15.192  20.553  0.00  0.00    +0.000 C 
ATOM      8  C   UNL     1      -0.400  15.005  20.275  0.00  0.00    +0.000 C 
ATOM      9  C   UNL     1      -2.070  13.110  22.004  0.00  0.00    +0.000 C 
ATOM     10  C   UNL     1      -2.809  12.422  20.822  0.00  0.00    +0.000 A 
ATOM     11  C   UNL     1      -2.142  12.025  19.672  0.00  0.00    +0.000 A 
ATOM     12  C   UNL     1      -2.885  11.797  18.501  0.00  0.00    +0.000 A 
ATOM     13  C   UNL     1      -4.286  11.932  18.472  0.00  0.00    +0.000 A 
ATOM     14  C   UNL     1      -4.972  12.269  19.630  0.00  0.00    +0.000 A 
ATOM     15  C   UNL     1      -4.217  12.449  20.781  0.00  0.00    +0.000 A 
ATOM     16  O   UNL     1      -6.356  12.441  19.554  0.00  0.00    +0.000 OA
ATOM     17  C   UNL     1      -6.978  13.201  20.529  0.00  0.00    +0.000 A 
ATOM     18  C   UNL     1      -7.108  14.590  20.381  0.00  0.00    +0.000 A 
ATOM     19  C   UNL     1      -7.657  15.371  21.410  0.00  0.00    +0.000 A 
ATOM     20  C   UNL     1      -7.916  14.798  22.643  0.00  0.00    +0.000 A 
ATOM     21  C   UNL     1      -7.585  13.461  22.815  0.00  0.00    +0.000 A 
ATOM     22  C   UNL     1      -7.384  12.610  21.717  0.00  0.00    +0.000 A 
ATOM     23  C   UNL     1      -6.936  13.097  24.125  0.00  0.00    +0.000 C 
ATOM     24  C   UNL     1      -5.374  12.976  23.986  0.00  0.00    +0.000 C 
ATOM     25  N   UNL     1      -4.341  14.094  23.672  0.00  0.00    +0.000 N 
ATOM     26  C   UNL     1      -3.975  14.798  22.460  0.00  0.00    +0.000 C 
ATOM     27  O   UNL     1      -4.729  15.532  21.860  0.00  0.00    +0.000 OA
ATOM     28  H   UNL     1      -3.526  13.907  24.218  0.00  0.00    +0.000 HD
ENDROOT
BRANCH   1  30
ATOM     29  C   UNL     1       4.135  15.328  19.874  0.00  0.00    +0.000 C 
ATOM     30  C   UNL     1       2.677  15.781  19.812  0.00  0.00    +0.000 C 
BRANCH  30  31
ATOM     31  N   UNL     1       2.470  16.946  18.963  0.00  0.00    +0.000 N 
ATOM     32  C   UNL     1       1.562  17.951  19.161  0.00  0.00    +0.000 A 
ATOM     33  N   UNL     1       1.391  18.591  18.028  0.00  0.00    +0.000 NA
ATOM     34  N   UNL     1       2.197  17.958  17.115  0.00  0.00    +0.000 NA
ATOM     35  N   UNL     1       2.855  16.951  17.676  0.00  0.00    +0.000 NA
ENDBRANCH  30  31
ENDBRANCH   1  30
TORSDOF 2
ENDMDL
