MODEL 1
REMARK VINA RESULT:      -8.2      0.000      0.000
REMARK  Name = 
REMARK  2 active torsions:
REMARK  status: ('A' for Active; 'I' for Inactive)
REMARK    1  A    between atoms: C_1  and  C_2
REMARK    2  A    between atoms: C_14  and  C_15
REMARK                            x       y       z     vdW  Elec       q    Type
REMARK                         _______ _______ _______ _____ _____    ______ ____
ROOT
ATOM      1  C   UNL     1       2.429   4.026  21.556  0.00  0.00    +0.000 C 
ATOM      2  C   UNL     1       2.464   3.736  20.081  0.00  0.00    +0.000 A 
ATOM      3  C   UNL     1       1.332   3.178  19.475  0.00  0.00    +0.000 A 
ATOM      4  C   UNL     1       1.325   2.897  18.114  0.00  0.00    +0.000 A 
ATOM      5  C   UNL     1       2.451   3.170  17.336  0.00  0.00    +0.000 A 
ATOM      6  C   UNL     1       3.612   3.731  17.900  0.00  0.00    +0.000 A 
ATOM      7  C   UNL     1       3.595   4.007  19.284  0.00  0.00    +0.000 A 
ATOM      8  N   UNL     1       4.739   4.566  19.879  0.00  0.00    +0.000 N 
ATOM      9  C   UNL     1       5.898   4.874  19.214  0.00  0.00    +0.000 A 
ATOM     10  O   UNL     1       6.857   5.361  19.805  0.00  0.00    +0.000 OA
ATOM     11  C   UNL     1       5.948   4.597  17.758  0.00  0.00    +0.000 A 
ATOM     12  C   UNL     1       7.123   4.906  17.055  0.00  0.00    +0.000 A 
ATOM     13  C   UNL     1       7.204   4.661  15.685  0.00  0.00    +0.000 A 
ATOM     14  C   UNL     1       6.111   4.108  15.019  0.00  0.00    +0.000 A 
ATOM     15  C   UNL     1       4.939   3.801  15.728  0.00  0.00    +0.000 A 
ATOM     16  C   UNL     1       4.828   4.038  17.114  0.00  0.00    +0.000 A 
ATOM     17  H   UNL     1       4.752   4.773  20.868  0.00  0.00    +0.000 HD
ENDROOT
BRANCH  14  18
ATOM     18  C   UNL     1       6.176   3.851  13.609  0.00  0.00    +0.000 C 
ATOM     19  N   UNL     1       6.244   3.649  12.469  0.00  0.00    +0.000 NA
ENDBRANCH  14  18
TORSDOF 1
ENDMDL
MODEL 2
REMARK VINA RESULT:      -7.6      3.535      4.230
REMARK  Name = 
REMARK  2 active torsions:
REMARK  status: ('A' for Active; 'I' for Inactive)
REMARK    1  A    between atoms: C_1  and  C_2
REMARK    2  A    between atoms: C_14  and  C_15
REMARK                            x       y       z     vdW  Elec       q    Type
REMARK                         _______ _______ _______ _____ _____    ______ ____
ROOT
ATOM      1  C   UNL     1       0.413   8.796  21.531  0.00  0.00    +0.000 C 
ATOM      2  C   UNL     1       1.173   8.589  20.249  0.00  0.00    +0.000 A 
ATOM      3  C   UNL     1       1.225   9.634  19.320  0.00  0.00    +0.000 A 
ATOM      4  C   UNL     1       1.919   9.482  18.124  0.00  0.00    +0.000 A 
ATOM      5  C   UNL     1       2.570   8.280  17.840  0.00  0.00    +0.000 A 
ATOM      6  C   UNL     1       2.545   7.202  18.743  0.00  0.00    +0.000 A 
ATOM      7  C   UNL     1       1.834   7.381  19.951  0.00  0.00    +0.000 A 
ATOM      8  N   UNL     1       1.789   6.323  20.874  0.00  0.00    +0.000 N 
ATOM      9  C   UNL     1       2.389   5.103  20.700  0.00  0.00    +0.000 A 
ATOM     10  O   UNL     1       2.304   4.227  21.555  0.00  0.00    +0.000 OA
ATOM     11  C   UNL     1       3.145   4.883  19.443  0.00  0.00    +0.000 A 
ATOM     12  C   UNL     1       3.770   3.642  19.241  0.00  0.00    +0.000 A 
ATOM     13  C   UNL     1       4.490   3.402  18.073  0.00  0.00    +0.000 A 
ATOM     14  C   UNL     1       4.585   4.402  17.105  0.00  0.00    +0.000 A 
ATOM     15  C   UNL     1       3.956   5.640  17.312  0.00  0.00    +0.000 A 
ATOM     16  C   UNL     1       3.221   5.911  18.484  0.00  0.00    +0.000 A 
ATOM     17  H   UNL     1       1.287   6.425  21.745  0.00  0.00    +0.000 HD
ENDROOT
BRANCH  14  18
ATOM     18  C   UNL     1       5.323   4.173  15.897  0.00  0.00    +0.000 C 
ATOM     19  N   UNL     1       5.913   4.001  14.912  0.00  0.00    +0.000 NA
ENDBRANCH  14  18
TORSDOF 1
ENDMDL
MODEL 3
REMARK VINA RESULT:      -7.5      1.978      5.712
REMARK  Name = 
REMARK  2 active torsions:
REMARK  status: ('A' for Active; 'I' for Inactive)
REMARK    1  A    between atoms: C_1  and  C_2
REMARK    2  A    between atoms: C_14  and  C_15
REMARK                            x       y       z     vdW  Elec       q    Type
REMARK                         _______ _______ _______ _____ _____    ______ ____
ROOT
ATOM      1  C   UNL     1       8.877   5.865  12.951  0.00  0.00    +0.000 C 
ATOM      2  C   UNL     1       7.633   5.070  13.235  0.00  0.00    +0.000 A 
ATOM      3  C   UNL     1       7.077   4.296  12.210  0.00  0.00    +0.000 A 
ATOM      4  C   UNL     1       5.928   3.547  12.434  0.00  0.00    +0.000 A 
ATOM      5  C   UNL     1       5.317   3.559  13.689  0.00  0.00    +0.000 A 
ATOM      6  C   UNL     1       5.839   4.321  14.751  0.00  0.00    +0.000 A 
ATOM      7  C   UNL     1       7.007   5.074  14.498  0.00  0.00    +0.000 A 
ATOM      8  N   UNL     1       7.553   5.847  15.537  0.00  0.00    +0.000 N 
ATOM      9  C   UNL     1       7.038   5.935  16.804  0.00  0.00    +0.000 A 
ATOM     10  O   UNL     1       7.575   6.633  17.659  0.00  0.00    +0.000 OA
ATOM     11  C   UNL     1       5.813   5.154  17.102  0.00  0.00    +0.000 A 
ATOM     12  C   UNL     1       5.267   5.226  18.395  0.00  0.00    +0.000 A 
ATOM     13  C   UNL     1       4.118   4.504  18.710  0.00  0.00    +0.000 A 
ATOM     14  C   UNL     1       3.514   3.711  17.735  0.00  0.00    +0.000 A 
ATOM     15  C   UNL     1       4.064   3.644  16.445  0.00  0.00    +0.000 A 
ATOM     16  C   UNL     1       5.225   4.363  16.097  0.00  0.00    +0.000 A 
ATOM     17  H   UNL     1       8.388   6.395  15.382  0.00  0.00    +0.000 HD
ENDROOT
BRANCH  14  18
ATOM     18  C   UNL     1       2.331   2.959  18.043  0.00  0.00    +0.000 C 
ATOM     19  N   UNL     1       1.382   2.338  18.286  0.00  0.00    +0.000 NA
ENDBRANCH  14  18
TORSDOF 1
ENDMDL
MODEL 4
REMARK VINA RESULT:      -7.1      2.057      2.155
REMARK  Name = 
REMARK  2 active torsions:
REMARK  status: ('A' for Active; 'I' for Inactive)
REMARK    1  A    between atoms: C_1  and  C_2
REMARK    2  A    between atoms: C_14  and  C_15
REMARK                            x       y       z     vdW  Elec       q    Type
REMARK                         _______ _______ _______ _____ _____    ______ ____
ROOT
ATOM      1  C   UNL     1       1.029   3.749  20.880  0.00  0.00    +0.000 C 
ATOM      2  C   UNL     1       1.934   3.265  19.781  0.00  0.00    +0.000 A 
ATOM      3  C   UNL     1       2.088   1.887  19.591  0.00  0.00    +0.000 A 
ATOM      4  C   UNL     1       2.915   1.401  18.585  0.00  0.00    +0.000 A 
ATOM      5  C   UNL     1       3.602   2.286  17.753  0.00  0.00    +0.000 A 
ATOM      6  C   UNL     1       3.479   3.680  17.906  0.00  0.00    +0.000 A 
ATOM      7  C   UNL     1       2.633   4.150  18.935  0.00  0.00    +0.000 A 
ATOM      8  N   UNL     1       2.490   5.535  19.115  0.00  0.00    +0.000 N 
ATOM      9  C   UNL     1       3.114   6.494  18.360  0.00  0.00    +0.000 A 
ATOM     10  O   UNL     1       2.938   7.688  18.580  0.00  0.00    +0.000 OA
ATOM     11  C   UNL     1       4.008   6.034  17.270  0.00  0.00    +0.000 A 
ATOM     12  C   UNL     1       4.659   6.997  16.481  0.00  0.00    +0.000 A 
ATOM     13  C   UNL     1       5.504   6.600  15.447  0.00  0.00    +0.000 A 
ATOM     14  C   UNL     1       5.701   5.241  15.202  0.00  0.00    +0.000 A 
ATOM     15  C   UNL     1       5.048   4.283  15.994  0.00  0.00    +0.000 A 
ATOM     16  C   UNL     1       4.187   4.655  17.047  0.00  0.00    +0.000 A 
ATOM     17  H   UNL     1       1.891   5.897  19.844  0.00  0.00    +0.000 HD
ENDROOT
BRANCH  14  18
ATOM     18  C   UNL     1       6.566   4.814  14.140  0.00  0.00    +0.000 C 
ATOM     19  N   UNL     1       7.277   4.480  13.286  0.00  0.00    +0.000 NA
ENDBRANCH  14  18
TORSDOF 1
ENDMDL
MODEL 5
REMARK VINA RESULT:      -7.0      2.994      4.262
REMARK  Name = 
REMARK  2 active torsions:
REMARK  status: ('A' for Active; 'I' for Inactive)
REMARK    1  A    between atoms: C_1  and  C_2
REMARK    2  A    between atoms: C_14  and  C_15
REMARK                            x       y       z     vdW  Elec       q    Type
REMARK                         _______ _______ _______ _____ _____    ______ ____
ROOT
ATOM      1  C   UNL     1       4.922   1.212  20.641  0.00  0.00    +0.000 C 
ATOM      2  C   UNL     1       3.958   2.367  20.639  0.00  0.00    +0.000 A 
ATOM      3  C   UNL     1       2.868   2.338  21.516  0.00  0.00    +0.000 A 
ATOM      4  C   UNL     1       1.956   3.387  21.545  0.00  0.00    +0.000 A 
ATOM      5  C   UNL     1       2.121   4.482  20.695  0.00  0.00    +0.000 A 
ATOM      6  C   UNL     1       3.201   4.556  19.796  0.00  0.00    +0.000 A 
ATOM      7  C   UNL     1       4.114   3.478  19.786  0.00  0.00    +0.000 A 
ATOM      8  N   UNL     1       5.203   3.521  18.900  0.00  0.00    +0.000 N 
ATOM      9  C   UNL     1       5.463   4.542  18.023  0.00  0.00    +0.000 A 
ATOM     10  O   UNL     1       6.438   4.506  17.278  0.00  0.00    +0.000 OA
ATOM     11  C   UNL     1       4.524   5.690  18.010  0.00  0.00    +0.000 A 
ATOM     12  C   UNL     1       4.769   6.750  17.122  0.00  0.00    +0.000 A 
ATOM     13  C   UNL     1       3.909   7.845  17.085  0.00  0.00    +0.000 A 
ATOM     14  C   UNL     1       2.803   7.881  17.934  0.00  0.00    +0.000 A 
ATOM     15  C   UNL     1       2.563   6.818  18.819  0.00  0.00    +0.000 A 
ATOM     16  C   UNL     1       3.416   5.697  18.879  0.00  0.00    +0.000 A 
ATOM     17  H   UNL     1       5.871   2.762  18.873  0.00  0.00    +0.000 HD
ENDROOT
BRANCH  14  18
ATOM     18  C   UNL     1       1.908   9.002  17.911  0.00  0.00    +0.000 C 
ATOM     19  N   UNL     1       1.174   9.900  17.882  0.00  0.00    +0.000 NA
ENDBRANCH  14  18
TORSDOF 1
ENDMDL
MODEL 6
REMARK VINA RESULT:      -7.0      2.658      6.042
REMARK  Name = 
REMARK  2 active torsions:
REMARK  status: ('A' for Active; 'I' for Inactive)
REMARK    1  A    between atoms: C_1  and  C_2
REMARK    2  A    between atoms: C_14  and  C_15
REMARK                            x       y       z     vdW  Elec       q    Type
REMARK                         _______ _______ _______ _____ _____    ______ ____
ROOT
ATOM      1  C   UNL     1       6.004   3.291  15.025  0.00  0.00    +0.000 C 
ATOM      2  C   UNL     1       5.413   4.518  15.664  0.00  0.00    +0.000 A 
ATOM      3  C   UNL     1       5.662   5.768  15.086  0.00  0.00    +0.000 A 
ATOM      4  C   UNL     1       5.132   6.924  15.648  0.00  0.00    +0.000 A 
ATOM      5  C   UNL     1       4.345   6.847  16.797  0.00  0.00    +0.000 A 
ATOM      6  C   UNL     1       4.067   5.614  17.414  0.00  0.00    +0.000 A 
ATOM      7  C   UNL     1       4.616   4.454  16.826  0.00  0.00    +0.000 A 
ATOM      8  N   UNL     1       4.359   3.206  17.418  0.00  0.00    +0.000 N 
ATOM      9  C   UNL     1       3.602   3.013  18.545  0.00  0.00    +0.000 A 
ATOM     10  O   UNL     1       3.423   1.888  19.003  0.00  0.00    +0.000 OA
ATOM     11  C   UNL     1       3.010   4.211  19.187  0.00  0.00    +0.000 A 
ATOM     12  C   UNL     1       2.229   4.040  20.342  0.00  0.00    +0.000 A 
ATOM     13  C   UNL     1       1.656   5.143  20.969  0.00  0.00    +0.000 A 
ATOM     14  C   UNL     1       1.862   6.419  20.444  0.00  0.00    +0.000 A 
ATOM     15  C   UNL     1       2.644   6.583  19.290  0.00  0.00    +0.000 A 
ATOM     16  C   UNL     1       3.237   5.486  18.633  0.00  0.00    +0.000 A 
ATOM     17  H   UNL     1       4.740   2.361  17.016  0.00  0.00    +0.000 HD
ENDROOT
BRANCH  14  18
ATOM     18  C   UNL     1       1.278   7.566  21.076  0.00  0.00    +0.000 C 
ATOM     19  N   UNL     1       0.791   8.492  21.578  0.00  0.00    +0.000 NA
ENDBRANCH  14  18
TORSDOF 1
ENDMDL
MODEL 7
REMARK VINA RESULT:      -6.9      3.607      5.415
REMARK  Name = 
REMARK  2 active torsions:
REMARK  status: ('A' for Active; 'I' for Inactive)
REMARK    1  A    between atoms: C_1  and  C_2
REMARK    2  A    between atoms: C_14  and  C_15
REMARK                            x       y       z     vdW  Elec       q    Type
REMARK                         _______ _______ _______ _____ _____    ______ ____
ROOT
ATOM      1  C   UNL     1       4.439   1.761  19.328  0.00  0.00    +0.000 C 
ATOM      2  C   UNL     1       3.575   2.833  19.934  0.00  0.00    +0.000 A 
ATOM      3  C   UNL     1       2.884   2.554  21.119  0.00  0.00    +0.000 A 
ATOM      4  C   UNL     1       2.077   3.520  21.710  0.00  0.00    +0.000 A 
ATOM      5  C   UNL     1       1.949   4.780  21.124  0.00  0.00    +0.000 A 
ATOM      6  C   UNL     1       2.624   5.107  19.933  0.00  0.00    +0.000 A 
ATOM      7  C   UNL     1       3.437   4.110  19.352  0.00  0.00    +0.000 A 
ATOM      8  N   UNL     1       4.124   4.403  18.162  0.00  0.00    +0.000 N 
ATOM      9  C   UNL     1       4.072   5.602  17.500  0.00  0.00    +0.000 A 
ATOM     10  O   UNL     1       4.702   5.782  16.463  0.00  0.00    +0.000 OA
ATOM     11  C   UNL     1       3.227   6.672  18.086  0.00  0.00    +0.000 A 
ATOM     12  C   UNL     1       3.158   7.911  17.428  0.00  0.00    +0.000 A 
ATOM     13  C   UNL     1       2.376   8.938  17.951  0.00  0.00    +0.000 A 
ATOM     14  C   UNL     1       1.663   8.729  19.131  0.00  0.00    +0.000 A 
ATOM     15  C   UNL     1       1.735   7.488  19.783  0.00  0.00    +0.000 A 
ATOM     16  C   UNL     1       2.518   6.429  19.277  0.00  0.00    +0.000 A 
ATOM     17  H   UNL     1       4.713   3.707  17.726  0.00  0.00    +0.000 HD
ENDROOT
BRANCH  14  18
ATOM     18  C   UNL     1       0.854   9.776  19.684  0.00  0.00    +0.000 C 
ATOM     19  N   UNL     1       0.209  10.623  20.146  0.00  0.00    +0.000 NA
ENDBRANCH  14  18
TORSDOF 1
ENDMDL
MODEL 8
REMARK VINA RESULT:      -6.8      5.448      7.367
REMARK  Name = 
REMARK  2 active torsions:
REMARK  status: ('A' for Active; 'I' for Inactive)
REMARK    1  A    between atoms: C_1  and  C_2
REMARK    2  A    between atoms: C_14  and  C_15
REMARK                            x       y       z     vdW  Elec       q    Type
REMARK                         _______ _______ _______ _____ _____    ______ ____
ROOT
ATOM      1  C   UNL     1      -0.049  12.596  20.118  0.00  0.00    +0.000 C 
ATOM      2  C   UNL     1       0.033  11.304  20.882  0.00  0.00    +0.000 A 
ATOM      3  C   UNL     1      -0.521  11.242  22.166  0.00  0.00    +0.000 A 
ATOM      4  C   UNL     1      -0.466  10.065  22.904  0.00  0.00    +0.000 A 
ATOM      5  C   UNL     1       0.146   8.930  22.367  0.00  0.00    +0.000 A 
ATOM      6  C   UNL     1       0.716   8.944  21.082  0.00  0.00    +0.000 A 
ATOM      7  C   UNL     1       0.648  10.151  20.352  0.00  0.00    +0.000 A 
ATOM      8  N   UNL     1       1.209  10.199  19.065  0.00  0.00    +0.000 N 
ATOM      9  C   UNL     1       1.833   9.150  18.441  0.00  0.00    +0.000 A 
ATOM     10  O   UNL     1       2.299   9.270  17.313  0.00  0.00    +0.000 OA
ATOM     11  C   UNL     1       1.920   7.867  19.180  0.00  0.00    +0.000 A 
ATOM     12  C   UNL     1       2.552   6.776  18.561  0.00  0.00    +0.000 A 
ATOM     13  C   UNL     1       2.650   5.555  19.225  0.00  0.00    +0.000 A 
ATOM     14  C   UNL     1       2.117   5.424  20.508  0.00  0.00    +0.000 A 
ATOM     15  C   UNL     1       1.487   6.518  21.120  0.00  0.00    +0.000 A 
ATOM     16  C   UNL     1       1.373   7.765  20.473  0.00  0.00    +0.000 A 
ATOM     17  H   UNL     1       1.173  11.051  18.523  0.00  0.00    +0.000 HD
ENDROOT
BRANCH  14  18
ATOM     18  C   UNL     1       2.208   4.174  21.205  0.00  0.00    +0.000 C 
ATOM     19  N   UNL     1       2.287   3.155  21.756  0.00  0.00    +0.000 NA
ENDBRANCH  14  18
TORSDOF 1
ENDMDL
MODEL 9
REMARK VINA RESULT:      -6.7      4.203      6.801
REMARK  Name = 
REMARK  2 active torsions:
REMARK  status: ('A' for Active; 'I' for Inactive)
REMARK    1  A    between atoms: C_1  and  C_2
REMARK    2  A    between atoms: C_14  and  C_15
REMARK                            x       y       z     vdW  Elec       q    Type
REMARK                         _______ _______ _______ _____ _____    ______ ____
ROOT
ATOM      1  C   UNL     1       3.945   3.422  17.592  0.00  0.00    +0.000 C 
ATOM      2  C   UNL     1       3.240   3.933  18.819  0.00  0.00    +0.000 A 
ATOM      3  C   UNL     1       2.991   3.046  19.873  0.00  0.00    +0.000 A 
ATOM      4  C   UNL     1       2.342   3.482  21.023  0.00  0.00    +0.000 A 
ATOM      5  C   UNL     1       1.933   4.811  21.137  0.00  0.00    +0.000 A 
ATOM      6  C   UNL     1       2.162   5.739  20.104  0.00  0.00    +0.000 A 
ATOM      7  C   UNL     1       2.822   5.273  18.945  0.00  0.00    +0.000 A 
ATOM      8  N   UNL     1       3.065   6.174  17.895  0.00  0.00    +0.000 N 
ATOM      9  C   UNL     1       2.708   7.498  17.897  0.00  0.00    +0.000 A 
ATOM     10  O   UNL     1       2.955   8.222  16.938  0.00  0.00    +0.000 OA
ATOM     11  C   UNL     1       2.014   8.018  19.100  0.00  0.00    +0.000 A 
ATOM     12  C   UNL     1       1.640   9.372  19.128  0.00  0.00    +0.000 A 
ATOM     13  C   UNL     1       0.989   9.895  20.243  0.00  0.00    +0.000 A 
ATOM     14  C   UNL     1       0.711   9.067  21.330  0.00  0.00    +0.000 A 
ATOM     15  C   UNL     1       1.087   7.715  21.295  0.00  0.00    +0.000 A 
ATOM     16  C   UNL     1       1.747   7.157  20.181  0.00  0.00    +0.000 A 
ATOM     17  H   UNL     1       3.535   5.866  17.055  0.00  0.00    +0.000 HD
ENDROOT
BRANCH  14  18
ATOM     18  C   UNL     1       0.043   9.589  22.487  0.00  0.00    +0.000 C 
ATOM     19  N   UNL     1      -0.498   9.997  23.429  0.00  0.00    +0.000 NA
ENDBRANCH  14  18
TORSDOF 1
ENDMDL
