MODEL 1
REMARK VINA RESULT:      -4.6      0.000      0.000
REMARK  Name = 
REMARK  4 active torsions:
REMARK  status: ('A' for Active; 'I' for Inactive)
REMARK    1  A    between atoms: C_1  and  C_2
REMARK    2  A    between atoms: C_2  and  N_3
REMARK    3  A    between atoms: C_2  and  C_4
REMARK    4  A    between atoms: C_4  and  C_5
REMARK                            x       y       z     vdW  Elec       q    Type
REMARK                         _______ _______ _______ _____ _____    ______ ____
ROOT
ATOM      1  C   UNL     1       5.619   5.224  15.575  0.00  0.00    +0.000 C 
ENDROOT
BRANCH   1   2
ATOM      2  C   UNL     1       5.306   4.520  16.864  0.00  0.00    +0.000 A 
ATOM      3  C   UNL     1       4.135   3.768  17.166  0.00  0.00    +0.000 A 
ATOM      4  C   UNL     1       4.250   3.311  18.459  0.00  0.00    +0.000 A 
ATOM      5  N   UNL     1       5.454   3.739  18.952  0.00  0.00    +0.000 N 
ATOM      6  C   UNL     1       6.103   4.470  17.992  0.00  0.00    +0.000 A 
ATOM      7  H   UNL     1       5.810   3.545  19.878  0.00  0.00    +0.000 HD
ENDBRANCH   1   2
BRANCH   1   9
ATOM      8  C   UNL     1       6.102   3.803  13.509  0.00  0.00    +0.000 C 
ATOM      9  C   UNL     1       6.696   4.517  14.725  0.00  0.00    +0.000 C 
BRANCH   9  10
ATOM     10  N   UNL     1       7.701   5.490  14.263  0.00  0.00    +0.000 NA
ATOM     11  H   UNL     1       7.361   6.437  14.431  0.00  0.00    +0.000 HD
ATOM     12  H   UNL     1       7.808   5.409  13.252  0.00  0.00    +0.000 HD
ENDBRANCH   9  10
ENDBRANCH   1   9
TORSDOF 3
ENDMDL
MODEL 2
REMARK VINA RESULT:      -4.6      2.377      3.895
REMARK  Name = 
REMARK  4 active torsions:
REMARK  status: ('A' for Active; 'I' for Inactive)
REMARK    1  A    between atoms: C_1  and  C_2
REMARK    2  A    between atoms: C_2  and  N_3
REMARK    3  A    between atoms: C_2  and  C_4
REMARK    4  A    between atoms: C_4  and  C_5
REMARK                            x       y       z     vdW  Elec       q    Type
REMARK                         _______ _______ _______ _____ _____    ______ ____
ROOT
ATOM      1  C   UNL     1       6.457   3.713  12.185  0.00  0.00    +0.000 C 
ENDROOT
BRANCH   1   2
ATOM      2  C   UNL     1       6.634   4.212  13.591  0.00  0.00    +0.000 A 
ATOM      3  C   UNL     1       5.956   3.752  14.755  0.00  0.00    +0.000 A 
ATOM      4  C   UNL     1       6.407   4.491  15.825  0.00  0.00    +0.000 A 
ATOM      5  N   UNL     1       7.347   5.372  15.363  0.00  0.00    +0.000 N 
ATOM      6  C   UNL     1       7.495   5.210  14.011  0.00  0.00    +0.000 A 
ATOM      7  H   UNL     1       7.855   6.038  15.930  0.00  0.00    +0.000 HD
ENDBRANCH   1   2
BRANCH   1   9
ATOM      8  C   UNL     1       4.170   3.167  11.187  0.00  0.00    +0.000 C 
ATOM      9  C   UNL     1       5.339   2.660  12.035  0.00  0.00    +0.000 C 
BRANCH   9  10
ATOM     10  N   UNL     1       5.875   1.432  11.423  0.00  0.00    +0.000 NA
ATOM     11  H   UNL     1       6.388   0.898  12.125  0.00  0.00    +0.000 HD
ATOM     12  H   UNL     1       6.559   1.682  10.710  0.00  0.00    +0.000 HD
ENDBRANCH   9  10
ENDBRANCH   1   9
TORSDOF 3
ENDMDL
MODEL 3
REMARK VINA RESULT:      -4.6      1.242      4.243
REMARK  Name = 
REMARK  4 active torsions:
REMARK  status: ('A' for Active; 'I' for Inactive)
REMARK    1  A    between atoms: C_1  and  C_2
REMARK    2  A    between atoms: C_2  and  N_3
REMARK    3  A    between atoms: C_2  and  C_4
REMARK    4  A    between atoms: C_4  and  C_5
REMARK                            x       y       z     vdW  Elec       q    Type
REMARK                         _______ _______ _______ _____ _____    ______ ____
ROOT
ATOM      1  C   UNL     1       4.646   3.903  17.265  0.00  0.00    +0.000 C 
ENDROOT
BRANCH   1   2
ATOM      2  C   UNL     1       5.690   4.288  16.256  0.00  0.00    +0.000 A 
ATOM      3  C   UNL     1       5.530   4.358  14.842  0.00  0.00    +0.000 A 
ATOM      4  C   UNL     1       6.738   4.736  14.301  0.00  0.00    +0.000 A 
ATOM      5  N   UNL     1       7.624   4.916  15.329  0.00  0.00    +0.000 N 
ATOM      6  C   UNL     1       6.998   4.651  16.518  0.00  0.00    +0.000 A 
ATOM      7  H   UNL     1       8.588   5.203  15.228  0.00  0.00    +0.000 HD
ENDBRANCH   1   2
BRANCH   1   9
ATOM      8  C   UNL     1       4.158   5.171  19.427  0.00  0.00    +0.000 C 
ATOM      9  C   UNL     1       5.068   4.161  18.727  0.00  0.00    +0.000 C 
BRANCH   9  10
ATOM     10  N   UNL     1       5.058   2.900  19.490  0.00  0.00    +0.000 NA
ATOM     11  H   UNL     1       4.867   3.099  20.472  0.00  0.00    +0.000 HD
ATOM     12  H   UNL     1       5.989   2.486  19.466  0.00  0.00    +0.000 HD
ENDBRANCH   9  10
ENDBRANCH   1   9
TORSDOF 3
ENDMDL
MODEL 4
REMARK VINA RESULT:      -4.5      2.717      3.979
REMARK  Name = 
REMARK  4 active torsions:
REMARK  status: ('A' for Active; 'I' for Inactive)
REMARK    1  A    between atoms: C_1  and  C_2
REMARK    2  A    between atoms: C_2  and  N_3
REMARK    3  A    between atoms: C_2  and  C_4
REMARK    4  A    between atoms: C_4  and  C_5
REMARK                            x       y       z     vdW  Elec       q    Type
REMARK                         _______ _______ _______ _____ _____    ______ ____
ROOT
ATOM      1  C   UNL     1       3.995   4.210  17.120  0.00  0.00    +0.000 C 
ENDROOT
BRANCH   1   2
ATOM      2  C   UNL     1       2.955   3.334  17.756  0.00  0.00    +0.000 A 
ATOM      3  C   UNL     1       1.607   3.684  18.057  0.00  0.00    +0.000 A 
ATOM      4  C   UNL     1       1.011   2.594  18.648  0.00  0.00    +0.000 A 
ATOM      5  N   UNL     1       1.936   1.586  18.705  0.00  0.00    +0.000 N 
ATOM      6  C   UNL     1       3.116   2.023  18.164  0.00  0.00    +0.000 A 
ATOM      7  H   UNL     1       1.774   0.662  19.083  0.00  0.00    +0.000 HD
ENDBRANCH   1   2
BRANCH   1   9
ATOM      8  C   UNL     1       4.263   5.339  19.395  0.00  0.00    +0.000 C 
ATOM      9  C   UNL     1       4.970   4.853  18.128  0.00  0.00    +0.000 C 
BRANCH   9  10
ATOM     10  N   UNL     1       6.019   3.890  18.507  0.00  0.00    +0.000 NA
ATOM     11  H   UNL     1       5.838   2.994  18.055  0.00  0.00    +0.000 HD
ATOM     12  H   UNL     1       5.966   3.711  19.509  0.00  0.00    +0.000 HD
ENDBRANCH   9  10
ENDBRANCH   1   9
TORSDOF 3
ENDMDL
MODEL 5
REMARK VINA RESULT:      -4.5      2.237      3.103
REMARK  Name = 
REMARK  4 active torsions:
REMARK  status: ('A' for Active; 'I' for Inactive)
REMARK    1  A    between atoms: C_1  and  C_2
REMARK    2  A    between atoms: C_2  and  N_3
REMARK    3  A    between atoms: C_2  and  C_4
REMARK    4  A    between atoms: C_4  and  C_5
REMARK                            x       y       z     vdW  Elec       q    Type
REMARK                         _______ _______ _______ _____ _____    ______ ____
ROOT
ATOM      1  C   UNL     1       3.868   4.539  17.202  0.00  0.00    +0.000 C 
ENDROOT
BRANCH   1   2
ATOM      2  C   UNL     1       2.893   3.544  17.763  0.00  0.00    +0.000 A 
ATOM      3  C   UNL     1       1.546   3.792  18.155  0.00  0.00    +0.000 A 
ATOM      4  C   UNL     1       1.022   2.611  18.628  0.00  0.00    +0.000 A 
ATOM      5  N   UNL     1       1.989   1.647  18.525  0.00  0.00    +0.000 N 
ATOM      6  C   UNL     1       3.126   2.202  17.999  0.00  0.00    +0.000 A 
ATOM      7  H   UNL     1       1.881   0.678  18.791  0.00  0.00    +0.000 HD
ENDBRANCH   1   2
BRANCH   1   9
ATOM      8  C   UNL     1       5.393   4.487  15.154  0.00  0.00    +0.000 C 
ATOM      9  C   UNL     1       5.100   3.894  16.533  0.00  0.00    +0.000 C 
BRANCH   9  10
ATOM     10  N   UNL     1       6.289   4.061  17.387  0.00  0.00    +0.000 NA
ATOM     11  H   UNL     1       7.124   3.800  16.863  0.00  0.00    +0.000 HD
ATOM     12  H   UNL     1       6.236   3.409  18.169  0.00  0.00    +0.000 HD
ENDBRANCH   9  10
ENDBRANCH   1   9
TORSDOF 3
ENDMDL
MODEL 6
REMARK VINA RESULT:      -4.4      2.301      2.758
REMARK  Name = 
REMARK  4 active torsions:
REMARK  status: ('A' for Active; 'I' for Inactive)
REMARK    1  A    between atoms: C_1  and  C_2
REMARK    2  A    between atoms: C_2  and  N_3
REMARK    3  A    between atoms: C_2  and  C_4
REMARK    4  A    between atoms: C_4  and  C_5
REMARK                            x       y       z     vdW  Elec       q    Type
REMARK                         _______ _______ _______ _____ _____    ______ ____
ROOT
ATOM      1  C   UNL     1       6.238   5.799  15.907  0.00  0.00    +0.000 C 
ENDROOT
BRANCH   1   2
ATOM      2  C   UNL     1       6.998   6.053  17.176  0.00  0.00    +0.000 A 
ATOM      3  C   UNL     1       7.242   5.125  18.229  0.00  0.00    +0.000 A 
ATOM      4  C   UNL     1       7.962   5.775  19.205  0.00  0.00    +0.000 A 
ATOM      5  N   UNL     1       8.183   7.058  18.783  0.00  0.00    +0.000 N 
ATOM      6  C   UNL     1       7.606   7.236  17.553  0.00  0.00    +0.000 A 
ATOM      7  H   UNL     1       8.694   7.764  19.295  0.00  0.00    +0.000 HD
ENDBRANCH   1   2
BRANCH   1   9
ATOM      8  C   UNL     1       5.929   4.001  14.118  0.00  0.00    +0.000 C 
ATOM      9  C   UNL     1       6.931   4.801  14.955  0.00  0.00    +0.000 C 
BRANCH   9  10
ATOM     10  N   UNL     1       7.847   5.514  14.048  0.00  0.00    +0.000 NA
ATOM     11  H   UNL     1       7.339   5.814  13.216  0.00  0.00    +0.000 HD
ATOM     12  H   UNL     1       8.564   4.868  13.718  0.00  0.00    +0.000 HD
ENDBRANCH   9  10
ENDBRANCH   1   9
TORSDOF 3
ENDMDL
MODEL 7
REMARK VINA RESULT:      -4.4      2.255      4.862
REMARK  Name = 
REMARK  4 active torsions:
REMARK  status: ('A' for Active; 'I' for Inactive)
REMARK    1  A    between atoms: C_1  and  C_2
REMARK    2  A    between atoms: C_2  and  N_3
REMARK    3  A    between atoms: C_2  and  C_4
REMARK    4  A    between atoms: C_4  and  C_5
REMARK                            x       y       z     vdW  Elec       q    Type
REMARK                         _______ _______ _______ _____ _____    ______ ____
ROOT
ATOM      1  C   UNL     1       2.496   4.075  18.162  0.00  0.00    +0.000 C 
ENDROOT
BRANCH   1   2
ATOM      2  C   UNL     1       3.980   4.153  17.948  0.00  0.00    +0.000 A 
ATOM      3  C   UNL     1       4.655   4.510  16.746  0.00  0.00    +0.000 A 
ATOM      4  C   UNL     1       6.008   4.438  16.986  0.00  0.00    +0.000 A 
ATOM      5  N   UNL     1       6.187   4.067  18.292  0.00  0.00    +0.000 N 
ATOM      6  C   UNL     1       4.964   3.895  18.885  0.00  0.00    +0.000 A 
ATOM      7  H   UNL     1       7.080   3.942  18.748  0.00  0.00    +0.000 HD
ENDBRANCH   1   2
BRANCH   1   9
ATOM      8  C   UNL     1       0.882   3.420  20.030  0.00  0.00    +0.000 C 
ATOM      9  C   UNL     1       2.068   2.984  19.167  0.00  0.00    +0.000 C 
BRANCH   9  10
ATOM     10  N   UNL     1       1.710   1.746  18.453  0.00  0.00    +0.000 NA
ATOM     11  H   UNL     1       2.427   1.040  18.616  0.00  0.00    +0.000 HD
ATOM     12  H   UNL     1       1.716   1.922  17.449  0.00  0.00    +0.000 HD
ENDBRANCH   9  10
ENDBRANCH   1   9
TORSDOF 3
ENDMDL
MODEL 8
REMARK VINA RESULT:      -4.4      3.229      4.848
REMARK  Name = 
REMARK  4 active torsions:
REMARK  status: ('A' for Active; 'I' for Inactive)
REMARK    1  A    between atoms: C_1  and  C_2
REMARK    2  A    between atoms: C_2  and  N_3
REMARK    3  A    between atoms: C_2  and  C_4
REMARK    4  A    between atoms: C_4  and  C_5
REMARK                            x       y       z     vdW  Elec       q    Type
REMARK                         _______ _______ _______ _____ _____    ______ ____
ROOT
ATOM      1  C   UNL     1       4.407   2.806  19.615  0.00  0.00    +0.000 C 
ENDROOT
BRANCH   1   2
ATOM      2  C   UNL     1       2.998   2.839  20.134  0.00  0.00    +0.000 A 
ATOM      3  C   UNL     1       2.587   2.802  21.498  0.00  0.00    +0.000 A 
ATOM      4  C   UNL     1       1.212   2.836  21.523  0.00  0.00    +0.000 A 
ATOM      5  N   UNL     1       0.767   2.908  20.230  0.00  0.00    +0.000 N 
ATOM      6  C   UNL     1       1.842   2.914  19.381  0.00  0.00    +0.000 A 
ATOM      7  H   UNL     1      -0.202   2.953  19.946  0.00  0.00    +0.000 HD
ENDBRANCH   1   2
BRANCH   1   9
ATOM      8  C   UNL     1       4.472   5.352  19.413  0.00  0.00    +0.000 C 
ATOM      9  C   UNL     1       4.772   4.016  18.729  0.00  0.00    +0.000 C 
BRANCH   9  10
ATOM     10  N   UNL     1       6.200   3.974  18.370  0.00  0.00    +0.000 NA
ATOM     11  H   UNL     1       6.440   4.804  17.829  0.00  0.00    +0.000 HD
ATOM     12  H   UNL     1       6.368   3.181  17.752  0.00  0.00    +0.000 HD
ENDBRANCH   9  10
ENDBRANCH   1   9
TORSDOF 3
ENDMDL
MODEL 9
REMARK VINA RESULT:      -4.3      4.007      4.791
REMARK  Name = 
REMARK  4 active torsions:
REMARK  status: ('A' for Active; 'I' for Inactive)
REMARK    1  A    between atoms: C_1  and  C_2
REMARK    2  A    between atoms: C_2  and  N_3
REMARK    3  A    between atoms: C_2  and  C_4
REMARK    4  A    between atoms: C_4  and  C_5
REMARK                            x       y       z     vdW  Elec       q    Type
REMARK                         _______ _______ _______ _____ _____    ______ ____
ROOT
ATOM      1  C   UNL     1       1.962   5.156  17.932  0.00  0.00    +0.000 C 
ENDROOT
BRANCH   1   2
ATOM      2  C   UNL     1       2.301   3.704  18.110  0.00  0.00    +0.000 A 
ATOM      3  C   UNL     1       3.547   3.074  17.827  0.00  0.00    +0.000 A 
ATOM      4  C   UNL     1       3.417   1.735  18.118  0.00  0.00    +0.000 A 
ATOM      5  N   UNL     1       2.147   1.525  18.584  0.00  0.00    +0.000 N 
ATOM      6  C   UNL     1       1.463   2.712  18.586  0.00  0.00    +0.000 A 
ATOM      7  H   UNL     1       1.772   0.635  18.882  0.00  0.00    +0.000 HD
ENDBRANCH   1   2
BRANCH   1   9
ATOM      8  C   UNL     1       2.774   7.572  18.095  0.00  0.00    +0.000 C 
ATOM      9  C   UNL     1       3.028   6.118  18.498  0.00  0.00    +0.000 C 
BRANCH   9  10
ATOM     10  N   UNL     1       3.065   6.029  19.968  0.00  0.00    +0.000 NA
ATOM     11  H   UNL     1       2.114   5.955  20.329  0.00  0.00    +0.000 HD
ATOM     12  H   UNL     1       3.440   6.898  20.348  0.00  0.00    +0.000 HD
ENDBRANCH   9  10
ENDBRANCH   1   9
TORSDOF 3
ENDMDL
