MODEL 1
REMARK VINA RESULT:      -7.0      0.000      0.000
REMARK  Name = 
REMARK  7 active torsions:
REMARK  status: ('A' for Active; 'I' for Inactive)
REMARK    1  A    between atoms: C_2  and  C_4
REMARK    2  A    between atoms: C_4  and  O_5
REMARK    3  A    between atoms: O_5  and  C_6
REMARK    4  A    between atoms: C_10  and  C_11
REMARK    5  A    between atoms: N_16  and  C_17
REMARK    6  A    between atoms: C_17  and  C_18
REMARK    7  A    between atoms: C_18  and  O_20
REMARK                            x       y       z     vdW  Elec       q    Type
REMARK                         _______ _______ _______ _____ _____    ______ ____
ROOT
ATOM      1  C   UNL     1       4.478   4.428  18.666  0.00  0.00    +0.000 A 
ATOM      2  C   UNL     1       3.513   3.457  18.392  0.00  0.00    +0.000 A 
ATOM      3  C   UNL     1       2.217   3.838  18.047  0.00  0.00    +0.000 A 
ATOM      4  C   UNL     1       1.885   5.192  17.945  0.00  0.00    +0.000 A 
ATOM      5  C   UNL     1       2.852   6.177  18.175  0.00  0.00    +0.000 A 
ATOM      6  C   UNL     1       4.148   5.784  18.539  0.00  0.00    +0.000 A 
ENDROOT
BRANCH   5   7
ATOM      7  C   UNL     1       2.505   7.596  18.019  0.00  0.00    +0.000 C 
ATOM      8  C   UNL     1       1.909   8.364  18.948  0.00  0.00    +0.000 C 
ATOM      9  S   UNL     1       1.448   7.897  20.535  0.00  0.00    +0.000 S 
ATOM     10  C   UNL     1       0.773   9.478  20.915  0.00  0.00    +0.000 C 
ATOM     11  S   UNL     1       0.105   9.818  22.403  0.00  0.00    +0.000 S 
ATOM     12  N   UNL     1       0.879  10.308  19.817  0.00  0.00    +0.000 N 
ATOM     13  C   UNL     1       1.542   9.789  18.724  0.00  0.00    +0.000 C 
ATOM     14  O   UNL     1       1.837  10.449  17.732  0.00  0.00    +0.000 OA
BRANCH  12  15
ATOM     15  C   UNL     1       0.327  11.668  19.747  0.00  0.00    +0.000 C 
BRANCH  15  16
ATOM     16  C   UNL     1      -1.000  11.742  19.002  0.00  0.00    +0.000 C 
ATOM     17  O   UNL     1      -2.079  11.474  19.509  0.00  0.00    +0.000 OA
BRANCH  16  18
ATOM     18  O   UNL     1      -0.880  12.043  17.684  0.00  0.00    +0.000 OA
ATOM     19  H   UNL     1      -0.062  12.543  17.449  0.00  0.00    +0.000 HD
ENDBRANCH  16  18
ENDBRANCH  15  16
ENDBRANCH  12  15
ENDBRANCH   5   7
BRANCH   1  20
ATOM     20  O   UNL     1       5.766   4.165  19.055  0.00  0.00    +0.000 OA
BRANCH  20  21
ATOM     21  C   UNL     1       6.788   4.901  18.377  0.00  0.00    +0.000 C 
BRANCH  21  23
ATOM     22  N   UNL     1       8.217   6.832  18.863  0.00  0.00    +0.000 N 
ATOM     23  C   UNL     1       7.668   5.682  19.349  0.00  0.00    +0.000 C 
ATOM     24  O   UNL     1       7.885   5.313  20.499  0.00  0.00    +0.000 OA
ATOM     25  H   UNL     1       8.786   7.401  19.473  0.00  0.00    +0.000 HD
ATOM     26  H   UNL     1       8.021   7.136  17.918  0.00  0.00    +0.000 HD
ENDBRANCH  21  23
ENDBRANCH  20  21
ENDBRANCH   1  20
TORSDOF 7
ENDMDL
MODEL 2
REMARK VINA RESULT:      -6.9      2.630      8.161
REMARK  Name = 
REMARK  7 active torsions:
REMARK  status: ('A' for Active; 'I' for Inactive)
REMARK    1  A    between atoms: C_2  and  C_4
REMARK    2  A    between atoms: C_4  and  O_5
REMARK    3  A    between atoms: O_5  and  C_6
REMARK    4  A    between atoms: C_10  and  C_11
REMARK    5  A    between atoms: N_16  and  C_17
REMARK    6  A    between atoms: C_17  and  C_18
REMARK    7  A    between atoms: C_18  and  O_20
REMARK                            x       y       z     vdW  Elec       q    Type
REMARK                         _______ _______ _______ _____ _____    ______ ____
ROOT
ATOM      1  C   UNL     1       0.097   9.818  19.731  0.00  0.00    +0.000 A 
ATOM      2  C   UNL     1       0.093   9.302  21.028  0.00  0.00    +0.000 A 
ATOM      3  C   UNL     1       0.967   8.270  21.370  0.00  0.00    +0.000 A 
ATOM      4  C   UNL     1       1.869   7.769  20.428  0.00  0.00    +0.000 A 
ATOM      5  C   UNL     1       1.914   8.306  19.136  0.00  0.00    +0.000 A 
ATOM      6  C   UNL     1       1.019   9.331  18.795  0.00  0.00    +0.000 A 
ENDROOT
BRANCH   5   7
ATOM      7  C   UNL     1       2.898   7.805  18.167  0.00  0.00    +0.000 C 
ATOM      8  C   UNL     1       3.214   6.514  17.968  0.00  0.00    +0.000 C 
ATOM      9  S   UNL     1       2.531   5.148  18.754  0.00  0.00    +0.000 S 
ATOM     10  C   UNL     1       3.557   4.009  17.890  0.00  0.00    +0.000 C 
ATOM     11  S   UNL     1       3.446   2.364  18.129  0.00  0.00    +0.000 S 
ATOM     12  N   UNL     1       4.418   4.693  17.055  0.00  0.00    +0.000 N 
ATOM     13  C   UNL     1       4.250   6.062  16.998  0.00  0.00    +0.000 C 
ATOM     14  O   UNL     1       4.842   6.787  16.204  0.00  0.00    +0.000 OA
BRANCH  12  15
ATOM     15  C   UNL     1       5.481   4.064  16.259  0.00  0.00    +0.000 C 
BRANCH  15  16
ATOM     16  C   UNL     1       6.883   4.422  16.737  0.00  0.00    +0.000 C 
ATOM     17  O   UNL     1       7.761   4.853  16.004  0.00  0.00    +0.000 OA
BRANCH  16  18
ATOM     18  O   UNL     1       7.114   4.132  18.043  0.00  0.00    +0.000 OA
ATOM     19  H   UNL     1       6.721   3.281  18.351  0.00  0.00    +0.000 HD
ENDBRANCH  16  18
ENDBRANCH  15  16
ENDBRANCH  12  15
ENDBRANCH   5   7
BRANCH   1  20
ATOM     20  O   UNL     1      -0.747  10.799  19.277  0.00  0.00    +0.000 OA
BRANCH  20  21
ATOM     21  C   UNL     1      -1.778  10.374  18.382  0.00  0.00    +0.000 C 
BRANCH  21  23
ATOM     22  N   UNL     1      -1.310  12.541  17.338  0.00  0.00    +0.000 N 
ATOM     23  C   UNL     1      -1.971  11.354  17.228  0.00  0.00    +0.000 C 
ATOM     24  O   UNL     1      -2.676  11.109  16.254  0.00  0.00    +0.000 OA
ATOM     25  H   UNL     1      -1.382  13.215  16.589  0.00  0.00    +0.000 HD
ATOM     26  H   UNL     1      -0.719  12.729  18.138  0.00  0.00    +0.000 HD
ENDBRANCH  21  23
ENDBRANCH  20  21
ENDBRANCH   1  20
TORSDOF 7
ENDMDL
MODEL 3
REMARK VINA RESULT:      -6.9      2.750      8.278
REMARK  Name = 
REMARK  7 active torsions:
REMARK  status: ('A' for Active; 'I' for Inactive)
REMARK    1  A    between atoms: C_2  and  C_4
REMARK    2  A    between atoms: C_4  and  O_5
REMARK    3  A    between atoms: O_5  and  C_6
REMARK    4  A    between atoms: C_10  and  C_11
REMARK    5  A    between atoms: N_16  and  C_17
REMARK    6  A    between atoms: C_17  and  C_18
REMARK    7  A    between atoms: C_18  and  O_20
REMARK                            x       y       z     vdW  Elec       q    Type
REMARK                         _______ _______ _______ _____ _____    ______ ____
ROOT
ATOM      1  C   UNL     1      -0.373  10.131  18.710  0.00  0.00    +0.000 A 
ATOM      2  C   UNL     1      -0.288  10.124  20.104  0.00  0.00    +0.000 A 
ATOM      3  C   UNL     1       0.750   9.441  20.736  0.00  0.00    +0.000 A 
ATOM      4  C   UNL     1       1.726   8.785  19.980  0.00  0.00    +0.000 A 
ATOM      5  C   UNL     1       1.678   8.819  18.581  0.00  0.00    +0.000 A 
ATOM      6  C   UNL     1       0.620   9.494  17.954  0.00  0.00    +0.000 A 
ENDROOT
BRANCH   5   7
ATOM      7  C   UNL     1       2.734   8.167  17.795  0.00  0.00    +0.000 C 
ATOM      8  C   UNL     1       3.202   6.923  17.992  0.00  0.00    +0.000 C 
ATOM      9  S   UNL     1       2.666   5.789  19.165  0.00  0.00    +0.000 S 
ATOM     10  C   UNL     1       3.835   4.570  18.672  0.00  0.00    +0.000 C 
ATOM     11  S   UNL     1       3.911   3.074  19.400  0.00  0.00    +0.000 S 
ATOM     12  N   UNL     1       4.629   5.065  17.656  0.00  0.00    +0.000 N 
ATOM     13  C   UNL     1       4.304   6.324  17.189  0.00  0.00    +0.000 C 
ATOM     14  O   UNL     1       4.824   6.838  16.204  0.00  0.00    +0.000 OA
BRANCH  12  15
ATOM     15  C   UNL     1       5.774   4.354  17.072  0.00  0.00    +0.000 C 
BRANCH  15  16
ATOM     16  C   UNL     1       7.120   4.872  17.565  0.00  0.00    +0.000 C 
ATOM     17  O   UNL     1       7.612   4.568  18.642  0.00  0.00    +0.000 OA
BRANCH  16  18
ATOM     18  O   UNL     1       7.697   5.787  16.744  0.00  0.00    +0.000 OA
ATOM     19  H   UNL     1       7.133   6.072  15.987  0.00  0.00    +0.000 HD
ENDBRANCH  16  18
ENDBRANCH  15  16
ENDBRANCH  12  15
ENDBRANCH   5   7
BRANCH   1  20
ATOM     20  O   UNL     1      -1.372  10.733  17.990  0.00  0.00    +0.000 OA
BRANCH  20  21
ATOM     21  C   UNL     1      -2.012   9.919  17.004  0.00  0.00    +0.000 C 
BRANCH  21  23
ATOM     22  N   UNL     1      -3.572  11.763  16.592  0.00  0.00    +0.000 N 
ATOM     23  C   UNL     1      -2.851  10.748  16.036  0.00  0.00    +0.000 C 
ATOM     24  O   UNL     1      -2.892  10.529  14.830  0.00  0.00    +0.000 OA
ATOM     25  H   UNL     1      -4.123  12.360  15.992  0.00  0.00    +0.000 HD
ATOM     26  H   UNL     1      -3.521  11.946  17.587  0.00  0.00    +0.000 HD
ENDBRANCH  21  23
ENDBRANCH  20  21
ENDBRANCH   1  20
TORSDOF 7
ENDMDL
MODEL 4
REMARK VINA RESULT:      -6.8      1.062      1.126
REMARK  Name = 
REMARK  7 active torsions:
REMARK  status: ('A' for Active; 'I' for Inactive)
REMARK    1  A    between atoms: C_2  and  C_4
REMARK    2  A    between atoms: C_4  and  O_5
REMARK    3  A    between atoms: O_5  and  C_6
REMARK    4  A    between atoms: C_10  and  C_11
REMARK    5  A    between atoms: N_16  and  C_17
REMARK    6  A    between atoms: C_17  and  C_18
REMARK    7  A    between atoms: C_18  and  O_20
REMARK                            x       y       z     vdW  Elec       q    Type
REMARK                         _______ _______ _______ _____ _____    ______ ____
ROOT
ATOM      1  C   UNL     1       4.303   4.508  18.830  0.00  0.00    +0.000 A 
ATOM      2  C   UNL     1       3.325   3.543  18.581  0.00  0.00    +0.000 A 
ATOM      3  C   UNL     1       2.047   3.933  18.181  0.00  0.00    +0.000 A 
ATOM      4  C   UNL     1       1.748   5.286  17.998  0.00  0.00    +0.000 A 
ATOM      5  C   UNL     1       2.730   6.262  18.203  0.00  0.00    +0.000 A 
ATOM      6  C   UNL     1       4.007   5.862  18.623  0.00  0.00    +0.000 A 
ENDROOT
BRANCH   5   7
ATOM      7  C   UNL     1       2.419   7.677  17.963  0.00  0.00    +0.000 C 
ATOM      8  C   UNL     1       1.824   8.508  18.836  0.00  0.00    +0.000 C 
ATOM      9  S   UNL     1       1.322   8.139  20.436  0.00  0.00    +0.000 S 
ATOM     10  C   UNL     1       0.677   9.753  20.716  0.00  0.00    +0.000 C 
ATOM     11  S   UNL     1      -0.011  10.189  22.169  0.00  0.00    +0.000 S 
ATOM     12  N   UNL     1       0.823  10.520  19.577  0.00  0.00    +0.000 N 
ATOM     13  C   UNL     1       1.495   9.927  18.527  0.00  0.00    +0.000 C 
ATOM     14  O   UNL     1       1.823  10.524  17.507  0.00  0.00    +0.000 OA
BRANCH  12  15
ATOM     15  C   UNL     1       0.305  11.885  19.421  0.00  0.00    +0.000 C 
BRANCH  15  16
ATOM     16  C   UNL     1      -1.034  11.942  18.697  0.00  0.00    +0.000 C 
ATOM     17  O   UNL     1      -2.093  11.591  19.197  0.00  0.00    +0.000 OA
BRANCH  16  18
ATOM     18  O   UNL     1      -0.947  12.333  17.399  0.00  0.00    +0.000 OA
ATOM     19  H   UNL     1      -0.773  13.295  17.271  0.00  0.00    +0.000 HD
ENDBRANCH  16  18
ENDBRANCH  15  16
ENDBRANCH  12  15
ENDBRANCH   5   7
BRANCH   1  20
ATOM     20  O   UNL     1       5.574   4.239  19.268  0.00  0.00    +0.000 OA
BRANCH  20  21
ATOM     21  C   UNL     1       6.599   5.114  18.792  0.00  0.00    +0.000 C 
BRANCH  21  23
ATOM     22  N   UNL     1       6.798   4.354  16.470  0.00  0.00    +0.000 N 
ATOM     23  C   UNL     1       7.422   4.475  17.677  0.00  0.00    +0.000 C 
ATOM     24  O   UNL     1       8.574   4.084  17.836  0.00  0.00    +0.000 OA
ATOM     25  H   UNL     1       7.307   3.963  15.691  0.00  0.00    +0.000 HD
ATOM     26  H   UNL     1       5.852   4.693  16.344  0.00  0.00    +0.000 HD
ENDBRANCH  21  23
ENDBRANCH  20  21
ENDBRANCH   1  20
TORSDOF 7
ENDMDL
MODEL 5
REMARK VINA RESULT:      -6.8      0.890      1.052
REMARK  Name = 
REMARK  7 active torsions:
REMARK  status: ('A' for Active; 'I' for Inactive)
REMARK    1  A    between atoms: C_2  and  C_4
REMARK    2  A    between atoms: C_4  and  O_5
REMARK    3  A    between atoms: O_5  and  C_6
REMARK    4  A    between atoms: C_10  and  C_11
REMARK    5  A    between atoms: N_16  and  C_17
REMARK    6  A    between atoms: C_17  and  C_18
REMARK    7  A    between atoms: C_18  and  O_20
REMARK                            x       y       z     vdW  Elec       q    Type
REMARK                         _______ _______ _______ _____ _____    ______ ____
ROOT
ATOM      1  C   UNL     1       4.847   4.350  19.032  0.00  0.00    +0.000 A 
ATOM      2  C   UNL     1       3.891   3.354  19.237  0.00  0.00    +0.000 A 
ATOM      3  C   UNL     1       2.533   3.662  19.150  0.00  0.00    +0.000 A 
ATOM      4  C   UNL     1       2.124   4.959  18.829  0.00  0.00    +0.000 A 
ATOM      5  C   UNL     1       3.071   5.959  18.579  0.00  0.00    +0.000 A 
ATOM      6  C   UNL     1       4.434   5.644  18.687  0.00  0.00    +0.000 A 
ENDROOT
BRANCH   5   7
ATOM      7  C   UNL     1       2.631   7.307  18.196  0.00  0.00    +0.000 C 
ATOM      8  C   UNL     1       1.973   8.171  18.989  0.00  0.00    +0.000 C 
ATOM      9  S   UNL     1       1.525   7.934  20.629  0.00  0.00    +0.000 S 
ATOM     10  C   UNL     1       0.740   9.505  20.749  0.00  0.00    +0.000 C 
ATOM     11  S   UNL     1       0.032  10.033  22.161  0.00  0.00    +0.000 S 
ATOM     12  N   UNL     1       0.804  10.155  19.532  0.00  0.00    +0.000 N 
ATOM     13  C   UNL     1       1.515   9.513  18.537  0.00  0.00    +0.000 C 
ATOM     14  O   UNL     1       1.776  10.024  17.452  0.00  0.00    +0.000 OA
BRANCH  12  15
ATOM     15  C   UNL     1       0.163  11.444  19.242  0.00  0.00    +0.000 C 
BRANCH  15  16
ATOM     16  C   UNL     1      -1.293  11.310  18.812  0.00  0.00    +0.000 C 
ATOM     17  O   UNL     1      -1.644  10.835  17.743  0.00  0.00    +0.000 OA
BRANCH  16  18
ATOM     18  O   UNL     1      -2.181  11.855  19.683  0.00  0.00    +0.000 OA
ATOM     19  H   UNL     1      -1.882  12.696  20.103  0.00  0.00    +0.000 HD
ENDBRANCH  16  18
ENDBRANCH  15  16
ENDBRANCH  12  15
ENDBRANCH   5   7
BRANCH   1  20
ATOM     20  O   UNL     1       6.202   4.168  19.136  0.00  0.00    +0.000 OA
BRANCH  20  21
ATOM     21  C   UNL     1       7.010   4.985  18.285  0.00  0.00    +0.000 C 
BRANCH  21  23
ATOM     22  N   UNL     1       8.371   5.430  20.274  0.00  0.00    +0.000 N 
ATOM     23  C   UNL     1       7.919   5.916  19.083  0.00  0.00    +0.000 C 
ATOM     24  O   UNL     1       8.231   7.038  18.697  0.00  0.00    +0.000 OA
ATOM     25  H   UNL     1       8.997   5.996  20.829  0.00  0.00    +0.000 HD
ATOM     26  H   UNL     1       8.119   4.498  20.578  0.00  0.00    +0.000 HD
ENDBRANCH  21  23
ENDBRANCH  20  21
ENDBRANCH   1  20
TORSDOF 7
ENDMDL
MODEL 6
REMARK VINA RESULT:      -6.7      1.413      1.490
REMARK  Name = 
REMARK  7 active torsions:
REMARK  status: ('A' for Active; 'I' for Inactive)
REMARK    1  A    between atoms: C_2  and  C_4
REMARK    2  A    between atoms: C_4  and  O_5
REMARK    3  A    between atoms: O_5  and  C_6
REMARK    4  A    between atoms: C_10  and  C_11
REMARK    5  A    between atoms: N_16  and  C_17
REMARK    6  A    between atoms: C_17  and  C_18
REMARK    7  A    between atoms: C_18  and  O_20
REMARK                            x       y       z     vdW  Elec       q    Type
REMARK                         _______ _______ _______ _____ _____    ______ ____
ROOT
ATOM      1  C   UNL     1       5.018   4.639  17.986  0.00  0.00    +0.000 A 
ATOM      2  C   UNL     1       4.123   3.569  17.958  0.00  0.00    +0.000 A 
ATOM      3  C   UNL     1       2.749   3.808  17.962  0.00  0.00    +0.000 A 
ATOM      4  C   UNL     1       2.262   5.118  17.965  0.00  0.00    +0.000 A 
ATOM      5  C   UNL     1       3.147   6.202  17.950  0.00  0.00    +0.000 A 
ATOM      6  C   UNL     1       4.527   5.952  17.964  0.00  0.00    +0.000 A 
ENDROOT
BRANCH   5   7
ATOM      7  C   UNL     1       2.626   7.575  17.904  0.00  0.00    +0.000 C 
ATOM      8  C   UNL     1       2.020   8.217  18.919  0.00  0.00    +0.000 C 
ATOM      9  S   UNL     1       1.745   7.618  20.504  0.00  0.00    +0.000 S 
ATOM     10  C   UNL     1       0.923   9.084  21.026  0.00  0.00    +0.000 C 
ATOM     11  S   UNL     1       0.340   9.266  22.576  0.00  0.00    +0.000 S 
ATOM     12  N   UNL     1       0.843   9.976  19.975  0.00  0.00    +0.000 N 
ATOM     13  C   UNL     1       1.473   9.597  18.807  0.00  0.00    +0.000 C 
ATOM     14  O   UNL     1       1.608  10.337  17.837  0.00  0.00    +0.000 OA
BRANCH  12  15
ATOM     15  C   UNL     1       0.132  11.261  20.026  0.00  0.00    +0.000 C 
BRANCH  15  16
ATOM     16  C   UNL     1       1.031  12.432  20.404  0.00  0.00    +0.000 C 
ATOM     17  O   UNL     1       1.143  12.862  21.543  0.00  0.00    +0.000 OA
BRANCH  16  18
ATOM     18  O   UNL     1       1.637  13.030  19.347  0.00  0.00    +0.000 OA
ATOM     19  H   UNL     1       2.339  13.679  19.590  0.00  0.00    +0.000 HD
ENDBRANCH  16  18
ENDBRANCH  15  16
ENDBRANCH  12  15
ENDBRANCH   5   7
BRANCH   1  20
ATOM     20  O   UNL     1       6.383   4.518  18.028  0.00  0.00    +0.000 OA
BRANCH  20  21
ATOM     21  C   UNL     1       7.128   5.669  17.622  0.00  0.00    +0.000 C 
BRANCH  21  23
ATOM     22  N   UNL     1       8.024   5.507  19.897  0.00  0.00    +0.000 N 
ATOM     23  C   UNL     1       7.906   6.283  18.782  0.00  0.00    +0.000 C 
ATOM     24  O   UNL     1       8.399   7.406  18.736  0.00  0.00    +0.000 OA
ATOM     25  H   UNL     1       8.552   5.855  20.684  0.00  0.00    +0.000 HD
ATOM     26  H   UNL     1       7.626   4.577  19.921  0.00  0.00    +0.000 HD
ENDBRANCH  21  23
ENDBRANCH  20  21
ENDBRANCH   1  20
TORSDOF 7
ENDMDL
MODEL 7
REMARK VINA RESULT:      -6.7      3.813      4.871
REMARK  Name = 
REMARK  7 active torsions:
REMARK  status: ('A' for Active; 'I' for Inactive)
REMARK    1  A    between atoms: C_2  and  C_4
REMARK    2  A    between atoms: C_4  and  O_5
REMARK    3  A    between atoms: O_5  and  C_6
REMARK    4  A    between atoms: C_10  and  C_11
REMARK    5  A    between atoms: N_16  and  C_17
REMARK    6  A    between atoms: C_17  and  C_18
REMARK    7  A    between atoms: C_18  and  O_20
REMARK                            x       y       z     vdW  Elec       q    Type
REMARK                         _______ _______ _______ _____ _____    ______ ____
ROOT
ATOM      1  C   UNL     1       5.652   4.356  15.773  0.00  0.00    +0.000 A 
ATOM      2  C   UNL     1       6.995   4.452  16.143  0.00  0.00    +0.000 A 
ATOM      3  C   UNL     1       7.336   4.868  17.429  0.00  0.00    +0.000 A 
ATOM      4  C   UNL     1       6.339   5.164  18.362  0.00  0.00    +0.000 A 
ATOM      5  C   UNL     1       4.988   5.032  18.020  0.00  0.00    +0.000 A 
ATOM      6  C   UNL     1       4.654   4.629  16.718  0.00  0.00    +0.000 A 
ENDROOT
BRANCH   5   7
ATOM      7  C   UNL     1       3.948   5.299  19.022  0.00  0.00    +0.000 C 
ATOM      8  C   UNL     1       3.170   6.394  19.071  0.00  0.00    +0.000 C 
ATOM      9  S   UNL     1       3.170   7.713  17.972  0.00  0.00    +0.000 S 
ATOM     10  C   UNL     1       1.918   8.581  18.852  0.00  0.00    +0.000 C 
ATOM     11  S   UNL     1       1.334  10.053  18.336  0.00  0.00    +0.000 S 
ATOM     12  N   UNL     1       1.557   7.868  19.979  0.00  0.00    +0.000 N 
ATOM     13  C   UNL     1       2.155   6.634  20.134  0.00  0.00    +0.000 C 
ATOM     14  O   UNL     1       1.836   5.829  21.004  0.00  0.00    +0.000 OA
BRANCH  12  15
ATOM     15  C   UNL     1       0.611   8.344  20.997  0.00  0.00    +0.000 C 
BRANCH  15  16
ATOM     16  C   UNL     1       1.181   9.446  21.880  0.00  0.00    +0.000 C 
ATOM     17  O   UNL     1       0.845  10.619  21.804  0.00  0.00    +0.000 OA
BRANCH  16  18
ATOM     18  O   UNL     1       2.174   9.036  22.709  0.00  0.00    +0.000 OA
ATOM     19  H   UNL     1       3.008   8.771  22.252  0.00  0.00    +0.000 HD
ENDBRANCH  16  18
ENDBRANCH  15  16
ENDBRANCH  12  15
ENDBRANCH   5   7
BRANCH   1  20
ATOM     20  O   UNL     1       5.207   4.000  14.527  0.00  0.00    +0.000 OA
BRANCH  20  21
ATOM     21  C   UNL     1       6.202   3.925  13.503  0.00  0.00    +0.000 C 
BRANCH  21  23
ATOM     22  N   UNL     1       6.521   2.164  11.829  0.00  0.00    +0.000 N 
ATOM     23  C   UNL     1       5.706   3.160  12.279  0.00  0.00    +0.000 C 
ATOM     24  O   UNL     1       4.644   3.412  11.718  0.00  0.00    +0.000 OA
ATOM     25  H   UNL     1       6.227   1.609  11.038  0.00  0.00    +0.000 HD
ATOM     26  H   UNL     1       7.388   1.953  12.306  0.00  0.00    +0.000 HD
ENDBRANCH  21  23
ENDBRANCH  20  21
ENDBRANCH   1  20
TORSDOF 7
ENDMDL
MODEL 8
REMARK VINA RESULT:      -6.6      2.655      3.390
REMARK  Name = 
REMARK  7 active torsions:
REMARK  status: ('A' for Active; 'I' for Inactive)
REMARK    1  A    between atoms: C_2  and  C_4
REMARK    2  A    between atoms: C_4  and  O_5
REMARK    3  A    between atoms: O_5  and  C_6
REMARK    4  A    between atoms: C_10  and  C_11
REMARK    5  A    between atoms: N_16  and  C_17
REMARK    6  A    between atoms: C_17  and  C_18
REMARK    7  A    between atoms: C_18  and  O_20
REMARK                            x       y       z     vdW  Elec       q    Type
REMARK                         _______ _______ _______ _____ _____    ______ ____
ROOT
ATOM      1  C   UNL     1       2.909   3.953  18.002  0.00  0.00    +0.000 A 
ATOM      2  C   UNL     1       4.293   3.771  18.007  0.00  0.00    +0.000 A 
ATOM      3  C   UNL     1       5.142   4.874  17.924  0.00  0.00    +0.000 A 
ATOM      4  C   UNL     1       4.614   6.167  17.864  0.00  0.00    +0.000 A 
ATOM      5  C   UNL     1       3.229   6.368  17.901  0.00  0.00    +0.000 A 
ATOM      6  C   UNL     1       2.383   5.251  17.966  0.00  0.00    +0.000 A 
ENDROOT
BRANCH   5   7
ATOM      7  C   UNL     1       2.685   7.732  17.885  0.00  0.00    +0.000 C 
ATOM      8  C   UNL     1       2.045   8.332  18.904  0.00  0.00    +0.000 C 
ATOM      9  S   UNL     1       1.742   7.680  20.463  0.00  0.00    +0.000 S 
ATOM     10  C   UNL     1       0.883   9.115  21.010  0.00  0.00    +0.000 C 
ATOM     11  S   UNL     1       0.261   9.238  22.550  0.00  0.00    +0.000 S 
ATOM     12  N   UNL     1       0.812  10.038  19.985  0.00  0.00    +0.000 N 
ATOM     13  C   UNL     1       1.476   9.705  18.821  0.00  0.00    +0.000 C 
ATOM     14  O   UNL     1       1.621  10.477  17.878  0.00  0.00    +0.000 OA
BRANCH  12  15
ATOM     15  C   UNL     1       0.078  11.308  20.058  0.00  0.00    +0.000 C 
BRANCH  15  16
ATOM     16  C   UNL     1       0.898  12.443  20.659  0.00  0.00    +0.000 C 
ATOM     17  O   UNL     1       0.660  12.952  21.744  0.00  0.00    +0.000 OA
BRANCH  16  18
ATOM     18  O   UNL     1       1.872  12.917  19.841  0.00  0.00    +0.000 OA
ATOM     19  H   UNL     1       2.531  12.242  19.553  0.00  0.00    +0.000 HD
ENDBRANCH  16  18
ENDBRANCH  15  16
ENDBRANCH  12  15
ENDBRANCH   5   7
BRANCH   1  20
ATOM     20  O   UNL     1       1.986   2.940  18.036  0.00  0.00    +0.000 OA
BRANCH  20  21
ATOM     21  C   UNL     1       2.129   1.997  19.102  0.00  0.00    +0.000 C 
BRANCH  21  23
ATOM     22  N   UNL     1       0.599   3.231  20.565  0.00  0.00    +0.000 N 
ATOM     23  C   UNL     1       1.813   2.619  20.459  0.00  0.00    +0.000 C 
ATOM     24  O   UNL     1       2.591   2.586  21.407  0.00  0.00    +0.000 OA
ATOM     25  H   UNL     1       0.329   3.636  21.450  0.00  0.00    +0.000 HD
ATOM     26  H   UNL     1      -0.042   3.242  19.782  0.00  0.00    +0.000 HD
ENDBRANCH  21  23
ENDBRANCH  20  21
ENDBRANCH   1  20
TORSDOF 7
ENDMDL
MODEL 9
REMARK VINA RESULT:      -6.5      2.506      8.222
REMARK  Name = 
REMARK  7 active torsions:
REMARK  status: ('A' for Active; 'I' for Inactive)
REMARK    1  A    between atoms: C_2  and  C_4
REMARK    2  A    between atoms: C_4  and  O_5
REMARK    3  A    between atoms: O_5  and  C_6
REMARK    4  A    between atoms: C_10  and  C_11
REMARK    5  A    between atoms: N_16  and  C_17
REMARK    6  A    between atoms: C_17  and  C_18
REMARK    7  A    between atoms: C_18  and  O_20
REMARK                            x       y       z     vdW  Elec       q    Type
REMARK                         _______ _______ _______ _____ _____    ______ ____
ROOT
ATOM      1  C   UNL     1      -0.139   9.966  18.831  0.00  0.00    +0.000 A 
ATOM      2  C   UNL     1      -0.199   9.724  20.204  0.00  0.00    +0.000 A 
ATOM      3  C   UNL     1       0.744   8.893  20.807  0.00  0.00    +0.000 A 
ATOM      4  C   UNL     1       1.769   8.322  20.048  0.00  0.00    +0.000 A 
ATOM      5  C   UNL     1       1.867   8.590  18.678  0.00  0.00    +0.000 A 
ATOM      6  C   UNL     1       0.904   9.412  18.076  0.00  0.00    +0.000 A 
ENDROOT
BRANCH   5   7
ATOM      7  C   UNL     1       2.976   8.023  17.897  0.00  0.00    +0.000 C 
ATOM      8  C   UNL     1       3.230   6.713  17.733  0.00  0.00    +0.000 C 
ATOM      9  S   UNL     1       2.316   5.397  18.351  0.00  0.00    +0.000 S 
ATOM     10  C   UNL     1       3.400   4.190  17.668  0.00  0.00    +0.000 C 
ATOM     11  S   UNL     1       3.128   2.557  17.849  0.00  0.00    +0.000 S 
ATOM     12  N   UNL     1       4.448   4.815  17.021  0.00  0.00    +0.000 N 
ATOM     13  C   UNL     1       4.392   6.193  16.963  0.00  0.00    +0.000 C 
ATOM     14  O   UNL     1       5.172   6.877  16.307  0.00  0.00    +0.000 OA
BRANCH  12  15
ATOM     15  C   UNL     1       5.592   4.114  16.423  0.00  0.00    +0.000 C 
BRANCH  15  16
ATOM     16  C   UNL     1       6.891   4.314  17.194  0.00  0.00    +0.000 C 
ATOM     17  O   UNL     1       7.968   4.542  16.663  0.00  0.00    +0.000 OA
BRANCH  16  18
ATOM     18  O   UNL     1       6.776   4.124  18.533  0.00  0.00    +0.000 OA
ATOM     19  H   UNL     1       7.441   4.611  19.076  0.00  0.00    +0.000 HD
ENDBRANCH  16  18
ENDBRANCH  15  16
ENDBRANCH  12  15
ENDBRANCH   5   7
BRANCH   1  20
ATOM     20  O   UNL     1      -1.038  10.729  18.130  0.00  0.00    +0.000 OA
BRANCH  20  21
ATOM     21  C   UNL     1      -1.765  11.697  18.891  0.00  0.00    +0.000 C 
BRANCH  21  23
ATOM     22  N   UNL     1      -1.517  13.953  19.815  0.00  0.00    +0.000 N 
ATOM     23  C   UNL     1      -1.083  13.062  18.878  0.00  0.00    +0.000 C 
ATOM     24  O   UNL     1      -0.200  13.361  18.080  0.00  0.00    +0.000 OA
ATOM     25  H   UNL     1      -1.080  14.862  19.867  0.00  0.00    +0.000 HD
ATOM     26  H   UNL     1      -2.236  13.693  20.478  0.00  0.00    +0.000 HD
ENDBRANCH  21  23
ENDBRANCH  20  21
ENDBRANCH   1  20
TORSDOF 7
ENDMDL
