MODEL 1
REMARK VINA RESULT:      -8.0      0.000      0.000
REMARK  Name = 
REMARK  6 active torsions:
REMARK  status: ('A' for Active; 'I' for Inactive)
REMARK    1  A    between atoms: C_1  and  C_2
REMARK    2  A    between atoms: C_2  and  N_3
REMARK    3  A    between atoms: N_10  and  C_11
REMARK    4  A    between atoms: C_11  and  C_12
REMARK    5  A    between atoms: C_15  and  O_16
REMARK    6  A    between atoms: O_16  and  C_17
REMARK                            x       y       z     vdW  Elec       q    Type
REMARK                         _______ _______ _______ _____ _____    ______ ____
ROOT
ATOM      1  N   UNL     1       3.631   5.769  18.215  0.00  0.00    +0.000 N 
ATOM      2  C   UNL     1       3.138   7.070  18.098  0.00  0.00    +0.000 C 
ATOM      3  O   UNL     1       3.299   7.762  17.097  0.00  0.00    +0.000 OA
ATOM      4  C   UNL     1       2.344   7.487  19.217  0.00  0.00    +0.000 A 
ATOM      5  C   UNL     1       2.022   6.666  20.264  0.00  0.00    +0.000 A 
ATOM      6  N   UNL     1       1.166   7.253  21.139  0.00  0.00    +0.000 NA
ATOM      7  C   UNL     1       0.986   8.465  20.648  0.00  0.00    +0.000 A 
ATOM      8  N   UNL     1       1.671   8.649  19.469  0.00  0.00    +0.000 N 
ATOM      9  N   UNL     1       2.526   5.432  20.326  0.00  0.00    +0.000 N 
ATOM     10  C   UNL     1       3.381   5.009  19.345  0.00  0.00    +0.000 C 
ATOM     11  N   UNL     1       3.854   3.797  19.482  0.00  0.00    +0.000 NA
ATOM     12  C   UNL     1       3.062   3.240  20.637  0.00  0.00    +0.000 C 
ATOM     13  C   UNL     1       2.328   2.018  20.096  0.00  0.00    +0.000 C 
ATOM     14  C   UNL     1       1.200   2.646  19.285  0.00  0.00    +0.000 C 
ATOM     15  C   UNL     1       0.705   3.767  20.201  0.00  0.00    +0.000 C 
ATOM     16  C   UNL     1       1.950   4.280  20.961  0.00  0.00    +0.000 C 
ENDROOT
BRANCH   1  18
ATOM     17  C   UNL     1       5.472   5.224  16.635  0.00  0.00    +0.000 C 
ATOM     18  C   UNL     1       4.009   5.083  16.988  0.00  0.00    +0.000 C 
ENDBRANCH   1  18
BRANCH   8  19
ATOM     19  C   UNL     1       1.588   9.817  18.610  0.00  0.00    +0.000 C 
BRANCH  19  20
ATOM     20  C   UNL     1       0.182  10.349  18.527  0.00  0.00    +0.000 A 
ATOM     21  C   UNL     1      -0.771   9.762  17.700  0.00  0.00    +0.000 A 
ATOM     22  C   UNL     1      -2.061  10.290  17.619  0.00  0.00    +0.000 A 
ATOM     23  C   UNL     1      -2.449  11.415  18.370  0.00  0.00    +0.000 A 
ATOM     24  C   UNL     1      -1.502  11.996  19.219  0.00  0.00    +0.000 A 
ATOM     25 BR   UNL     1      -1.776  13.481  20.376  0.00  0.00    +0.000 Br
ATOM     26  C   UNL     1      -0.198  11.468  19.281  0.00  0.00    +0.000 A 
BRANCH  23  27
ATOM     27  O   UNL     1      -3.752  11.726  18.115  0.00  0.00    +0.000 OA
ATOM     28  C   UNL     1      -4.379  11.322  16.915  0.00  0.00    +0.000 C 
ENDBRANCH  23  27
ENDBRANCH  19  20
ENDBRANCH   8  19
TORSDOF 4
ENDMDL
MODEL 2
REMARK VINA RESULT:      -7.9      1.199      1.577
REMARK  Name = 
REMARK  6 active torsions:
REMARK  status: ('A' for Active; 'I' for Inactive)
REMARK    1  A    between atoms: C_1  and  C_2
REMARK    2  A    between atoms: C_2  and  N_3
REMARK    3  A    between atoms: N_10  and  C_11
REMARK    4  A    between atoms: C_11  and  C_12
REMARK    5  A    between atoms: C_15  and  O_16
REMARK    6  A    between atoms: O_16  and  C_17
REMARK                            x       y       z     vdW  Elec       q    Type
REMARK                         _______ _______ _______ _____ _____    ______ ____
ROOT
ATOM      1  N   UNL     1       3.704   5.639  18.187  0.00  0.00    +0.000 N 
ATOM      2  C   UNL     1       3.234   6.952  18.110  0.00  0.00    +0.000 C 
ATOM      3  O   UNL     1       3.418   7.674  17.135  0.00  0.00    +0.000 OA
ATOM      4  C   UNL     1       2.435   7.345  19.234  0.00  0.00    +0.000 A 
ATOM      5  C   UNL     1       2.088   6.494  20.249  0.00  0.00    +0.000 A 
ATOM      6  N   UNL     1       1.232   7.067  21.134  0.00  0.00    +0.000 NA
ATOM      7  C   UNL     1       1.079   8.297  20.683  0.00  0.00    +0.000 A 
ATOM      8  N   UNL     1       1.779   8.509  19.519  0.00  0.00    +0.000 N 
ATOM      9  N   UNL     1       2.571   5.250  20.275  0.00  0.00    +0.000 N 
ATOM     10  C   UNL     1       3.429   4.846  19.289  0.00  0.00    +0.000 C 
ATOM     11  N   UNL     1       3.880   3.622  19.390  0.00  0.00    +0.000 NA
ATOM     12  C   UNL     1       3.066   3.040  20.517  0.00  0.00    +0.000 C 
ATOM     13  C   UNL     1       2.318   1.850  19.927  0.00  0.00    +0.000 C 
ATOM     14  C   UNL     1       1.210   2.524  19.126  0.00  0.00    +0.000 C 
ATOM     15  C   UNL     1       0.723   3.622  20.074  0.00  0.00    +0.000 C 
ATOM     16  C   UNL     1       1.968   4.088  20.865  0.00  0.00    +0.000 C 
ENDROOT
BRANCH   1  18
ATOM     17  C   UNL     1       5.564   5.054  16.645  0.00  0.00    +0.000 C 
ATOM     18  C   UNL     1       4.084   4.989  16.942  0.00  0.00    +0.000 C 
ENDBRANCH   1  18
BRANCH   8  19
ATOM     19  C   UNL     1       1.726   9.707  18.698  0.00  0.00    +0.000 C 
BRANCH  19  20
ATOM     20  C   UNL     1       0.367  10.353  18.744  0.00  0.00    +0.000 A 
ATOM     21  C   UNL     1       0.052  11.319  19.695  0.00  0.00    +0.000 A 
ATOM     22  C   UNL     1      -1.225  11.884  19.735  0.00  0.00    +0.000 A 
ATOM     23  C   UNL     1      -2.228  11.514  18.821  0.00  0.00    +0.000 A 
ATOM     24  C   UNL     1      -1.910  10.558  17.850  0.00  0.00    +0.000 A 
ATOM     25 BR   UNL     1      -3.055   9.920  16.470  0.00  0.00    +0.000 Br
ATOM     26  C   UNL     1      -0.626   9.981  17.827  0.00  0.00    +0.000 A 
BRANCH  23  27
ATOM     27  O   UNL     1      -3.374  12.209  19.070  0.00  0.00    +0.000 OA
ATOM     28  C   UNL     1      -3.640  12.746  20.349  0.00  0.00    +0.000 C 
ENDBRANCH  23  27
ENDBRANCH  19  20
ENDBRANCH   8  19
TORSDOF 4
ENDMDL
MODEL 3
REMARK VINA RESULT:      -7.8      1.572      2.057
REMARK  Name = 
REMARK  6 active torsions:
REMARK  status: ('A' for Active; 'I' for Inactive)
REMARK    1  A    between atoms: C_1  and  C_2
REMARK    2  A    between atoms: C_2  and  N_3
REMARK    3  A    between atoms: N_10  and  C_11
REMARK    4  A    between atoms: C_11  and  C_12
REMARK    5  A    between atoms: C_15  and  O_16
REMARK    6  A    between atoms: O_16  and  C_17
REMARK                            x       y       z     vdW  Elec       q    Type
REMARK                         _______ _______ _______ _____ _____    ______ ____
ROOT
ATOM      1  N   UNL     1       4.706   5.393  17.604  0.00  0.00    +0.000 N 
ATOM      2  C   UNL     1       4.066   6.631  17.511  0.00  0.00    +0.000 C 
ATOM      3  O   UNL     1       4.208   7.390  16.557  0.00  0.00    +0.000 OA
ATOM      4  C   UNL     1       3.153   6.890  18.587  0.00  0.00    +0.000 A 
ATOM      5  C   UNL     1       2.865   5.981  19.569  0.00  0.00    +0.000 A 
ATOM      6  N   UNL     1       1.887   6.415  20.404  0.00  0.00    +0.000 NA
ATOM      7  C   UNL     1       1.593   7.622  19.956  0.00  0.00    +0.000 A 
ATOM      8  N   UNL     1       2.327   7.949  18.841  0.00  0.00    +0.000 N 
ATOM      9  N   UNL     1       3.511   4.814  19.612  0.00  0.00    +0.000 N 
ATOM     10  C   UNL     1       4.475   4.550  18.678  0.00  0.00    +0.000 C 
ATOM     11  N   UNL     1       5.083   3.397  18.794  0.00  0.00    +0.000 NA
ATOM     12  C   UNL     1       4.290   2.688  19.862  0.00  0.00    +0.000 C 
ATOM     13  C   UNL     1       3.749   1.418  19.214  0.00  0.00    +0.000 C 
ATOM     14  C   UNL     1       2.610   1.950  18.352  0.00  0.00    +0.000 C 
ATOM     15  C   UNL     1       1.920   2.954  19.279  0.00  0.00    +0.000 C 
ATOM     16  C   UNL     1       3.039   3.570  20.151  0.00  0.00    +0.000 C 
ENDROOT
BRANCH   1  18
ATOM     17  C   UNL     1       6.727   5.064  16.195  0.00  0.00    +0.000 C 
ATOM     18  C   UNL     1       5.246   4.825  16.379  0.00  0.00    +0.000 C 
ENDBRANCH   1  18
BRANCH   8  19
ATOM     19  C   UNL     1       2.160   9.143  18.031  0.00  0.00    +0.000 C 
BRANCH  19  20
ATOM     20  C   UNL     1       0.937   9.922  18.434  0.00  0.00    +0.000 A 
ATOM     21  C   UNL     1       0.981  10.871  19.452  0.00  0.00    +0.000 A 
ATOM     22  C   UNL     1      -0.175  11.561  19.826  0.00  0.00    +0.000 A 
ATOM     23  C   UNL     1      -1.410  11.338  19.192  0.00  0.00    +0.000 A 
ATOM     24  C   UNL     1      -1.455  10.401  18.155  0.00  0.00    +0.000 A 
ATOM     25 BR   UNL     1      -2.972   9.947  17.100  0.00  0.00    +0.000 Br
ATOM     26  C   UNL     1      -0.290   9.696  17.794  0.00  0.00    +0.000 A 
BRANCH  23  27
ATOM     27  O   UNL     1      -2.372  12.135  19.737  0.00  0.00    +0.000 OA
ATOM     28  C   UNL     1      -2.065  13.049  20.770  0.00  0.00    +0.000 C 
ENDBRANCH  23  27
ENDBRANCH  19  20
ENDBRANCH   8  19
TORSDOF 4
ENDMDL
MODEL 4
REMARK VINA RESULT:      -7.7      2.298      4.230
REMARK  Name = 
REMARK  6 active torsions:
REMARK  status: ('A' for Active; 'I' for Inactive)
REMARK    1  A    between atoms: C_1  and  C_2
REMARK    2  A    between atoms: C_2  and  N_3
REMARK    3  A    between atoms: N_10  and  C_11
REMARK    4  A    between atoms: C_11  and  C_12
REMARK    5  A    between atoms: C_15  and  O_16
REMARK    6  A    between atoms: O_16  and  C_17
REMARK                            x       y       z     vdW  Elec       q    Type
REMARK                         _______ _______ _______ _____ _____    ______ ____
ROOT
ATOM      1  N   UNL     1       3.668   4.333  18.832  0.00  0.00    +0.000 N 
ATOM      2  C   UNL     1       2.899   5.116  19.696  0.00  0.00    +0.000 C 
ATOM      3  O   UNL     1       2.526   4.729  20.800  0.00  0.00    +0.000 OA
ATOM      4  C   UNL     1       2.667   6.447  19.214  0.00  0.00    +0.000 A 
ATOM      5  C   UNL     1       3.216   6.939  18.061  0.00  0.00    +0.000 A 
ATOM      6  N   UNL     1       2.944   8.258  17.881  0.00  0.00    +0.000 NA
ATOM      7  C   UNL     1       2.187   8.574  18.915  0.00  0.00    +0.000 A 
ATOM      8  N   UNL     1       2.004   7.508  19.764  0.00  0.00    +0.000 N 
ATOM      9  N   UNL     1       3.940   6.144  17.271  0.00  0.00    +0.000 N 
ATOM     10  C   UNL     1       4.107   4.831  17.617  0.00  0.00    +0.000 C 
ATOM     11  N   UNL     1       4.808   4.105  16.785  0.00  0.00    +0.000 NA
ATOM     12  C   UNL     1       5.357   5.118  15.812  0.00  0.00    +0.000 C 
ATOM     13  C   UNL     1       6.875   5.017  15.907  0.00  0.00    +0.000 C 
ATOM     14  C   UNL     1       7.169   5.731  17.221  0.00  0.00    +0.000 C 
ATOM     15  C   UNL     1       6.267   6.965  17.148  0.00  0.00    +0.000 C 
ATOM     16  C   UNL     1       4.999   6.524  16.380  0.00  0.00    +0.000 C 
ENDROOT
BRANCH   1  18
ATOM     17  C   UNL     1       3.697   1.863  19.116  0.00  0.00    +0.000 C 
ATOM     18  C   UNL     1       4.363   3.189  19.404  0.00  0.00    +0.000 C 
ENDBRANCH   1  18
BRANCH   8  19
ATOM     19  C   UNL     1       1.332   7.549  21.051  0.00  0.00    +0.000 C 
BRANCH  19  20
ATOM     20  C   UNL     1       0.560   8.828  21.235  0.00  0.00    +0.000 A 
ATOM     21  C   UNL     1       0.338   9.369  22.498  0.00  0.00    +0.000 A 
ATOM     22  C   UNL     1      -0.406  10.542  22.645  0.00  0.00    +0.000 A 
ATOM     23  C   UNL     1      -0.942  11.223  21.537  0.00  0.00    +0.000 A 
ATOM     24  C   UNL     1      -0.705  10.695  20.264  0.00  0.00    +0.000 A 
ATOM     25 BR   UNL     1      -1.266  11.438  18.605  0.00  0.00    +0.000 Br
ATOM     26  C   UNL     1       0.031   9.502  20.125  0.00  0.00    +0.000 A 
BRANCH  23  27
ATOM     27  O   UNL     1      -1.618  12.334  21.947  0.00  0.00    +0.000 OA
ATOM     28  C   UNL     1      -1.174  13.093  23.053  0.00  0.00    +0.000 C 
ENDBRANCH  23  27
ENDBRANCH  19  20
ENDBRANCH   8  19
TORSDOF 4
ENDMDL
MODEL 5
REMARK VINA RESULT:      -7.6      1.152      1.280
REMARK  Name = 
REMARK  6 active torsions:
REMARK  status: ('A' for Active; 'I' for Inactive)
REMARK    1  A    between atoms: C_1  and  C_2
REMARK    2  A    between atoms: C_2  and  N_3
REMARK    3  A    between atoms: N_10  and  C_11
REMARK    4  A    between atoms: C_11  and  C_12
REMARK    5  A    between atoms: C_15  and  O_16
REMARK    6  A    between atoms: O_16  and  C_17
REMARK                            x       y       z     vdW  Elec       q    Type
REMARK                         _______ _______ _______ _____ _____    ______ ____
ROOT
ATOM      1  N   UNL     1       4.501   5.524  17.540  0.00  0.00    +0.000 N 
ATOM      2  C   UNL     1       3.903   6.786  17.545  0.00  0.00    +0.000 C 
ATOM      3  O   UNL     1       4.054   7.605  16.643  0.00  0.00    +0.000 OA
ATOM      4  C   UNL     1       3.019   7.000  18.655  0.00  0.00    +0.000 A 
ATOM      5  C   UNL     1       2.718   6.034  19.578  0.00  0.00    +0.000 A 
ATOM      6  N   UNL     1       1.770   6.441  20.461  0.00  0.00    +0.000 NA
ATOM      7  C   UNL     1       1.511   7.685  20.104  0.00  0.00    +0.000 A 
ATOM      8  N   UNL     1       2.236   8.065  18.999  0.00  0.00    +0.000 N 
ATOM      9  N   UNL     1       3.324   4.847  19.526  0.00  0.00    +0.000 N 
ATOM     10  C   UNL     1       4.261   4.616  18.557  0.00  0.00    +0.000 C 
ATOM     11  N   UNL     1       4.831   3.438  18.581  0.00  0.00    +0.000 NA
ATOM     12  C   UNL     1       4.033   2.683  19.613  0.00  0.00    +0.000 C 
ATOM     13  C   UNL     1       3.437   1.481  18.890  0.00  0.00    +0.000 C 
ATOM     14  C   UNL     1       2.301   2.109  18.090  0.00  0.00    +0.000 C 
ATOM     15  C   UNL     1       1.664   3.068  19.098  0.00  0.00    +0.000 C 
ATOM     16  C   UNL     1       2.819   3.584  19.988  0.00  0.00    +0.000 C 
ENDROOT
BRANCH   1  18
ATOM     17  C   UNL     1       6.463   5.315  16.027  0.00  0.00    +0.000 C 
ATOM     18  C   UNL     1       4.999   5.025  16.267  0.00  0.00    +0.000 C 
ENDBRANCH   1  18
BRANCH   8  19
ATOM     19  C   UNL     1       2.095   9.318  18.277  0.00  0.00    +0.000 C 
BRANCH  19  20
ATOM     20  C   UNL     1       0.802  10.011  18.612  0.00  0.00    +0.000 A 
ATOM     21  C   UNL     1      -0.346   9.819  17.847  0.00  0.00    +0.000 A 
ATOM     22  C   UNL     1      -1.527  10.495  18.162  0.00  0.00    +0.000 A 
ATOM     23  C   UNL     1      -1.608  11.375  19.256  0.00  0.00    +0.000 A 
ATOM     24  C   UNL     1      -0.464  11.555  20.039  0.00  0.00    +0.000 A 
ATOM     25 BR   UNL     1      -0.314  12.639  21.596  0.00  0.00    +0.000 Br
ATOM     26  C   UNL     1       0.728  10.884  19.706  0.00  0.00    +0.000 A 
BRANCH  23  27
ATOM     27  O   UNL     1      -2.863  11.900  19.348  0.00  0.00    +0.000 OA
ATOM     28  C   UNL     1      -3.854  11.597  18.388  0.00  0.00    +0.000 C 
ENDBRANCH  23  27
ENDBRANCH  19  20
ENDBRANCH   8  19
TORSDOF 4
ENDMDL
MODEL 6
REMARK VINA RESULT:      -7.6      1.900      3.850
REMARK  Name = 
REMARK  6 active torsions:
REMARK  status: ('A' for Active; 'I' for Inactive)
REMARK    1  A    between atoms: C_1  and  C_2
REMARK    2  A    between atoms: C_2  and  N_3
REMARK    3  A    between atoms: N_10  and  C_11
REMARK    4  A    between atoms: C_11  and  C_12
REMARK    5  A    between atoms: C_15  and  O_16
REMARK    6  A    between atoms: O_16  and  C_17
REMARK                            x       y       z     vdW  Elec       q    Type
REMARK                         _______ _______ _______ _____ _____    ______ ____
ROOT
ATOM      1  N   UNL     1       3.123   4.807  19.098  0.00  0.00    +0.000 N 
ATOM      2  C   UNL     1       2.398   5.840  19.694  0.00  0.00    +0.000 C 
ATOM      3  O   UNL     1       1.861   5.737  20.793  0.00  0.00    +0.000 OA
ATOM      4  C   UNL     1       2.419   7.064  18.946  0.00  0.00    +0.000 A 
ATOM      5  C   UNL     1       3.149   7.238  17.801  0.00  0.00    +0.000 A 
ATOM      6  N   UNL     1       3.099   8.516  17.345  0.00  0.00    +0.000 NA
ATOM      7  C   UNL     1       2.298   9.130  18.195  0.00  0.00    +0.000 A 
ATOM      8  N   UNL     1       1.871   8.291  19.197  0.00  0.00    +0.000 N 
ATOM      9  N   UNL     1       3.821   6.213  17.274  0.00  0.00    +0.000 N 
ATOM     10  C   UNL     1       3.752   4.987  17.878  0.00  0.00    +0.000 C 
ATOM     11  N   UNL     1       4.417   4.024  17.293  0.00  0.00    +0.000 NA
ATOM     12  C   UNL     1       5.207   4.739  16.227  0.00  0.00    +0.000 C 
ATOM     13  C   UNL     1       6.675   4.465  16.534  0.00  0.00    +0.000 C 
ATOM     14  C   UNL     1       6.939   5.389  17.718  0.00  0.00    +0.000 C 
ATOM     15  C   UNL     1       6.245   6.687  17.300  0.00  0.00    +0.000 C 
ATOM     16  C   UNL     1       5.010   6.264  16.471  0.00  0.00    +0.000 C 
ENDROOT
BRANCH   1  18
ATOM     17  C   UNL     1       2.650   2.529  19.975  0.00  0.00    +0.000 C 
ATOM     18  C   UNL     1       3.576   3.724  19.958  0.00  0.00    +0.000 C 
ENDBRANCH   1  18
BRANCH   8  19
ATOM     19  C   UNL     1       1.087   8.678  20.357  0.00  0.00    +0.000 C 
BRANCH  19  20
ATOM     20  C   UNL     1       0.438  10.023  20.166  0.00  0.00    +0.000 A 
ATOM     21  C   UNL     1       0.929  11.164  20.794  0.00  0.00    +0.000 A 
ATOM     22  C   UNL     1       0.293  12.396  20.623  0.00  0.00    +0.000 A 
ATOM     23  C   UNL     1      -0.846  12.535  19.810  0.00  0.00    +0.000 A 
ATOM     24  C   UNL     1      -1.331  11.395  19.160  0.00  0.00    +0.000 A 
ATOM     25 BR   UNL     1      -2.814  11.313  17.970  0.00  0.00    +0.000 Br
ATOM     26  C   UNL     1      -0.695  10.154  19.351  0.00  0.00    +0.000 A 
BRANCH  23  27
ATOM     27  O   UNL     1      -1.270  13.831  19.808  0.00  0.00    +0.000 OA
ATOM     28  C   UNL     1      -0.428  14.874  19.363  0.00  0.00    +0.000 C 
ENDBRANCH  23  27
ENDBRANCH  19  20
ENDBRANCH   8  19
TORSDOF 4
ENDMDL
MODEL 7
REMARK VINA RESULT:      -7.5      1.459      3.171
REMARK  Name = 
REMARK  6 active torsions:
REMARK  status: ('A' for Active; 'I' for Inactive)
REMARK    1  A    between atoms: C_1  and  C_2
REMARK    2  A    between atoms: C_2  and  N_3
REMARK    3  A    between atoms: N_10  and  C_11
REMARK    4  A    between atoms: C_11  and  C_12
REMARK    5  A    between atoms: C_15  and  O_16
REMARK    6  A    between atoms: O_16  and  C_17
REMARK                            x       y       z     vdW  Elec       q    Type
REMARK                         _______ _______ _______ _____ _____    ______ ____
ROOT
ATOM      1  N   UNL     1       2.227   5.691  19.852  0.00  0.00    +0.000 N 
ATOM      2  C   UNL     1       1.658   6.928  20.162  0.00  0.00    +0.000 C 
ATOM      3  O   UNL     1       1.106   7.164  21.233  0.00  0.00    +0.000 OA
ATOM      4  C   UNL     1       1.862   7.926  19.152  0.00  0.00    +0.000 A 
ATOM      5  C   UNL     1       2.616   7.719  18.028  0.00  0.00    +0.000 A 
ATOM      6  N   UNL     1       2.756   8.848  17.285  0.00  0.00    +0.000 NA
ATOM      7  C   UNL     1       2.049   9.752  17.937  0.00  0.00    +0.000 A 
ATOM      8  N   UNL     1       1.499   9.241  19.089  0.00  0.00    +0.000 N 
ATOM      9  N   UNL     1       3.132   6.514  17.779  0.00  0.00    +0.000 N 
ATOM     10  C   UNL     1       2.882   5.488  18.648  0.00  0.00    +0.000 C 
ATOM     11  N   UNL     1       3.400   4.330  18.330  0.00  0.00    +0.000 NA
ATOM     12  C   UNL     1       4.292   4.654  17.159  0.00  0.00    +0.000 C 
ATOM     13  C   UNL     1       5.703   4.256  17.579  0.00  0.00    +0.000 C 
ATOM     14  C   UNL     1       6.094   5.385  18.525  0.00  0.00    +0.000 C 
ATOM     15  C   UNL     1       5.600   6.633  17.791  0.00  0.00    +0.000 C 
ATOM     16  C   UNL     1       4.320   6.206  17.034  0.00  0.00    +0.000 C 
ENDROOT
BRANCH   1  18
ATOM     17  C   UNL     1       1.531   3.644  21.079  0.00  0.00    +0.000 C 
ATOM     18  C   UNL     1       2.511   4.788  20.957  0.00  0.00    +0.000 C 
ENDBRANCH   1  18
BRANCH   8  19
ATOM     19  C   UNL     1       0.775   9.998  20.096  0.00  0.00    +0.000 C 
BRANCH  19  20
ATOM     20  C   UNL     1      -0.531  10.524  19.563  0.00  0.00    +0.000 A 
ATOM     21  C   UNL     1      -1.121   9.987  18.422  0.00  0.00    +0.000 A 
ATOM     22  C   UNL     1      -2.320  10.510  17.931  0.00  0.00    +0.000 A 
ATOM     23  C   UNL     1      -2.977  11.579  18.567  0.00  0.00    +0.000 A 
ATOM     24  C   UNL     1      -2.399  12.109  19.726  0.00  0.00    +0.000 A 
ATOM     25 BR   UNL     1      -3.101  13.511  20.804  0.00  0.00    +0.000 Br
ATOM     26  C   UNL     1      -1.182  11.587  20.204  0.00  0.00    +0.000 A 
BRANCH  23  27
ATOM     27  O   UNL     1      -4.120  11.897  17.896  0.00  0.00    +0.000 OA
ATOM     28  C   UNL     1      -4.465  11.248  16.690  0.00  0.00    +0.000 C 
ENDBRANCH  23  27
ENDBRANCH  19  20
ENDBRANCH   8  19
TORSDOF 4
ENDMDL
MODEL 8
REMARK VINA RESULT:      -7.5      3.512      8.072
REMARK  Name = 
REMARK  6 active torsions:
REMARK  status: ('A' for Active; 'I' for Inactive)
REMARK    1  A    between atoms: C_1  and  C_2
REMARK    2  A    between atoms: C_2  and  N_3
REMARK    3  A    between atoms: N_10  and  C_11
REMARK    4  A    between atoms: C_11  and  C_12
REMARK    5  A    between atoms: C_15  and  O_16
REMARK    6  A    between atoms: O_16  and  C_17
REMARK                            x       y       z     vdW  Elec       q    Type
REMARK                         _______ _______ _______ _____ _____    ______ ____
ROOT
ATOM      1  N   UNL     1       0.502   9.489  21.373  0.00  0.00    +0.000 N 
ATOM      2  C   UNL     1       1.110   8.347  20.846  0.00  0.00    +0.000 C 
ATOM      3  O   UNL     1       1.116   7.263  21.423  0.00  0.00    +0.000 OA
ATOM      4  C   UNL     1       1.640   8.534  19.527  0.00  0.00    +0.000 A 
ATOM      5  C   UNL     1       1.493   9.691  18.810  0.00  0.00    +0.000 A 
ATOM      6  N   UNL     1       1.979   9.581  17.547  0.00  0.00    +0.000 NA
ATOM      7  C   UNL     1       2.466   8.355  17.494  0.00  0.00    +0.000 A 
ATOM      8  N   UNL     1       2.269   7.673  18.671  0.00  0.00    +0.000 N 
ATOM      9  N   UNL     1       0.908  10.753  19.366  0.00  0.00    +0.000 N 
ATOM     10  C   UNL     1       0.478  10.677  20.662  0.00  0.00    +0.000 C 
ATOM     11  N   UNL     1      -0.066  11.763  21.149  0.00  0.00    +0.000 NA
ATOM     12  C   UNL     1      -0.191  12.662  19.946  0.00  0.00    +0.000 C 
ATOM     13  C   UNL     1      -1.678  12.962  19.794  0.00  0.00    +0.000 C 
ATOM     14  C   UNL     1      -2.215  11.662  19.205  0.00  0.00    +0.000 C 
ATOM     15  C   UNL     1      -1.168  11.309  18.146  0.00  0.00    +0.000 C 
ATOM     16  C   UNL     1       0.188  11.804  18.703  0.00  0.00    +0.000 C 
ENDROOT
BRANCH   1  18
ATOM     17  C   UNL     1       0.101   9.496  23.827  0.00  0.00    +0.000 C 
ATOM     18  C   UNL     1      -0.469   9.299  22.441  0.00  0.00    +0.000 C 
ENDBRANCH   1  18
BRANCH   8  19
ATOM     19  C   UNL     1       2.569   6.271  18.904  0.00  0.00    +0.000 C 
BRANCH  19  20
ATOM     20  C   UNL     1       3.716   5.799  18.052  0.00  0.00    +0.000 A 
ATOM     21  C   UNL     1       3.592   4.697  17.209  0.00  0.00    +0.000 A 
ATOM     22  C   UNL     1       4.680   4.262  16.449  0.00  0.00    +0.000 A 
ATOM     23  C   UNL     1       5.924   4.917  16.492  0.00  0.00    +0.000 A 
ATOM     24  C   UNL     1       6.048   6.036  17.321  0.00  0.00    +0.000 A 
ATOM     25 BR   UNL     1       7.591   7.130  17.527  0.00  0.00    +0.000 Br
ATOM     26  C   UNL     1       4.952   6.459  18.098  0.00  0.00    +0.000 A 
BRANCH  23  27
ATOM     27  O   UNL     1       6.811   4.301  15.660  0.00  0.00    +0.000 OA
ATOM     28  C   UNL     1       6.465   3.983  14.328  0.00  0.00    +0.000 C 
ENDBRANCH  23  27
ENDBRANCH  19  20
ENDBRANCH   8  19
TORSDOF 4
ENDMDL
MODEL 9
REMARK VINA RESULT:      -7.5      1.515      1.762
REMARK  Name = 
REMARK  6 active torsions:
REMARK  status: ('A' for Active; 'I' for Inactive)
REMARK    1  A    between atoms: C_1  and  C_2
REMARK    2  A    between atoms: C_2  and  N_3
REMARK    3  A    between atoms: N_10  and  C_11
REMARK    4  A    between atoms: C_11  and  C_12
REMARK    5  A    between atoms: C_15  and  O_16
REMARK    6  A    between atoms: O_16  and  C_17
REMARK                            x       y       z     vdW  Elec       q    Type
REMARK                         _______ _______ _______ _____ _____    ______ ____
ROOT
ATOM      1  N   UNL     1       3.368   6.820  18.251  0.00  0.00    +0.000 N 
ATOM      2  C   UNL     1       2.713   8.053  18.228  0.00  0.00    +0.000 C 
ATOM      3  O   UNL     1       2.766   8.824  17.273  0.00  0.00    +0.000 OA
ATOM      4  C   UNL     1       1.895   8.293  19.381  0.00  0.00    +0.000 A 
ATOM      5  C   UNL     1       1.700   7.371  20.374  0.00  0.00    +0.000 A 
ATOM      6  N   UNL     1       0.794   7.788  21.296  0.00  0.00    +0.000 NA
ATOM      7  C   UNL     1       0.453   8.996  20.889  0.00  0.00    +0.000 A 
ATOM      8  N   UNL     1       1.086   9.342  19.718  0.00  0.00    +0.000 N 
ATOM      9  N   UNL     1       2.356   6.210  20.348  0.00  0.00    +0.000 N 
ATOM     10  C   UNL     1       3.238   5.963  19.332  0.00  0.00    +0.000 C 
ATOM     11  N   UNL     1       3.863   4.815  19.382  0.00  0.00    +0.000 NA
ATOM     12  C   UNL     1       3.170   4.088  20.506  0.00  0.00    +0.000 C 
ATOM     13  C   UNL     1       2.585   2.820  19.893  0.00  0.00    +0.000 C 
ATOM     14  C   UNL     1       1.372   3.351  19.139  0.00  0.00    +0.000 C 
ATOM     15  C   UNL     1       0.757   4.339  20.133  0.00  0.00    +0.000 C 
ATOM     16  C   UNL     1       1.942   4.956  20.912  0.00  0.00    +0.000 C 
ENDROOT
BRANCH   1  18
ATOM     17  C   UNL     1       5.246   6.578  16.640  0.00  0.00    +0.000 C 
ATOM     18  C   UNL     1       3.805   6.269  16.977  0.00  0.00    +0.000 C 
ENDBRANCH   1  18
BRANCH   8  19
ATOM     19  C   UNL     1       0.840  10.543  18.939  0.00  0.00    +0.000 C 
BRANCH  19  20
ATOM     20  C   UNL     1      -0.625  10.728  18.650  0.00  0.00    +0.000 A 
ATOM     21  C   UNL     1      -1.473  11.356  19.558  0.00  0.00    +0.000 A 
ATOM     22  C   UNL     1      -2.835  11.492  19.279  0.00  0.00    +0.000 A 
ATOM     23  C   UNL     1      -3.396  11.017  18.080  0.00  0.00    +0.000 A 
ATOM     24  C   UNL     1      -2.545  10.404  17.155  0.00  0.00    +0.000 A 
ATOM     25 BR   UNL     1      -3.030   9.724  15.445  0.00  0.00    +0.000 Br
ATOM     26  C   UNL     1      -1.177  10.255  17.451  0.00  0.00    +0.000 A 
BRANCH  23  27
ATOM     27  O   UNL     1      -4.735  11.274  18.050  0.00  0.00    +0.000 OA
ATOM     28  C   UNL     1      -5.281  12.202  17.135  0.00  0.00    +0.000 C 
ENDBRANCH  23  27
ENDBRANCH  19  20
ENDBRANCH   8  19
TORSDOF 4
ENDMDL
