MODEL 1
REMARK VINA RESULT:      -7.8      0.000      0.000
REMARK  Name = 
REMARK  13 active torsions:
REMARK  status: ('A' for Active; 'I' for Inactive)
REMARK    1  A    between atoms: C_1  and  C_2
REMARK    2  A    between atoms: C_2  and  C_3
REMARK    3  A    between atoms: C_3  and  O_4
REMARK    4  A    between atoms: C_3  and  C_5
REMARK    5  A    between atoms: C_7  and  C_8
REMARK    6  A    between atoms: C_8  and  C_9
REMARK    7  A    between atoms: N_17  and  C_18
REMARK    8  A    between atoms: C_18  and  C_19
REMARK    9  A    between atoms: C_19  and  C_20
REMARK   10  A    between atoms: C_20  and  N_21
REMARK   11  A    between atoms: N_24  and  C_25
REMARK   12  A    between atoms: C_29  and  C_30
REMARK   13  A    between atoms: C_30  and  C_31
REMARK                            x       y       z     vdW  Elec       q    Type
REMARK                         _______ _______ _______ _____ _____    ______ ____
ROOT
ATOM      1  C   UNL     1       5.384   5.360  18.827  0.00  0.00    +0.000 C 
ATOM      2  C   UNL     1       4.851   6.116  17.587  0.00  0.00    +0.000 C 
ATOM      3  C   UNL     1       4.846   5.345  16.250  0.00  0.00    +0.000 C 
ATOM      4  C   UNL     1       4.294   3.927  16.465  0.00  0.00    +0.000 C 
ATOM      5  C   UNL     1       4.827   3.235  17.719  0.00  0.00    +0.000 C 
ATOM      6  N   UNL     1       4.637   4.067  18.912  0.00  0.00    +0.000 NA
ENDROOT
BRANCH   1   7
ATOM      7  C   UNL     1       6.957   5.299  18.951  0.00  0.00    +0.000 C 
BRANCH   7   9
ATOM      8  C   UNL     1       8.243   7.531  18.666  0.00  0.00    +0.000 C 
ATOM      9  C   UNL     1       7.746   6.239  18.022  0.00  0.00    +0.000 C 
ENDBRANCH   7   9
BRANCH   7  10
ATOM     10  O   UNL     1       7.401   5.594  20.286  0.00  0.00    +0.000 OA
ATOM     11  H   UNL     1       8.363   5.733  20.256  0.00  0.00    +0.000 HD
ENDBRANCH   7  10
ENDBRANCH   1   7
BRANCH   3  12
ATOM     12  C   UNL     1       6.187   5.302  15.482  0.00  0.00    +0.000 C 
BRANCH  12  13
ATOM     13  C   UNL     1       6.210   4.664  14.108  0.00  0.00    +0.000 A 
ATOM     14  C   UNL     1       7.370   4.801  13.327  0.00  0.00    +0.000 A 
ATOM     15  C   UNL     1       7.460   4.213  12.063  0.00  0.00    +0.000 A 
ATOM     16  C   UNL     1       6.396   3.468  11.564  0.00  0.00    +0.000 A 
ATOM     17  C   UNL     1       5.252   3.297  12.338  0.00  0.00    +0.000 A 
ATOM     18  C   UNL     1       5.165   3.879  13.605  0.00  0.00    +0.000 A 
ENDBRANCH  12  13
ENDBRANCH   3  12
BRANCH   6  19
ATOM     19  C   UNL     1       4.938   3.338  20.148  0.00  0.00    +0.000 C 
BRANCH  19  20
ATOM     20  C   UNL     1       3.804   2.454  20.678  0.00  0.00    +0.000 C 
BRANCH  20  21
ATOM     21  C   UNL     1       2.508   3.244  20.559  0.00  0.00    +0.000 C 
BRANCH  21  22
ATOM     22  N   UNL     1       2.652   4.634  20.933  0.00  0.00    +0.000 N 
ATOM     23  C   UNL     1       2.073   5.559  20.087  0.00  0.00    +0.000 C 
ATOM     24  O   UNL     1       1.492   5.230  19.060  0.00  0.00    +0.000 OA
ATOM     25  N   UNL     1       2.270   6.845  20.544  0.00  0.00    +0.000 N 
ATOM     26  H   UNL     1       2.573   4.854  21.912  0.00  0.00    +0.000 HD
ATOM     27  H   UNL     1       3.060   6.965  21.157  0.00  0.00    +0.000 HD
BRANCH  25  28
ATOM     28  C   UNL     1       1.737   8.000  19.930  0.00  0.00    +0.000 A 
ATOM     29  C   UNL     1       2.044   8.362  18.617  0.00  0.00    +0.000 A 
ATOM     30  C   UNL     1       1.532   9.537  18.073  0.00  0.00    +0.000 A 
ATOM     31  C   UNL     1       0.701  10.358  18.832  0.00  0.00    +0.000 A 
ATOM     32  C   UNL     1       0.361  10.000  20.141  0.00  0.00    +0.000 A 
ATOM     33  C   UNL     1       0.873   8.805  20.678  0.00  0.00    +0.000 A 
BRANCH  32  34
ATOM     34  C   UNL     1      -0.519  10.837  21.012  0.00  0.00    +0.000 C 
ATOM     35  C   UNL     1      -0.525  10.666  22.512  0.00  0.00    +0.000 C 
ATOM     36  O   UNL     1      -1.260  11.671  20.489  0.00  0.00    +0.000 OA
ENDBRANCH  32  34
ENDBRANCH  25  28
ENDBRANCH  21  22
ENDBRANCH  20  21
ENDBRANCH  19  20
ENDBRANCH   6  19
TORSDOF 11
ENDMDL
MODEL 2
REMARK VINA RESULT:      -7.8      1.791      2.488
REMARK  Name = 
REMARK  13 active torsions:
REMARK  status: ('A' for Active; 'I' for Inactive)
REMARK    1  A    between atoms: C_1  and  C_2
REMARK    2  A    between atoms: C_2  and  C_3
REMARK    3  A    between atoms: C_3  and  O_4
REMARK    4  A    between atoms: C_3  and  C_5
REMARK    5  A    between atoms: C_7  and  C_8
REMARK    6  A    between atoms: C_8  and  C_9
REMARK    7  A    between atoms: N_17  and  C_18
REMARK    8  A    between atoms: C_18  and  C_19
REMARK    9  A    between atoms: C_19  and  C_20
REMARK   10  A    between atoms: C_20  and  N_21
REMARK   11  A    between atoms: N_24  and  C_25
REMARK   12  A    between atoms: C_29  and  C_30
REMARK   13  A    between atoms: C_30  and  C_31
REMARK                            x       y       z     vdW  Elec       q    Type
REMARK                         _______ _______ _______ _____ _____    ______ ____
ROOT
ATOM      1  C   UNL     1       4.745   5.380  18.318  0.00  0.00    +0.000 C 
ATOM      2  C   UNL     1       4.597   5.669  16.805  0.00  0.00    +0.000 C 
ATOM      3  C   UNL     1       4.407   4.450  15.879  0.00  0.00    +0.000 C 
ATOM      4  C   UNL     1       3.376   3.485  16.486  0.00  0.00    +0.000 C 
ATOM      5  C   UNL     1       3.548   3.256  17.988  0.00  0.00    +0.000 C 
ATOM      6  N   UNL     1       3.586   4.526  18.721  0.00  0.00    +0.000 NA
ENDROOT
BRANCH   1   7
ATOM      7  C   UNL     1       6.184   4.914  18.773  0.00  0.00    +0.000 C 
BRANCH   7   9
ATOM      8  C   UNL     1       7.749   6.829  18.000  0.00  0.00    +0.000 C 
ATOM      9  C   UNL     1       7.355   5.360  17.878  0.00  0.00    +0.000 C 
ENDBRANCH   7   9
BRANCH   7  10
ATOM     10  O   UNL     1       6.501   5.370  20.099  0.00  0.00    +0.000 OA
ATOM     11  H   UNL     1       6.453   6.341  20.100  0.00  0.00    +0.000 HD
ENDBRANCH   7  10
ENDBRANCH   1   7
BRANCH   3  12
ATOM     12  C   UNL     1       5.693   3.695  15.472  0.00  0.00    +0.000 C 
BRANCH  12  13
ATOM     13  C   UNL     1       6.323   4.015  14.131  0.00  0.00    +0.000 A 
ATOM     14  C   UNL     1       7.311   5.013  14.079  0.00  0.00    +0.000 A 
ATOM     15  C   UNL     1       7.946   5.334  12.877  0.00  0.00    +0.000 A 
ATOM     16  C   UNL     1       7.613   4.653  11.709  0.00  0.00    +0.000 A 
ATOM     17  C   UNL     1       6.658   3.641  11.751  0.00  0.00    +0.000 A 
ATOM     18  C   UNL     1       6.028   3.316  12.955  0.00  0.00    +0.000 A 
ENDBRANCH  12  13
ENDBRANCH   3  12
BRANCH   6  19
ATOM     19  C   UNL     1       3.530   4.327  20.174  0.00  0.00    +0.000 C 
BRANCH  19  20
ATOM     20  C   UNL     1       2.184   4.660  20.826  0.00  0.00    +0.000 C 
BRANCH  20  21
ATOM     21  C   UNL     1       2.209   6.131  21.214  0.00  0.00    +0.000 C 
BRANCH  21  22
ATOM     22  N   UNL     1       2.199   7.021  20.074  0.00  0.00    +0.000 N 
ATOM     23  C   UNL     1       1.390   8.137  20.175  0.00  0.00    +0.000 C 
ATOM     24  O   UNL     1       0.697   8.352  21.161  0.00  0.00    +0.000 OA
ATOM     25  N   UNL     1       1.464   8.911  19.037  0.00  0.00    +0.000 N 
ATOM     26  H   UNL     1       3.078   7.182  19.611  0.00  0.00    +0.000 HD
ATOM     27  H   UNL     1       1.757   8.423  18.206  0.00  0.00    +0.000 HD
BRANCH  25  28
ATOM     28  C   UNL     1       0.804  10.149  18.869  0.00  0.00    +0.000 A 
ATOM     29  C   UNL     1       1.351  11.356  19.308  0.00  0.00    +0.000 A 
ATOM     30  C   UNL     1       0.641  12.545  19.165  0.00  0.00    +0.000 A 
ATOM     31  C   UNL     1      -0.620  12.541  18.572  0.00  0.00    +0.000 A 
ATOM     32  C   UNL     1      -1.175  11.345  18.102  0.00  0.00    +0.000 A 
ATOM     33  C   UNL     1      -0.444  10.152  18.242  0.00  0.00    +0.000 A 
BRANCH  32  34
ATOM     34  C   UNL     1      -2.525  11.268  17.464  0.00  0.00    +0.000 C 
ATOM     35  C   UNL     1      -2.700  10.712  16.073  0.00  0.00    +0.000 C 
ATOM     36  O   UNL     1      -3.504  11.681  18.086  0.00  0.00    +0.000 OA
ENDBRANCH  32  34
ENDBRANCH  25  28
ENDBRANCH  21  22
ENDBRANCH  20  21
ENDBRANCH  19  20
ENDBRANCH   6  19
TORSDOF 11
ENDMDL
MODEL 3
REMARK VINA RESULT:      -7.6      3.088      4.763
REMARK  Name = 
REMARK  13 active torsions:
REMARK  status: ('A' for Active; 'I' for Inactive)
REMARK    1  A    between atoms: C_1  and  C_2
REMARK    2  A    between atoms: C_2  and  C_3
REMARK    3  A    between atoms: C_3  and  O_4
REMARK    4  A    between atoms: C_3  and  C_5
REMARK    5  A    between atoms: C_7  and  C_8
REMARK    6  A    between atoms: C_8  and  C_9
REMARK    7  A    between atoms: N_17  and  C_18
REMARK    8  A    between atoms: C_18  and  C_19
REMARK    9  A    between atoms: C_19  and  C_20
REMARK   10  A    between atoms: C_20  and  N_21
REMARK   11  A    between atoms: N_24  and  C_25
REMARK   12  A    between atoms: C_29  and  C_30
REMARK   13  A    between atoms: C_30  and  C_31
REMARK                            x       y       z     vdW  Elec       q    Type
REMARK                         _______ _______ _______ _____ _____    ______ ____
ROOT
ATOM      1  C   UNL     1       4.239   5.352  18.672  0.00  0.00    +0.000 C 
ATOM      2  C   UNL     1       5.686   4.941  18.312  0.00  0.00    +0.000 C 
ATOM      3  C   UNL     1       6.130   5.163  16.851  0.00  0.00    +0.000 C 
ATOM      4  C   UNL     1       5.686   6.555  16.374  0.00  0.00    +0.000 C 
ATOM      5  C   UNL     1       4.259   6.926  16.781  0.00  0.00    +0.000 C 
ATOM      6  N   UNL     1       4.057   6.768  18.225  0.00  0.00    +0.000 NA
ENDROOT
BRANCH   1   7
ATOM      7  C   UNL     1       3.124   4.311  18.261  0.00  0.00    +0.000 C 
BRANCH   7   9
ATOM      8  C   UNL     1       2.504   1.796  18.329  0.00  0.00    +0.000 C 
ATOM      9  C   UNL     1       3.585   2.850  18.109  0.00  0.00    +0.000 C 
ENDBRANCH   7   9
BRANCH   7  10
ATOM     10  O   UNL     1       2.039   4.289  19.203  0.00  0.00    +0.000 OA
ATOM     11  H   UNL     1       1.588   3.432  19.119  0.00  0.00    +0.000 HD
ENDBRANCH   7  10
ENDBRANCH   1   7
BRANCH   3  12
ATOM     12  C   UNL     1       5.711   4.075  15.837  0.00  0.00    +0.000 C 
BRANCH  12  13
ATOM     13  C   UNL     1       6.203   4.194  14.409  0.00  0.00    +0.000 A 
ATOM     14  C   UNL     1       7.342   4.977  14.157  0.00  0.00    +0.000 A 
ATOM     15  C   UNL     1       7.859   5.102  12.865  0.00  0.00    +0.000 A 
ATOM     16  C   UNL     1       7.251   4.437  11.805  0.00  0.00    +0.000 A 
ATOM     17  C   UNL     1       6.140   3.632  12.042  0.00  0.00    +0.000 A 
ATOM     18  C   UNL     1       5.628   3.501  13.335  0.00  0.00    +0.000 A 
ENDBRANCH  12  13
ENDBRANCH   3  12
BRANCH   6  19
ATOM     19  C   UNL     1       2.773   7.322  18.667  0.00  0.00    +0.000 C 
BRANCH  19  20
ATOM     20  C   UNL     1       2.134   8.332  17.708  0.00  0.00    +0.000 C 
BRANCH  20  21
ATOM     21  C   UNL     1       1.403   9.370  18.549  0.00  0.00    +0.000 C 
BRANCH  21  22
ATOM     22  N   UNL     1       0.474  10.171  17.782  0.00  0.00    +0.000 N 
ATOM     23  C   UNL     1      -0.791  10.320  18.316  0.00  0.00    +0.000 C 
ATOM     24  O   UNL     1      -1.123   9.784  19.366  0.00  0.00    +0.000 OA
ATOM     25  N   UNL     1      -1.586  11.103  17.506  0.00  0.00    +0.000 N 
ATOM     26  H   UNL     1       0.841  10.996  17.337  0.00  0.00    +0.000 HD
ATOM     27  H   UNL     1      -1.305  11.140  16.539  0.00  0.00    +0.000 HD
BRANCH  25  28
ATOM     28  C   UNL     1      -2.907  11.491  17.818  0.00  0.00    +0.000 A 
ATOM     29  C   UNL     1      -3.968  11.331  16.925  0.00  0.00    +0.000 A 
ATOM     30  C   UNL     1      -5.245  11.775  17.260  0.00  0.00    +0.000 A 
ATOM     31  C   UNL     1      -5.476  12.374  18.496  0.00  0.00    +0.000 A 
ATOM     32  C   UNL     1      -4.432  12.520  19.416  0.00  0.00    +0.000 A 
ATOM     33  C   UNL     1      -3.149  12.059  19.072  0.00  0.00    +0.000 A 
BRANCH  32  34
ATOM     34  C   UNL     1      -4.610  13.160  20.755  0.00  0.00    +0.000 C 
ATOM     35  C   UNL     1      -3.894  12.632  21.974  0.00  0.00    +0.000 C 
ATOM     36  O   UNL     1      -5.366  14.127  20.860  0.00  0.00    +0.000 OA
ENDBRANCH  32  34
ENDBRANCH  25  28
ENDBRANCH  21  22
ENDBRANCH  20  21
ENDBRANCH  19  20
ENDBRANCH   6  19
TORSDOF 11
ENDMDL
MODEL 4
REMARK VINA RESULT:      -7.6      3.591     10.860
REMARK  Name = 
REMARK  13 active torsions:
REMARK  status: ('A' for Active; 'I' for Inactive)
REMARK    1  A    between atoms: C_1  and  C_2
REMARK    2  A    between atoms: C_2  and  C_3
REMARK    3  A    between atoms: C_3  and  O_4
REMARK    4  A    between atoms: C_3  and  C_5
REMARK    5  A    between atoms: C_7  and  C_8
REMARK    6  A    between atoms: C_8  and  C_9
REMARK    7  A    between atoms: N_17  and  C_18
REMARK    8  A    between atoms: C_18  and  C_19
REMARK    9  A    between atoms: C_19  and  C_20
REMARK   10  A    between atoms: C_20  and  N_21
REMARK   11  A    between atoms: N_24  and  C_25
REMARK   12  A    between atoms: C_29  and  C_30
REMARK   13  A    between atoms: C_30  and  C_31
REMARK                            x       y       z     vdW  Elec       q    Type
REMARK                         _______ _______ _______ _____ _____    ______ ____
ROOT
ATOM      1  C   UNL     1      -0.494  11.971  19.583  0.00  0.00    +0.000 C 
ATOM      2  C   UNL     1      -1.401  13.223  19.514  0.00  0.00    +0.000 C 
ATOM      3  C   UNL     1      -2.638  13.239  20.435  0.00  0.00    +0.000 C 
ATOM      4  C   UNL     1      -2.249  12.764  21.844  0.00  0.00    +0.000 C 
ATOM      5  C   UNL     1      -1.330  11.543  21.857  0.00  0.00    +0.000 C 
ATOM      6  N   UNL     1      -0.144  11.757  21.021  0.00  0.00    +0.000 NA
ENDROOT
BRANCH   1   7
ATOM      7  C   UNL     1      -1.014  10.722  18.769  0.00  0.00    +0.000 C 
BRANCH   7   9
ATOM      8  C   UNL     1      -2.166   9.852  16.617  0.00  0.00    +0.000 C 
ATOM      9  C   UNL     1      -1.905  11.029  17.552  0.00  0.00    +0.000 C 
ENDBRANCH   7   9
BRANCH   7  10
ATOM     10  O   UNL     1       0.069   9.916  18.274  0.00  0.00    +0.000 OA
ATOM     11  H   UNL     1      -0.027   9.025  18.650  0.00  0.00    +0.000 HD
ENDBRANCH   7  10
ENDBRANCH   1   7
BRANCH   3  12
ATOM     12  C   UNL     1      -3.881  12.476  19.921  0.00  0.00    +0.000 C 
BRANCH  12  13
ATOM     13  C   UNL     1      -5.226  12.786  20.546  0.00  0.00    +0.000 A 
ATOM     14  C   UNL     1      -5.474  14.101  20.978  0.00  0.00    +0.000 A 
ATOM     15  C   UNL     1      -6.705  14.454  21.537  0.00  0.00    +0.000 A 
ATOM     16  C   UNL     1      -7.712  13.502  21.662  0.00  0.00    +0.000 A 
ATOM     17  C   UNL     1      -7.493  12.203  21.210  0.00  0.00    +0.000 A 
ATOM     18  C   UNL     1      -6.264  11.852  20.644  0.00  0.00    +0.000 A 
ENDBRANCH  12  13
ENDBRANCH   3  12
BRANCH   6  19
ATOM     19  C   UNL     1       0.852  10.694  21.192  0.00  0.00    +0.000 C 
BRANCH  19  20
ATOM     20  C   UNL     1       0.576   9.720  22.342  0.00  0.00    +0.000 C 
BRANCH  20  21
ATOM     21  C   UNL     1       0.860   8.313  21.835  0.00  0.00    +0.000 C 
BRANCH  21  22
ATOM     22  N   UNL     1       1.491   8.293  20.534  0.00  0.00    +0.000 N 
ATOM     23  C   UNL     1       1.969   7.071  20.103  0.00  0.00    +0.000 C 
ATOM     24  O   UNL     1       1.891   6.061  20.791  0.00  0.00    +0.000 OA
ATOM     25  N   UNL     1       2.544   7.172  18.854  0.00  0.00    +0.000 N 
ATOM     26  H   UNL     1       1.071   8.857  19.812  0.00  0.00    +0.000 HD
ATOM     27  H   UNL     1       2.865   8.094  18.604  0.00  0.00    +0.000 HD
BRANCH  25  28
ATOM     28  C   UNL     1       3.059   6.080  18.121  0.00  0.00    +0.000 A 
ATOM     29  C   UNL     1       2.312   4.929  17.866  0.00  0.00    +0.000 A 
ATOM     30  C   UNL     1       2.880   3.857  17.181  0.00  0.00    +0.000 A 
ATOM     31  C   UNL     1       4.199   3.930  16.737  0.00  0.00    +0.000 A 
ATOM     32  C   UNL     1       4.956   5.085  16.960  0.00  0.00    +0.000 A 
ATOM     33  C   UNL     1       4.369   6.166  17.642  0.00  0.00    +0.000 A 
BRANCH  32  34
ATOM     34  C   UNL     1       6.377   5.227  16.518  0.00  0.00    +0.000 C 
ATOM     35  C   UNL     1       7.507   4.619  17.312  0.00  0.00    +0.000 C 
ATOM     36  O   UNL     1       6.623   5.864  15.492  0.00  0.00    +0.000 OA
ENDBRANCH  32  34
ENDBRANCH  25  28
ENDBRANCH  21  22
ENDBRANCH  20  21
ENDBRANCH  19  20
ENDBRANCH   6  19
TORSDOF 11
ENDMDL
MODEL 5
REMARK VINA RESULT:      -7.5      2.689      4.567
REMARK  Name = 
REMARK  13 active torsions:
REMARK  status: ('A' for Active; 'I' for Inactive)
REMARK    1  A    between atoms: C_1  and  C_2
REMARK    2  A    between atoms: C_2  and  C_3
REMARK    3  A    between atoms: C_3  and  O_4
REMARK    4  A    between atoms: C_3  and  C_5
REMARK    5  A    between atoms: C_7  and  C_8
REMARK    6  A    between atoms: C_8  and  C_9
REMARK    7  A    between atoms: N_17  and  C_18
REMARK    8  A    between atoms: C_18  and  C_19
REMARK    9  A    between atoms: C_19  and  C_20
REMARK   10  A    between atoms: C_20  and  N_21
REMARK   11  A    between atoms: N_24  and  C_25
REMARK   12  A    between atoms: C_29  and  C_30
REMARK   13  A    between atoms: C_30  and  C_31
REMARK                            x       y       z     vdW  Elec       q    Type
REMARK                         _______ _______ _______ _____ _____    ______ ____
ROOT
ATOM      1  C   UNL     1       4.858   5.107  19.296  0.00  0.00    +0.000 C 
ATOM      2  C   UNL     1       6.250   5.203  18.628  0.00  0.00    +0.000 C 
ATOM      3  C   UNL     1       6.276   5.423  17.102  0.00  0.00    +0.000 C 
ATOM      4  C   UNL     1       5.264   6.511  16.711  0.00  0.00    +0.000 C 
ATOM      5  C   UNL     1       3.915   6.389  17.420  0.00  0.00    +0.000 C 
ATOM      6  N   UNL     1       4.080   6.313  18.875  0.00  0.00    +0.000 NA
ENDROOT
BRANCH   1   7
ATOM      7  C   UNL     1       4.147   3.703  19.164  0.00  0.00    +0.000 C 
BRANCH   7   9
ATOM      8  C   UNL     1       1.943   2.866  18.089  0.00  0.00    +0.000 C 
ATOM      9  C   UNL     1       3.325   3.477  17.882  0.00  0.00    +0.000 C 
ENDBRANCH   7   9
BRANCH   7  10
ATOM     10  O   UNL     1       5.087   2.617  19.229  0.00  0.00    +0.000 OA
ATOM     11  H   UNL     1       5.901   2.900  18.780  0.00  0.00    +0.000 HD
ENDBRANCH   7  10
ENDBRANCH   1   7
BRANCH   3  12
ATOM     12  C   UNL     1       6.092   4.162  16.227  0.00  0.00    +0.000 C 
BRANCH  12  13
ATOM     13  C   UNL     1       6.488   4.235  14.766  0.00  0.00    +0.000 A 
ATOM     14  C   UNL     1       5.726   3.514  13.831  0.00  0.00    +0.000 A 
ATOM     15  C   UNL     1       6.025   3.563  12.467  0.00  0.00    +0.000 A 
ATOM     16  C   UNL     1       7.085   4.343  12.015  0.00  0.00    +0.000 A 
ATOM     17  C   UNL     1       7.831   5.087  12.925  0.00  0.00    +0.000 A 
ATOM     18  C   UNL     1       7.526   5.044  14.288  0.00  0.00    +0.000 A 
ENDBRANCH  12  13
ENDBRANCH   3  12
BRANCH   6  19
ATOM     19  C   UNL     1       2.800   6.416  19.583  0.00  0.00    +0.000 C 
BRANCH  19  20
ATOM     20  C   UNL     1       2.016   7.708  19.329  0.00  0.00    +0.000 C 
BRANCH  20  21
ATOM     21  C   UNL     1       1.464   8.184  20.665  0.00  0.00    +0.000 C 
BRANCH  21  22
ATOM     22  N   UNL     1       0.396   9.150  20.528  0.00  0.00    +0.000 N 
ATOM     23  C   UNL     1       0.287  10.091  21.533  0.00  0.00    +0.000 C 
ATOM     24  O   UNL     1       1.033  10.096  22.504  0.00  0.00    +0.000 OA
ATOM     25  N   UNL     1      -0.759  10.958  21.295  0.00  0.00    +0.000 N 
ATOM     26  H   UNL     1       0.214   9.503  19.602  0.00  0.00    +0.000 HD
ATOM     27  H   UNL     1      -1.481  10.600  20.691  0.00  0.00    +0.000 HD
BRANCH  25  28
ATOM     28  C   UNL     1      -1.076  12.067  22.109  0.00  0.00    +0.000 A 
ATOM     29  C   UNL     1      -2.146  12.058  23.007  0.00  0.00    +0.000 A 
ATOM     30  C   UNL     1      -2.450  13.194  23.752  0.00  0.00    +0.000 A 
ATOM     31  C   UNL     1      -1.682  14.349  23.615  0.00  0.00    +0.000 A 
ATOM     32  C   UNL     1      -0.591  14.370  22.739  0.00  0.00    +0.000 A 
ATOM     33  C   UNL     1      -0.285  13.214  22.000  0.00  0.00    +0.000 A 
BRANCH  32  34
ATOM     34  C   UNL     1       0.269  15.576  22.538  0.00  0.00    +0.000 C 
ATOM     35  C   UNL     1      -0.180  16.717  21.658  0.00  0.00    +0.000 C 
ATOM     36  O   UNL     1       1.367  15.627  23.093  0.00  0.00    +0.000 OA
ENDBRANCH  32  34
ENDBRANCH  25  28
ENDBRANCH  21  22
ENDBRANCH  20  21
ENDBRANCH  19  20
ENDBRANCH   6  19
TORSDOF 11
ENDMDL
MODEL 6
REMARK VINA RESULT:      -7.5      2.655      4.738
REMARK  Name = 
REMARK  13 active torsions:
REMARK  status: ('A' for Active; 'I' for Inactive)
REMARK    1  A    between atoms: C_1  and  C_2
REMARK    2  A    between atoms: C_2  and  C_3
REMARK    3  A    between atoms: C_3  and  O_4
REMARK    4  A    between atoms: C_3  and  C_5
REMARK    5  A    between atoms: C_7  and  C_8
REMARK    6  A    between atoms: C_8  and  C_9
REMARK    7  A    between atoms: N_17  and  C_18
REMARK    8  A    between atoms: C_18  and  C_19
REMARK    9  A    between atoms: C_19  and  C_20
REMARK   10  A    between atoms: C_20  and  N_21
REMARK   11  A    between atoms: N_24  and  C_25
REMARK   12  A    between atoms: C_29  and  C_30
REMARK   13  A    between atoms: C_30  and  C_31
REMARK                            x       y       z     vdW  Elec       q    Type
REMARK                         _______ _______ _______ _____ _____    ______ ____
ROOT
ATOM      1  C   UNL     1       3.829   4.644  18.921  0.00  0.00    +0.000 C 
ATOM      2  C   UNL     1       5.188   4.316  18.259  0.00  0.00    +0.000 C 
ATOM      3  C   UNL     1       5.494   5.012  16.916  0.00  0.00    +0.000 C 
ATOM      4  C   UNL     1       5.127   6.502  17.002  0.00  0.00    +0.000 C 
ATOM      5  C   UNL     1       3.790   6.774  17.691  0.00  0.00    +0.000 C 
ATOM      6  N   UNL     1       3.726   6.134  19.009  0.00  0.00    +0.000 NA
ENDROOT
BRANCH   1   7
ATOM      7  C   UNL     1       2.589   3.865  18.329  0.00  0.00    +0.000 C 
BRANCH   7   9
ATOM      8  C   UNL     1       3.405   1.419  18.589  0.00  0.00    +0.000 C 
ATOM      9  C   UNL     1       2.897   2.515  17.656  0.00  0.00    +0.000 C 
ENDBRANCH   7   9
BRANCH   7  10
ATOM     10  O   UNL     1       1.598   3.592  19.334  0.00  0.00    +0.000 OA
ATOM     11  H   UNL     1       0.724   3.755  18.943  0.00  0.00    +0.000 HD
ENDBRANCH   7  10
ENDBRANCH   1   7
BRANCH   3  12
ATOM     12  C   UNL     1       4.875   4.365  15.656  0.00  0.00    +0.000 C 
BRANCH  12  13
ATOM     13  C   UNL     1       5.705   4.319  14.389  0.00  0.00    +0.000 A 
ATOM     14  C   UNL     1       6.919   5.027  14.359  0.00  0.00    +0.000 A 
ATOM     15  C   UNL     1       7.740   5.000  13.229  0.00  0.00    +0.000 A 
ATOM     16  C   UNL     1       7.366   4.256  12.114  0.00  0.00    +0.000 A 
ATOM     17  C   UNL     1       6.182   3.524  12.139  0.00  0.00    +0.000 A 
ATOM     18  C   UNL     1       5.365   3.545  13.273  0.00  0.00    +0.000 A 
ENDBRANCH  12  13
ENDBRANCH   3  12
BRANCH   6  19
ATOM     19  C   UNL     1       2.550   6.560  19.775  0.00  0.00    +0.000 C 
BRANCH  19  20
ATOM     20  C   UNL     1       1.969   7.920  19.374  0.00  0.00    +0.000 C 
BRANCH  20  21
ATOM     21  C   UNL     1       1.293   8.514  20.602  0.00  0.00    +0.000 C 
BRANCH  21  22
ATOM     22  N   UNL     1       0.668   9.793  20.345  0.00  0.00    +0.000 N 
ATOM     23  C   UNL     1      -0.061  10.338  21.383  0.00  0.00    +0.000 C 
ATOM     24  O   UNL     1      -0.198   9.764  22.456  0.00  0.00    +0.000 OA
ATOM     25  N   UNL     1      -0.604  11.555  21.027  0.00  0.00    +0.000 N 
ATOM     26  H   UNL     1       1.198  10.461  19.809  0.00  0.00    +0.000 HD
ATOM     27  H   UNL     1      -0.721  11.696  20.037  0.00  0.00    +0.000 HD
BRANCH  25  28
ATOM     28  C   UNL     1      -1.343  12.385  21.899  0.00  0.00    +0.000 A 
ATOM     29  C   UNL     1      -0.732  13.268  22.791  0.00  0.00    +0.000 A 
ATOM     30  C   UNL     1      -1.502  14.031  23.665  0.00  0.00    +0.000 A 
ATOM     31  C   UNL     1      -2.892  13.925  23.650  0.00  0.00    +0.000 A 
ATOM     32  C   UNL     1      -3.524  13.065  22.746  0.00  0.00    +0.000 A 
ATOM     33  C   UNL     1      -2.738  12.308  21.859  0.00  0.00    +0.000 A 
BRANCH  32  34
ATOM     34  C   UNL     1      -5.008  12.897  22.682  0.00  0.00    +0.000 C 
ATOM     35  C   UNL     1      -5.855  12.954  23.930  0.00  0.00    +0.000 C 
ATOM     36  O   UNL     1      -5.540  12.697  21.590  0.00  0.00    +0.000 OA
ENDBRANCH  32  34
ENDBRANCH  25  28
ENDBRANCH  21  22
ENDBRANCH  20  21
ENDBRANCH  19  20
ENDBRANCH   6  19
TORSDOF 11
ENDMDL
MODEL 7
REMARK VINA RESULT:      -7.5      2.966      4.786
REMARK  Name = 
REMARK  13 active torsions:
REMARK  status: ('A' for Active; 'I' for Inactive)
REMARK    1  A    between atoms: C_1  and  C_2
REMARK    2  A    between atoms: C_2  and  C_3
REMARK    3  A    between atoms: C_3  and  O_4
REMARK    4  A    between atoms: C_3  and  C_5
REMARK    5  A    between atoms: C_7  and  C_8
REMARK    6  A    between atoms: C_8  and  C_9
REMARK    7  A    between atoms: N_17  and  C_18
REMARK    8  A    between atoms: C_18  and  C_19
REMARK    9  A    between atoms: C_19  and  C_20
REMARK   10  A    between atoms: C_20  and  N_21
REMARK   11  A    between atoms: N_24  and  C_25
REMARK   12  A    between atoms: C_29  and  C_30
REMARK   13  A    between atoms: C_30  and  C_31
REMARK                            x       y       z     vdW  Elec       q    Type
REMARK                         _______ _______ _______ _____ _____    ______ ____
ROOT
ATOM      1  C   UNL     1       4.203   5.415  18.826  0.00  0.00    +0.000 C 
ATOM      2  C   UNL     1       5.652   5.154  18.353  0.00  0.00    +0.000 C 
ATOM      3  C   UNL     1       5.950   5.391  16.858  0.00  0.00    +0.000 C 
ATOM      4  C   UNL     1       5.320   6.716  16.401  0.00  0.00    +0.000 C 
ATOM      5  C   UNL     1       3.899   6.940  16.920  0.00  0.00    +0.000 C 
ATOM      6  N   UNL     1       3.832   6.793  18.377  0.00  0.00    +0.000 NA
ENDROOT
BRANCH   1   7
ATOM      7  C   UNL     1       3.179   4.252  18.522  0.00  0.00    +0.000 C 
BRANCH   7   9
ATOM      8  C   UNL     1       2.913   1.783  17.783  0.00  0.00    +0.000 C 
ATOM      9  C   UNL     1       3.759   2.826  18.508  0.00  0.00    +0.000 C 
ENDBRANCH   7   9
BRANCH   7  10
ATOM     10  O   UNL     1       2.096   4.231  19.467  0.00  0.00    +0.000 OA
ATOM     11  H   UNL     1       1.364   3.727  19.072  0.00  0.00    +0.000 HD
ENDBRANCH   7  10
ENDBRANCH   1   7
BRANCH   3  12
ATOM     12  C   UNL     1       5.571   4.242  15.896  0.00  0.00    +0.000 C 
BRANCH  12  13
ATOM     13  C   UNL     1       6.118   4.275  14.483  0.00  0.00    +0.000 A 
ATOM     14  C   UNL     1       7.262   5.051  14.228  0.00  0.00    +0.000 A 
ATOM     15  C   UNL     1       7.828   5.100  12.951  0.00  0.00    +0.000 A 
ATOM     16  C   UNL     1       7.265   4.365  11.911  0.00  0.00    +0.000 A 
ATOM     17  C   UNL     1       6.150   3.568  12.155  0.00  0.00    +0.000 A 
ATOM     18  C   UNL     1       5.590   3.513  13.434  0.00  0.00    +0.000 A 
ENDBRANCH  12  13
ENDBRANCH   3  12
BRANCH   6  19
ATOM     19  C   UNL     1       2.535   7.216  18.916  0.00  0.00    +0.000 C 
BRANCH  19  20
ATOM     20  C   UNL     1       1.685   8.073  17.973  0.00  0.00    +0.000 C 
BRANCH  20  21
ATOM     21  C   UNL     1       2.053   9.530  18.215  0.00  0.00    +0.000 C 
BRANCH  21  22
ATOM     22  N   UNL     1       1.020  10.455  17.801  0.00  0.00    +0.000 N 
ATOM     23  C   UNL     1       0.002  10.681  18.706  0.00  0.00    +0.000 C 
ATOM     24  O   UNL     1      -0.045  10.113  19.790  0.00  0.00    +0.000 OA
ATOM     25  N   UNL     1      -0.919  11.578  18.208  0.00  0.00    +0.000 N 
ATOM     26  H   UNL     1       1.315  11.270  17.289  0.00  0.00    +0.000 HD
ATOM     27  H   UNL     1      -0.946  11.649  17.203  0.00  0.00    +0.000 HD
BRANCH  25  28
ATOM     28  C   UNL     1      -2.034  12.060  18.928  0.00  0.00    +0.000 A 
ATOM     29  C   UNL     1      -1.905  12.882  20.049  0.00  0.00    +0.000 A 
ATOM     30  C   UNL     1      -3.033  13.292  20.756  0.00  0.00    +0.000 A 
ATOM     31  C   UNL     1      -4.302  12.893  20.343  0.00  0.00    +0.000 A 
ATOM     32  C   UNL     1      -4.454  12.090  19.206  0.00  0.00    +0.000 A 
ATOM     33  C   UNL     1      -3.310  11.691  18.493  0.00  0.00    +0.000 A 
BRANCH  32  34
ATOM     34  C   UNL     1      -5.785  11.620  18.713  0.00  0.00    +0.000 C 
ATOM     35  C   UNL     1      -7.018  11.720  19.577  0.00  0.00    +0.000 C 
ATOM     36  O   UNL     1      -5.865  11.130  17.586  0.00  0.00    +0.000 OA
ENDBRANCH  32  34
ENDBRANCH  25  28
ENDBRANCH  21  22
ENDBRANCH  20  21
ENDBRANCH  19  20
ENDBRANCH   6  19
TORSDOF 11
ENDMDL
MODEL 8
REMARK VINA RESULT:      -7.5      3.266      8.010
REMARK  Name = 
REMARK  13 active torsions:
REMARK  status: ('A' for Active; 'I' for Inactive)
REMARK    1  A    between atoms: C_1  and  C_2
REMARK    2  A    between atoms: C_2  and  C_3
REMARK    3  A    between atoms: C_3  and  O_4
REMARK    4  A    between atoms: C_3  and  C_5
REMARK    5  A    between atoms: C_7  and  C_8
REMARK    6  A    between atoms: C_8  and  C_9
REMARK    7  A    between atoms: N_17  and  C_18
REMARK    8  A    between atoms: C_18  and  C_19
REMARK    9  A    between atoms: C_19  and  C_20
REMARK   10  A    between atoms: C_20  and  N_21
REMARK   11  A    between atoms: N_24  and  C_25
REMARK   12  A    between atoms: C_29  and  C_30
REMARK   13  A    between atoms: C_30  and  C_31
REMARK                            x       y       z     vdW  Elec       q    Type
REMARK                         _______ _______ _______ _____ _____    ______ ____
ROOT
ATOM      1  C   UNL     1       2.916   4.818  18.246  0.00  0.00    +0.000 C 
ATOM      2  C   UNL     1       1.705   5.776  18.149  0.00  0.00    +0.000 C 
ATOM      3  C   UNL     1       1.959   7.256  18.502  0.00  0.00    +0.000 C 
ATOM      4  C   UNL     1       3.256   7.739  17.834  0.00  0.00    +0.000 C 
ATOM      5  C   UNL     1       4.413   6.745  17.931  0.00  0.00    +0.000 C 
ATOM      6  N   UNL     1       4.022   5.420  17.439  0.00  0.00    +0.000 NA
ENDROOT
BRANCH   1   7
ATOM      7  C   UNL     1       3.267   4.325  19.705  0.00  0.00    +0.000 C 
BRANCH   7   9
ATOM      8  C   UNL     1       1.194   3.245  20.824  0.00  0.00    +0.000 C 
ATOM      9  C   UNL     1       2.140   4.440  20.747  0.00  0.00    +0.000 C 
ENDBRANCH   7   9
BRANCH   7  10
ATOM     10  O   UNL     1       3.683   2.950  19.720  0.00  0.00    +0.000 OA
ATOM     11  H   UNL     1       3.032   2.446  20.237  0.00  0.00    +0.000 HD
ENDBRANCH   7  10
ENDBRANCH   1   7
BRANCH   3  12
ATOM     12  C   UNL     1       1.950   7.611  20.006  0.00  0.00    +0.000 C 
BRANCH  12  13
ATOM     13  C   UNL     1       1.053   8.739  20.475  0.00  0.00    +0.000 A 
ATOM     14  C   UNL     1       0.758   8.832  21.846  0.00  0.00    +0.000 A 
ATOM     15  C   UNL     1      -0.041   9.866  22.341  0.00  0.00    +0.000 A 
ATOM     16  C   UNL     1      -0.548  10.830  21.475  0.00  0.00    +0.000 A 
ATOM     17  C   UNL     1      -0.240  10.769  20.119  0.00  0.00    +0.000 A 
ATOM     18  C   UNL     1       0.565   9.740  19.625  0.00  0.00    +0.000 A 
ENDBRANCH  12  13
ENDBRANCH   3  12
BRANCH   6  19
ATOM     19  C   UNL     1       5.170   4.514  17.318  0.00  0.00    +0.000 C 
BRANCH  19  20
ATOM     20  C   UNL     1       6.219   4.640  18.427  0.00  0.00    +0.000 C 
BRANCH  20  21
ATOM     21  C   UNL     1       7.494   5.185  17.798  0.00  0.00    +0.000 C 
BRANCH  21  22
ATOM     22  N   UNL     1       8.141   6.196  18.607  0.00  0.00    +0.000 N 
ATOM     23  C   UNL     1       8.089   7.489  18.126  0.00  0.00    +0.000 C 
ATOM     24  O   UNL     1       7.552   7.769  17.062  0.00  0.00    +0.000 OA
ATOM     25  N   UNL     1       8.731   8.364  18.977  0.00  0.00    +0.000 N 
ATOM     26  H   UNL     1       8.041   6.115  19.605  0.00  0.00    +0.000 HD
ATOM     27  H   UNL     1       9.424   7.945  19.577  0.00  0.00    +0.000 HD
BRANCH  25  28
ATOM     28  C   UNL     1       8.787   9.763  18.791  0.00  0.00    +0.000 A 
ATOM     29  C   UNL     1       8.313  10.386  17.635  0.00  0.00    +0.000 A 
ATOM     30  C   UNL     1       8.435  11.764  17.477  0.00  0.00    +0.000 A 
ATOM     31  C   UNL     1       9.023  12.535  18.477  0.00  0.00    +0.000 A 
ATOM     32  C   UNL     1       9.481  11.933  19.655  0.00  0.00    +0.000 A 
ATOM     33  C   UNL     1       9.343  10.542  19.809  0.00  0.00    +0.000 A 
BRANCH  32  34
ATOM     34  C   UNL     1      10.128  12.699  20.763  0.00  0.00    +0.000 C 
ATOM     35  C   UNL     1       9.456  12.849  22.106  0.00  0.00    +0.000 C 
ATOM     36  O   UNL     1      11.224  13.227  20.565  0.00  0.00    +0.000 OA
ENDBRANCH  32  34
ENDBRANCH  25  28
ENDBRANCH  21  22
ENDBRANCH  20  21
ENDBRANCH  19  20
ENDBRANCH   6  19
TORSDOF 11
ENDMDL
MODEL 9
REMARK VINA RESULT:      -7.5      3.544      4.957
REMARK  Name = 
REMARK  13 active torsions:
REMARK  status: ('A' for Active; 'I' for Inactive)
REMARK    1  A    between atoms: C_1  and  C_2
REMARK    2  A    between atoms: C_2  and  C_3
REMARK    3  A    between atoms: C_3  and  O_4
REMARK    4  A    between atoms: C_3  and  C_5
REMARK    5  A    between atoms: C_7  and  C_8
REMARK    6  A    between atoms: C_8  and  C_9
REMARK    7  A    between atoms: N_17  and  C_18
REMARK    8  A    between atoms: C_18  and  C_19
REMARK    9  A    between atoms: C_19  and  C_20
REMARK   10  A    between atoms: C_20  and  N_21
REMARK   11  A    between atoms: N_24  and  C_25
REMARK   12  A    between atoms: C_29  and  C_30
REMARK   13  A    between atoms: C_30  and  C_31
REMARK                            x       y       z     vdW  Elec       q    Type
REMARK                         _______ _______ _______ _____ _____    ______ ____
ROOT
ATOM      1  C   UNL     1       4.837   5.347  19.066  0.00  0.00    +0.000 C 
ATOM      2  C   UNL     1       6.265   5.488  18.486  0.00  0.00    +0.000 C 
ATOM      3  C   UNL     1       6.384   5.622  16.954  0.00  0.00    +0.000 C 
ATOM      4  C   UNL     1       5.342   6.624  16.433  0.00  0.00    +0.000 C 
ATOM      5  C   UNL     1       3.956   6.462  17.058  0.00  0.00    +0.000 C 
ATOM      6  N   UNL     1       4.025   6.480  18.523  0.00  0.00    +0.000 NA
ENDROOT
BRANCH   1   7
ATOM      7  C   UNL     1       4.216   3.898  18.974  0.00  0.00    +0.000 C 
BRANCH   7   9
ATOM      8  C   UNL     1       2.069   3.226  17.688  0.00  0.00    +0.000 C 
ATOM      9  C   UNL     1       3.564   3.526  17.630  0.00  0.00    +0.000 C 
ENDBRANCH   7   9
BRANCH   7  10
ATOM     10  O   UNL     1       5.194   2.878  19.237  0.00  0.00    +0.000 OA
ATOM     11  H   UNL     1       5.528   2.557  18.383  0.00  0.00    +0.000 HD
ENDBRANCH   7  10
ENDBRANCH   1   7
BRANCH   3  12
ATOM     12  C   UNL     1       6.331   4.305  16.147  0.00  0.00    +0.000 C 
BRANCH  12  13
ATOM     13  C   UNL     1       6.674   4.349  14.672  0.00  0.00    +0.000 A 
ATOM     14  C   UNL     1       5.959   3.515  13.795  0.00  0.00    +0.000 A 
ATOM     15  C   UNL     1       6.212   3.531  12.421  0.00  0.00    +0.000 A 
ATOM     16  C   UNL     1       7.176   4.390  11.900  0.00  0.00    +0.000 A 
ATOM     17  C   UNL     1       7.871   5.243  12.752  0.00  0.00    +0.000 A 
ATOM     18  C   UNL     1       7.612   5.233  14.125  0.00  0.00    +0.000 A 
ENDBRANCH  12  13
ENDBRANCH   3  12
BRANCH   6  19
ATOM     19  C   UNL     1       2.695   6.546  19.138  0.00  0.00    +0.000 C 
BRANCH  19  20
ATOM     20  C   UNL     1       2.202   7.957  19.474  0.00  0.00    +0.000 C 
BRANCH  20  21
ATOM     21  C   UNL     1       1.466   8.493  18.254  0.00  0.00    +0.000 C 
BRANCH  21  22
ATOM     22  N   UNL     1       2.068   9.689  17.706  0.00  0.00    +0.000 N 
ATOM     23  C   UNL     1       1.735  10.880  18.321  0.00  0.00    +0.000 C 
ATOM     24  O   UNL     1       0.951  10.932  19.261  0.00  0.00    +0.000 OA
ATOM     25  N   UNL     1       2.368  11.947  17.720  0.00  0.00    +0.000 N 
ATOM     26  H   UNL     1       3.029   9.624  17.413  0.00  0.00    +0.000 HD
ATOM     27  H   UNL     1       2.653  11.792  16.766  0.00  0.00    +0.000 HD
BRANCH  25  28
ATOM     28  C   UNL     1       2.279  13.284  18.167  0.00  0.00    +0.000 A 
ATOM     29  C   UNL     1       1.068  13.874  18.533  0.00  0.00    +0.000 A 
ATOM     30  C   UNL     1       1.024  15.210  18.921  0.00  0.00    +0.000 A 
ATOM     31  C   UNL     1       2.193  15.968  18.957  0.00  0.00    +0.000 A 
ATOM     32  C   UNL     1       3.421  15.388  18.619  0.00  0.00    +0.000 A 
ATOM     33  C   UNL     1       3.456  14.035  18.239  0.00  0.00    +0.000 A 
BRANCH  32  34
ATOM     34  C   UNL     1       4.709  16.145  18.628  0.00  0.00    +0.000 C 
ATOM     35  C   UNL     1       6.027  15.447  18.397  0.00  0.00    +0.000 C 
ATOM     36  O   UNL     1       4.689  17.358  18.844  0.00  0.00    +0.000 OA
ENDBRANCH  32  34
ENDBRANCH  25  28
ENDBRANCH  21  22
ENDBRANCH  20  21
ENDBRANCH  19  20
ENDBRANCH   6  19
TORSDOF 11
ENDMDL
