MODEL 1
REMARK VINA RESULT:      -6.9      0.000      0.000
REMARK  Name = 
REMARK  5 active torsions:
REMARK  status: ('A' for Active; 'I' for Inactive)
REMARK    1  A    between atoms: C_1  and  O_2
REMARK    2  A    between atoms: O_2  and  C_3
REMARK    3  A    between atoms: C_7  and  N_8
REMARK    4  A    between atoms: C_12  and  C_14
REMARK    5  A    between atoms: C_22  and  C_23
REMARK                            x       y       z     vdW  Elec       q    Type
REMARK                         _______ _______ _______ _____ _____    ______ ____
ROOT
ATOM      1  N   UNL     1       0.671   9.743  20.265  0.00  0.00    +0.000 N 
ATOM      2  C   UNL     1      -0.185   9.269  21.353  0.00  0.00    +0.000 C 
ATOM      3  C   UNL     1      -0.069  10.273  22.520  0.00  0.00    +0.000 C 
ATOM      4  N   UNL     1      -0.454  11.652  22.110  0.00  0.00    +0.000 N 
ATOM      5  C   UNL     1      -1.726  12.023  22.581  0.00  0.00    +0.000 C 
ATOM      6  O   UNL     1      -2.330  11.395  23.449  0.00  0.00    +0.000 OA
ATOM      7  C   UNL     1       0.419  12.206  20.928  0.00  0.00    +0.000 C 
ATOM      8  C   UNL     1       0.383  11.118  19.755  0.00  0.00    +0.000 C 
ENDROOT
BRANCH   5   9
ATOM      9  C   UNL     1      -2.376  13.222  21.959  0.00  0.00    +0.000 C 
ATOM     10  C   UNL     1      -2.758  14.342  22.907  0.00  0.00    +0.000 C 
ATOM     11  C   UNL     1      -4.193  14.740  23.084  0.00  0.00    +0.000 C 
ATOM     12  S   UNL     1      -5.401  14.070  21.979  0.00  0.00    +0.000 S 
ATOM     13  O   UNL     1      -6.527  13.618  22.789  0.00  0.00    +0.000 OA
ATOM     14  O   UNL     1      -5.595  15.041  20.920  0.00  0.00    +0.000 OA
ATOM     15  C   UNL     1      -4.728  12.631  21.226  0.00  0.00    +0.000 C 
ATOM     16  C   UNL     1      -3.287  12.785  20.838  0.00  0.00    +0.000 C 
ENDBRANCH   5   9
BRANCH   1  21
ATOM     17  C   UNL     1       2.567   6.651  19.526  0.00  0.00    +0.000 A 
ATOM     18  C   UNL     1       2.956   6.858  18.203  0.00  0.00    +0.000 A 
ATOM     19  C   UNL     1       2.582   8.029  17.547  0.00  0.00    +0.000 A 
ATOM     20  C   UNL     1       1.831   8.999  18.226  0.00  0.00    +0.000 A 
ATOM     21  C   UNL     1       1.458   8.836  19.573  0.00  0.00    +0.000 A 
ATOM     22  C   UNL     1       1.834   7.641  20.192  0.00  0.00    +0.000 A 
BRANCH  17  24
ATOM     23  C   UNL     1       1.942   4.753  20.803  0.00  0.00    +0.000 C 
ATOM     24  O   UNL     1       2.947   5.448  20.070  0.00  0.00    +0.000 OA
ENDBRANCH  17  24
ENDBRANCH   1  21
BRANCH   7  25
ATOM     25  C   UNL     1       0.351  13.743  20.521  0.00  0.00    +0.000 A 
ATOM     26  C   UNL     1       0.719  14.789  21.418  0.00  0.00    +0.000 A 
ATOM     27  C   UNL     1       0.430  16.152  21.163  0.00  0.00    +0.000 A 
ATOM     28  C   UNL     1       0.002  16.553  19.909  0.00  0.00    +0.000 A 
ATOM     29  C   UNL     1      -0.196  15.581  18.940  0.00  0.00    +0.000 A 
ATOM     30  C   UNL     1      -0.057  14.197  19.246  0.00  0.00    +0.000 A 
ENDBRANCH   7  25
TORSDOF 4
ENDMDL
MODEL 2
REMARK VINA RESULT:      -6.7      0.624      1.069
REMARK  Name = 
REMARK  5 active torsions:
REMARK  status: ('A' for Active; 'I' for Inactive)
REMARK    1  A    between atoms: C_1  and  O_2
REMARK    2  A    between atoms: O_2  and  C_3
REMARK    3  A    between atoms: C_7  and  N_8
REMARK    4  A    between atoms: C_12  and  C_14
REMARK    5  A    between atoms: C_22  and  C_23
REMARK                            x       y       z     vdW  Elec       q    Type
REMARK                         _______ _______ _______ _____ _____    ______ ____
ROOT
ATOM      1  N   UNL     1       0.826   9.458  20.368  0.00  0.00    +0.000 N 
ATOM      2  C   UNL     1      -0.126   9.034  21.396  0.00  0.00    +0.000 C 
ATOM      3  C   UNL     1      -0.014  10.018  22.580  0.00  0.00    +0.000 C 
ATOM      4  N   UNL     1      -0.279  11.424  22.165  0.00  0.00    +0.000 N 
ATOM      5  C   UNL     1      -1.549  11.876  22.562  0.00  0.00    +0.000 C 
ATOM      6  O   UNL     1      -2.246  11.283  23.384  0.00  0.00    +0.000 OA
ATOM      7  C   UNL     1       0.701  11.927  21.046  0.00  0.00    +0.000 C 
ATOM      8  C   UNL     1       0.664  10.853  19.859  0.00  0.00    +0.000 C 
ENDROOT
BRANCH   5   9
ATOM      9  C   UNL     1      -2.077  13.122  21.918  0.00  0.00    +0.000 C 
ATOM     10  C   UNL     1      -2.343  14.293  22.843  0.00  0.00    +0.000 C 
ATOM     11  C   UNL     1      -3.730  14.837  23.013  0.00  0.00    +0.000 C 
ATOM     12  S   UNL     1      -5.002  14.269  21.922  0.00  0.00    +0.000 S 
ATOM     13  O   UNL     1      -6.166  13.949  22.741  0.00  0.00    +0.000 OA
ATOM     14  O   UNL     1      -5.100  15.235  20.844  0.00  0.00    +0.000 OA
ATOM     15  C   UNL     1      -4.479  12.756  21.196  0.00  0.00    +0.000 C 
ATOM     16  C   UNL     1      -3.030  12.757  20.806  0.00  0.00    +0.000 C 
ENDBRANCH   5   9
BRANCH   1  21
ATOM     17  C   UNL     1       2.597   6.271  19.731  0.00  0.00    +0.000 A 
ATOM     18  C   UNL     1       3.037   6.441  18.419  0.00  0.00    +0.000 A 
ATOM     19  C   UNL     1       2.741   7.618  17.736  0.00  0.00    +0.000 A 
ATOM     20  C   UNL     1       2.015   8.632  18.377  0.00  0.00    +0.000 A 
ATOM     21  C   UNL     1       1.592   8.505  19.713  0.00  0.00    +0.000 A 
ATOM     22  C   UNL     1       1.890   7.303  20.360  0.00  0.00    +0.000 A 
BRANCH  17  24
ATOM     23  C   UNL     1       3.308   4.033  19.401  0.00  0.00    +0.000 C 
ATOM     24  O   UNL     1       2.902   5.059  20.302  0.00  0.00    +0.000 OA
ENDBRANCH  17  24
ENDBRANCH   1  21
BRANCH   7  25
ATOM     25  C   UNL     1       0.762  13.468  20.655  0.00  0.00    +0.000 A 
ATOM     26  C   UNL     1       0.331  13.952  19.384  0.00  0.00    +0.000 A 
ATOM     27  C   UNL     1       0.608  15.266  18.932  0.00  0.00    +0.000 A 
ATOM     28  C   UNL     1       1.091  16.221  19.811  0.00  0.00    +0.000 A 
ATOM     29  C   UNL     1       1.354  15.837  21.118  0.00  0.00    +0.000 A 
ATOM     30  C   UNL     1       1.224  14.479  21.527  0.00  0.00    +0.000 A 
ENDBRANCH   7  25
TORSDOF 4
ENDMDL
MODEL 3
REMARK VINA RESULT:      -6.7      3.349      5.213
REMARK  Name = 
REMARK  5 active torsions:
REMARK  status: ('A' for Active; 'I' for Inactive)
REMARK    1  A    between atoms: C_1  and  O_2
REMARK    2  A    between atoms: O_2  and  C_3
REMARK    3  A    between atoms: C_7  and  N_8
REMARK    4  A    between atoms: C_12  and  C_14
REMARK    5  A    between atoms: C_22  and  C_23
REMARK                            x       y       z     vdW  Elec       q    Type
REMARK                         _______ _______ _______ _____ _____    ______ ____
ROOT
ATOM      1  N   UNL     1       1.952   8.139  19.501  0.00  0.00    +0.000 N 
ATOM      2  C   UNL     1       2.695   8.866  18.471  0.00  0.00    +0.000 C 
ATOM      3  C   UNL     1       1.712   9.823  17.763  0.00  0.00    +0.000 C 
ATOM      4  N   UNL     1       1.071  10.770  18.717  0.00  0.00    +0.000 N 
ATOM      5  C   UNL     1       1.606  12.068  18.634  0.00  0.00    +0.000 C 
ATOM      6  O   UNL     1       2.321  12.442  17.705  0.00  0.00    +0.000 OA
ATOM      7  C   UNL     1       0.275  10.045  19.859  0.00  0.00    +0.000 C 
ATOM      8  C   UNL     1       1.264   8.978  20.528  0.00  0.00    +0.000 C 
ENDROOT
BRANCH   5   9
ATOM      9  C   UNL     1       1.309  13.016  19.757  0.00  0.00    +0.000 C 
ATOM     10  C   UNL     1       0.479  14.234  19.402  0.00  0.00    +0.000 C 
ATOM     11  C   UNL     1       1.045  15.615  19.544  0.00  0.00    +0.000 C 
ATOM     12  S   UNL     1       2.593  15.815  20.378  0.00  0.00    +0.000 S 
ATOM     13  O   UNL     1       3.413  16.706  19.564  0.00  0.00    +0.000 OA
ATOM     14  O   UNL     1       2.292  16.143  21.759  0.00  0.00    +0.000 OA
ATOM     15  C   UNL     1       3.420  14.264  20.397  0.00  0.00    +0.000 C 
ATOM     16  C   UNL     1       2.504  13.109  20.675  0.00  0.00    +0.000 C 
ENDBRANCH   5   9
BRANCH   1  21
ATOM     17  C   UNL     1       3.398   4.770  18.994  0.00  0.00    +0.000 A 
ATOM     18  C   UNL     1       2.773   4.032  19.998  0.00  0.00    +0.000 A 
ATOM     19  C   UNL     1       1.868   4.655  20.855  0.00  0.00    +0.000 A 
ATOM     20  C   UNL     1       1.580   6.018  20.692  0.00  0.00    +0.000 A 
ATOM     21  C   UNL     1       2.166   6.779  19.664  0.00  0.00    +0.000 A 
ATOM     22  C   UNL     1       3.083   6.126  18.837  0.00  0.00    +0.000 A 
BRANCH  17  24
ATOM     23  C   UNL     1       5.666   4.478  18.364  0.00  0.00    +0.000 C 
ATOM     24  O   UNL     1       4.305   4.076  18.231  0.00  0.00    +0.000 OA
ENDBRANCH  17  24
ENDBRANCH   1  21
BRANCH   7  25
ATOM     25  C   UNL     1      -0.696  10.865  20.818  0.00  0.00    +0.000 A 
ATOM     26  C   UNL     1      -1.799  11.620  20.323  0.00  0.00    +0.000 A 
ATOM     27  C   UNL     1      -2.513  12.546  21.124  0.00  0.00    +0.000 A 
ATOM     28  C   UNL     1      -2.330  12.569  22.496  0.00  0.00    +0.000 A 
ATOM     29  C   UNL     1      -1.389  11.713  23.048  0.00  0.00    +0.000 A 
ATOM     30  C   UNL     1      -0.561  10.898  22.224  0.00  0.00    +0.000 A 
ENDBRANCH   7  25
TORSDOF 4
ENDMDL
MODEL 4
REMARK VINA RESULT:      -6.7      3.326      5.098
REMARK  Name = 
REMARK  5 active torsions:
REMARK  status: ('A' for Active; 'I' for Inactive)
REMARK    1  A    between atoms: C_1  and  O_2
REMARK    2  A    between atoms: O_2  and  C_3
REMARK    3  A    between atoms: C_7  and  N_8
REMARK    4  A    between atoms: C_12  and  C_14
REMARK    5  A    between atoms: C_22  and  C_23
REMARK                            x       y       z     vdW  Elec       q    Type
REMARK                         _______ _______ _______ _____ _____    ______ ____
ROOT
ATOM      1  N   UNL     1       1.959   8.166  19.231  0.00  0.00    +0.000 N 
ATOM      2  C   UNL     1       2.688   8.982  18.259  0.00  0.00    +0.000 C 
ATOM      3  C   UNL     1       1.698  10.001  17.658  0.00  0.00    +0.000 C 
ATOM      4  N   UNL     1       1.077  10.860  18.704  0.00  0.00    +0.000 N 
ATOM      5  C   UNL     1       1.616  12.158  18.731  0.00  0.00    +0.000 C 
ATOM      6  O   UNL     1       2.317  12.613  17.828  0.00  0.00    +0.000 OA
ATOM      7  C   UNL     1       0.297  10.037  19.790  0.00  0.00    +0.000 C 
ATOM      8  C   UNL     1       1.292   8.910  20.342  0.00  0.00    +0.000 C 
ENDROOT
BRANCH   5   9
ATOM      9  C   UNL     1       1.342  13.001  19.940  0.00  0.00    +0.000 C 
ATOM     10  C   UNL     1       0.475  14.225  19.720  0.00  0.00    +0.000 C 
ATOM     11  C   UNL     1       1.018  15.602  19.958  0.00  0.00    +0.000 C 
ATOM     12  S   UNL     1       2.591  15.768  20.751  0.00  0.00    +0.000 S 
ATOM     13  O   UNL     1       3.361  16.743  19.987  0.00  0.00    +0.000 OA
ATOM     14  O   UNL     1       2.335  15.971  22.164  0.00  0.00    +0.000 OA
ATOM     15  C   UNL     1       3.449  14.241  20.608  0.00  0.00    +0.000 C 
ATOM     16  C   UNL     1       2.568  13.045  20.819  0.00  0.00    +0.000 C 
ENDBRANCH   5   9
BRANCH   1  21
ATOM     17  C   UNL     1       2.129   4.717  20.561  0.00  0.00    +0.000 A 
ATOM     18  C   UNL     1       2.449   3.981  19.420  0.00  0.00    +0.000 A 
ATOM     19  C   UNL     1       2.605   4.631  18.198  0.00  0.00    +0.000 A 
ATOM     20  C   UNL     1       2.454   6.023  18.125  0.00  0.00    +0.000 A 
ATOM     21  C   UNL     1       2.170   6.796  19.267  0.00  0.00    +0.000 A 
ATOM     22  C   UNL     1       2.002   6.108  20.471  0.00  0.00    +0.000 A 
BRANCH  17  24
ATOM     23  C   UNL     1       1.904   2.566  21.534  0.00  0.00    +0.000 C 
ATOM     24  O   UNL     1       1.954   3.979  21.707  0.00  0.00    +0.000 OA
ENDBRANCH  17  24
ENDBRANCH   1  21
BRANCH   7  25
ATOM     25  C   UNL     1      -0.654  10.768  20.835  0.00  0.00    +0.000 A 
ATOM     26  C   UNL     1      -1.752  11.583  20.429  0.00  0.00    +0.000 A 
ATOM     27  C   UNL     1      -2.446  12.433  21.326  0.00  0.00    +0.000 A 
ATOM     28  C   UNL     1      -2.251  12.316  22.692  0.00  0.00    +0.000 A 
ATOM     29  C   UNL     1      -1.315  11.398  23.146  0.00  0.00    +0.000 A 
ATOM     30  C   UNL     1      -0.507  10.659  22.236  0.00  0.00    +0.000 A 
ENDBRANCH   7  25
TORSDOF 4
ENDMDL
MODEL 5
REMARK VINA RESULT:      -6.6      3.523      7.676
REMARK  Name = 
REMARK  5 active torsions:
REMARK  status: ('A' for Active; 'I' for Inactive)
REMARK    1  A    between atoms: C_1  and  O_2
REMARK    2  A    between atoms: O_2  and  C_3
REMARK    3  A    between atoms: C_7  and  N_8
REMARK    4  A    between atoms: C_12  and  C_14
REMARK    5  A    between atoms: C_22  and  C_23
REMARK                            x       y       z     vdW  Elec       q    Type
REMARK                         _______ _______ _______ _____ _____    ______ ____
ROOT
ATOM      1  N   UNL     1      -3.515  13.287  22.297  0.00  0.00    +0.000 N 
ATOM      2  C   UNL     1      -2.794  14.343  23.008  0.00  0.00    +0.000 C 
ATOM      3  C   UNL     1      -1.432  13.771  23.453  0.00  0.00    +0.000 C 
ATOM      4  N   UNL     1      -0.632  13.274  22.299  0.00  0.00    +0.000 N 
ATOM      5  C   UNL     1       0.415  14.145  21.950  0.00  0.00    +0.000 C 
ATOM      6  O   UNL     1       0.794  15.064  22.674  0.00  0.00    +0.000 OA
ATOM      7  C   UNL     1      -1.365  12.151  21.483  0.00  0.00    +0.000 C 
ATOM      8  C   UNL     1      -2.820  12.704  21.109  0.00  0.00    +0.000 C 
ENDROOT
BRANCH   5   9
ATOM      9  C   UNL     1       1.066  13.950  20.614  0.00  0.00    +0.000 C 
ATOM     10  C   UNL     1       2.563  13.708  20.627  0.00  0.00    +0.000 C 
ATOM     11  C   UNL     1       3.501  14.675  19.970  0.00  0.00    +0.000 C 
ATOM     12  S   UNL     1       2.824  15.956  18.954  0.00  0.00    +0.000 S 
ATOM     13  O   UNL     1       3.485  17.202  19.328  0.00  0.00    +0.000 OA
ATOM     14  O   UNL     1       2.866  15.480  17.585  0.00  0.00    +0.000 OA
ATOM     15  C   UNL     1       1.127  16.156  19.367  0.00  0.00    +0.000 C 
ATOM     16  C   UNL     1       0.417  14.854  19.594  0.00  0.00    +0.000 C 
ENDBRANCH   5   9
BRANCH   1  21
ATOM     17  C   UNL     1      -7.022  12.229  21.766  0.00  0.00    +0.000 A 
ATOM     18  C   UNL     1      -7.611  12.555  22.987  0.00  0.00    +0.000 A 
ATOM     19  C   UNL     1      -6.841  13.124  23.998  0.00  0.00    +0.000 A 
ATOM     20  C   UNL     1      -5.480  13.381  23.776  0.00  0.00    +0.000 A 
ATOM     21  C   UNL     1      -4.867  13.100  22.542  0.00  0.00    +0.000 A 
ATOM     22  C   UNL     1      -5.666  12.512  21.558  0.00  0.00    +0.000 A 
BRANCH  17  24
ATOM     23  C   UNL     1      -7.323  10.496  20.176  0.00  0.00    +0.000 C 
ATOM     24  O   UNL     1      -7.854  11.632  20.851  0.00  0.00    +0.000 OA
ENDBRANCH  17  24
ENDBRANCH   1  21
BRANCH   7  25
ATOM     25  C   UNL     1      -0.585  11.305  20.385  0.00  0.00    +0.000 A 
ATOM     26  C   UNL     1      -0.964  11.302  19.010  0.00  0.00    +0.000 A 
ATOM     27  C   UNL     1      -0.445  10.372  18.076  0.00  0.00    +0.000 A 
ATOM     28  C   UNL     1       0.648   9.587  18.404  0.00  0.00    +0.000 A 
ATOM     29  C   UNL     1       1.170   9.691  19.685  0.00  0.00    +0.000 A 
ATOM     30  C   UNL     1       0.548  10.509  20.670  0.00  0.00    +0.000 A 
ENDBRANCH   7  25
TORSDOF 4
ENDMDL
MODEL 6
REMARK VINA RESULT:      -6.6      3.398      5.177
REMARK  Name = 
REMARK  5 active torsions:
REMARK  status: ('A' for Active; 'I' for Inactive)
REMARK    1  A    between atoms: C_1  and  O_2
REMARK    2  A    between atoms: O_2  and  C_3
REMARK    3  A    between atoms: C_7  and  N_8
REMARK    4  A    between atoms: C_12  and  C_14
REMARK    5  A    between atoms: C_22  and  C_23
REMARK                            x       y       z     vdW  Elec       q    Type
REMARK                         _______ _______ _______ _____ _____    ______ ____
ROOT
ATOM      1  N   UNL     1       1.817   8.220  19.418  0.00  0.00    +0.000 N 
ATOM      2  C   UNL     1       2.597   8.941  18.412  0.00  0.00    +0.000 C 
ATOM      3  C   UNL     1       1.663   9.960  17.727  0.00  0.00    +0.000 C 
ATOM      4  N   UNL     1       1.060  10.909  18.705  0.00  0.00    +0.000 N 
ATOM      5  C   UNL     1       1.654  12.183  18.661  0.00  0.00    +0.000 C 
ATOM      6  O   UNL     1       2.390  12.550  17.745  0.00  0.00    +0.000 OA
ATOM      7  C   UNL     1       0.227  10.190  19.824  0.00  0.00    +0.000 C 
ATOM      8  C   UNL     1       1.162   9.061  20.466  0.00  0.00    +0.000 C 
ENDROOT
BRANCH   5   9
ATOM      9  C   UNL     1       1.395  13.112  19.808  0.00  0.00    +0.000 C 
ATOM     10  C   UNL     1       0.546  14.330  19.504  0.00  0.00    +0.000 C 
ATOM     11  C   UNL     1       1.109  15.713  19.645  0.00  0.00    +0.000 C 
ATOM     12  S   UNL     1       2.686  15.909  20.423  0.00  0.00    +0.000 S 
ATOM     13  O   UNL     1       3.469  16.817  19.593  0.00  0.00    +0.000 OA
ATOM     14  O   UNL     1       2.437  16.214  21.819  0.00  0.00    +0.000 OA
ATOM     15  C   UNL     1       3.522  14.363  20.387  0.00  0.00    +0.000 C 
ATOM     16  C   UNL     1       2.624  13.198  20.681  0.00  0.00    +0.000 C 
ENDBRANCH   5   9
BRANCH   1  21
ATOM     17  C   UNL     1       2.779   4.746  18.582  0.00  0.00    +0.000 A 
ATOM     18  C   UNL     1       2.440   4.062  19.749  0.00  0.00    +0.000 A 
ATOM     19  C   UNL     1       1.893   4.757  20.825  0.00  0.00    +0.000 A 
ATOM     20  C   UNL     1       1.672   6.138  20.722  0.00  0.00    +0.000 A 
ATOM     21  C   UNL     1       1.968   6.848  19.544  0.00  0.00    +0.000 A 
ATOM     22  C   UNL     1       2.533   6.121  18.493  0.00  0.00    +0.000 A 
BRANCH  17  24
ATOM     23  C   UNL     1       3.060   2.586  17.644  0.00  0.00    +0.000 C 
ATOM     24  O   UNL     1       3.352   3.980  17.596  0.00  0.00    +0.000 OA
ENDBRANCH  17  24
ENDBRANCH   1  21
BRANCH   7  25
ATOM     25  C   UNL     1      -0.711  11.026  20.801  0.00  0.00    +0.000 A 
ATOM     26  C   UNL     1      -0.512  11.053  22.213  0.00  0.00    +0.000 A 
ATOM     27  C   UNL     1      -1.474  11.579  23.110  0.00  0.00    +0.000 A 
ATOM     28  C   UNL     1      -2.539  12.324  22.635  0.00  0.00    +0.000 A 
ATOM     29  C   UNL     1      -2.671  12.481  21.263  0.00  0.00    +0.000 A 
ATOM     30  C   UNL     1      -1.794  11.818  20.358  0.00  0.00    +0.000 A 
ENDBRANCH   7  25
TORSDOF 4
ENDMDL
MODEL 7
REMARK VINA RESULT:      -6.5      1.084      1.631
REMARK  Name = 
REMARK  5 active torsions:
REMARK  status: ('A' for Active; 'I' for Inactive)
REMARK    1  A    between atoms: C_1  and  O_2
REMARK    2  A    between atoms: O_2  and  C_3
REMARK    3  A    between atoms: C_7  and  N_8
REMARK    4  A    between atoms: C_12  and  C_14
REMARK    5  A    between atoms: C_22  and  C_23
REMARK                            x       y       z     vdW  Elec       q    Type
REMARK                         _______ _______ _______ _____ _____    ______ ____
ROOT
ATOM      1  N   UNL     1       0.729   9.090  20.632  0.00  0.00    +0.000 N 
ATOM      2  C   UNL     1      -0.259   8.832  21.680  0.00  0.00    +0.000 C 
ATOM      3  C   UNL     1      -0.098   9.920  22.763  0.00  0.00    +0.000 C 
ATOM      4  N   UNL     1      -0.268  11.291  22.205  0.00  0.00    +0.000 N 
ATOM      5  C   UNL     1      -1.511  11.860  22.534  0.00  0.00    +0.000 C 
ATOM      6  O   UNL     1      -2.253  11.397  23.399  0.00  0.00    +0.000 OA
ATOM      7  C   UNL     1       0.754  11.618  21.059  0.00  0.00    +0.000 C 
ATOM      8  C   UNL     1       0.662  10.435  19.984  0.00  0.00    +0.000 C 
ENDROOT
BRANCH   5   9
ATOM      9  C   UNL     1      -1.951  13.065  21.760  0.00  0.00    +0.000 C 
ATOM     10  C   UNL     1      -2.104  14.349  22.551  0.00  0.00    +0.000 C 
ATOM     11  C   UNL     1      -3.440  15.020  22.675  0.00  0.00    +0.000 C 
ATOM     12  S   UNL     1      -4.775  14.440  21.669  0.00  0.00    +0.000 S 
ATOM     13  O   UNL     1      -5.943  14.308  22.533  0.00  0.00    +0.000 OA
ATOM     14  O   UNL     1      -4.818  15.285  20.491  0.00  0.00    +0.000 OA
ATOM     15  C   UNL     1      -4.389  12.818  21.112  0.00  0.00    +0.000 C 
ATOM     16  C   UNL     1      -2.953  12.657  20.707  0.00  0.00    +0.000 C 
ENDBRANCH   5   9
BRANCH   1  21
ATOM     17  C   UNL     1       2.960   7.219  18.348  0.00  0.00    +0.000 A 
ATOM     18  C   UNL     1       3.027   5.970  18.965  0.00  0.00    +0.000 A 
ATOM     19  C   UNL     1       2.332   5.746  20.152  0.00  0.00    +0.000 A 
ATOM     20  C   UNL     1       1.556   6.773  20.710  0.00  0.00    +0.000 A 
ATOM     21  C   UNL     1       1.439   8.030  20.089  0.00  0.00    +0.000 A 
ATOM     22  C   UNL     1       2.165   8.225  18.911  0.00  0.00    +0.000 A 
BRANCH  17  24
ATOM     23  C   UNL     1       4.650   6.307  16.956  0.00  0.00    +0.000 C 
ATOM     24  O   UNL     1       3.715   7.352  17.208  0.00  0.00    +0.000 OA
ENDBRANCH  17  24
ENDBRANCH   1  21
BRANCH   7  25
ATOM     25  C   UNL     1       0.917  13.105  20.518  0.00  0.00    +0.000 A 
ATOM     26  C   UNL     1       1.507  14.142  21.299  0.00  0.00    +0.000 A 
ATOM     27  C   UNL     1       1.433  15.510  20.935  0.00  0.00    +0.000 A 
ATOM     28  C   UNL     1       1.004  15.874  19.670  0.00  0.00    +0.000 A 
ATOM     29  C   UNL     1       0.590  14.874  18.803  0.00  0.00    +0.000 A 
ATOM     30  C   UNL     1       0.515  13.516  19.226  0.00  0.00    +0.000 A 
ENDBRANCH   7  25
TORSDOF 4
ENDMDL
MODEL 8
REMARK VINA RESULT:      -6.1      3.680      8.244
REMARK  Name = 
REMARK  5 active torsions:
REMARK  status: ('A' for Active; 'I' for Inactive)
REMARK    1  A    between atoms: C_1  and  O_2
REMARK    2  A    between atoms: O_2  and  C_3
REMARK    3  A    between atoms: C_7  and  N_8
REMARK    4  A    between atoms: C_12  and  C_14
REMARK    5  A    between atoms: C_22  and  C_23
REMARK                            x       y       z     vdW  Elec       q    Type
REMARK                         _______ _______ _______ _____ _____    ______ ____
ROOT
ATOM      1  N   UNL     1      -3.693  14.674  22.689  0.00  0.00    +0.000 N 
ATOM      2  C   UNL     1      -2.696  15.515  23.354  0.00  0.00    +0.000 C 
ATOM      3  C   UNL     1      -1.493  14.622  23.724  0.00  0.00    +0.000 C 
ATOM      4  N   UNL     1      -0.905  13.954  22.529  0.00  0.00    +0.000 N 
ATOM      5  C   UNL     1       0.302  14.544  22.117  0.00  0.00    +0.000 C 
ATOM      6  O   UNL     1       0.935  15.336  22.815  0.00  0.00    +0.000 OA
ATOM      7  C   UNL     1      -1.936  13.053  21.761  0.00  0.00    +0.000 C 
ATOM      8  C   UNL     1      -3.230  13.950  21.467  0.00  0.00    +0.000 C 
ENDROOT
BRANCH   5   9
ATOM      9  C   UNL     1       0.810  14.209  20.748  0.00  0.00    +0.000 C 
ATOM     10  C   UNL     1       2.128  13.462  20.687  0.00  0.00    +0.000 C 
ATOM     11  C   UNL     1       3.328  14.077  20.032  0.00  0.00    +0.000 C 
ATOM     12  S   UNL     1       3.115  15.566  19.101  0.00  0.00    +0.000 S 
ATOM     13  O   UNL     1       4.178  16.483  19.498  0.00  0.00    +0.000 OA
ATOM     14  O   UNL     1       2.953  15.181  17.712  0.00  0.00    +0.000 OA
ATOM     15  C   UNL     1       1.605  16.320  19.594  0.00  0.00    +0.000 C 
ATOM     16  C   UNL     1       0.491  15.336  19.796  0.00  0.00    +0.000 C 
ENDBRANCH   5   9
BRANCH   1  21
ATOM     17  C   UNL     1      -7.127  13.780  23.739  0.00  0.00    +0.000 A 
ATOM     18  C   UNL     1      -7.745  15.028  23.805  0.00  0.00    +0.000 A 
ATOM     19  C   UNL     1      -7.018  16.178  23.505  0.00  0.00    +0.000 A 
ATOM     20  C   UNL     1      -5.672  16.071  23.123  0.00  0.00    +0.000 A 
ATOM     21  C   UNL     1      -5.034  14.822  23.010  0.00  0.00    +0.000 A 
ATOM     22  C   UNL     1      -5.789  13.693  23.337  0.00  0.00    +0.000 A 
BRANCH  17  24
ATOM     23  C   UNL     1      -7.863  11.584  23.228  0.00  0.00    +0.000 C 
ATOM     24  O   UNL     1      -7.916  12.713  24.096  0.00  0.00    +0.000 OA
ENDBRANCH  17  24
ENDBRANCH   1  21
BRANCH   7  25
ATOM     25  C   UNL     1      -1.450  12.052  20.624  0.00  0.00    +0.000 A 
ATOM     26  C   UNL     1      -0.603  10.937  20.898  0.00  0.00    +0.000 A 
ATOM     27  C   UNL     1       0.036  10.193  19.876  0.00  0.00    +0.000 A 
ATOM     28  C   UNL     1      -0.339  10.358  18.553  0.00  0.00    +0.000 A 
ATOM     29  C   UNL     1      -1.301  11.312  18.257  0.00  0.00    +0.000 A 
ATOM     30  C   UNL     1      -1.825  12.168  19.266  0.00  0.00    +0.000 A 
ENDBRANCH   7  25
TORSDOF 4
ENDMDL
MODEL 9
REMARK VINA RESULT:      -6.0      3.622      8.429
REMARK  Name = 
REMARK  5 active torsions:
REMARK  status: ('A' for Active; 'I' for Inactive)
REMARK    1  A    between atoms: C_1  and  O_2
REMARK    2  A    between atoms: O_2  and  C_3
REMARK    3  A    between atoms: C_7  and  N_8
REMARK    4  A    between atoms: C_12  and  C_14
REMARK    5  A    between atoms: C_22  and  C_23
REMARK                            x       y       z     vdW  Elec       q    Type
REMARK                         _______ _______ _______ _____ _____    ______ ____
ROOT
ATOM      1  N   UNL     1      -3.630  14.031  22.985  0.00  0.00    +0.000 N 
ATOM      2  C   UNL     1      -2.707  14.983  23.603  0.00  0.00    +0.000 C 
ATOM      3  C   UNL     1      -1.388  14.240  23.902  0.00  0.00    +0.000 C 
ATOM      4  N   UNL     1      -0.789  13.649  22.673  0.00  0.00    +0.000 N 
ATOM      5  C   UNL     1       0.316  14.380  22.203  0.00  0.00    +0.000 C 
ATOM      6  O   UNL     1       0.886  15.241  22.873  0.00  0.00    +0.000 OA
ATOM      7  C   UNL     1      -1.744  12.633  21.953  0.00  0.00    +0.000 C 
ATOM      8  C   UNL     1      -3.149  13.369  21.734  0.00  0.00    +0.000 C 
ENDROOT
BRANCH   5   9
ATOM      9  C   UNL     1       0.787  14.109  20.806  0.00  0.00    +0.000 C 
ATOM     10  C   UNL     1       2.155  13.470  20.672  0.00  0.00    +0.000 C 
ATOM     11  C   UNL     1       3.273  14.188  19.979  0.00  0.00    +0.000 C 
ATOM     12  S   UNL     1       2.904  15.673  19.090  0.00  0.00    +0.000 S 
ATOM     13  O   UNL     1       3.909  16.662  19.460  0.00  0.00    +0.000 OA
ATOM     14  O   UNL     1       2.710  15.300  17.701  0.00  0.00    +0.000 OA
ATOM     15  C   UNL     1       1.364  16.297  19.663  0.00  0.00    +0.000 C 
ATOM     16  C   UNL     1       0.339  15.225  19.892  0.00  0.00    +0.000 C 
ENDBRANCH   5   9
BRANCH   1  21
ATOM     17  C   UNL     1      -7.084  15.222  23.576  0.00  0.00    +0.000 A 
ATOM     18  C   UNL     1      -7.717  14.064  24.027  0.00  0.00    +0.000 A 
ATOM     19  C   UNL     1      -6.996  12.877  24.132  0.00  0.00    +0.000 A 
ATOM     20  C   UNL     1      -5.634  12.856  23.798  0.00  0.00    +0.000 A 
ATOM     21  C   UNL     1      -4.960  14.017  23.377  0.00  0.00    +0.000 A 
ATOM     22  C   UNL     1      -5.719  15.185  23.265  0.00  0.00    +0.000 A 
BRANCH  17  24
ATOM     23  C   UNL     1      -7.219  17.567  23.246  0.00  0.00    +0.000 C 
ATOM     24  O   UNL     1      -7.890  16.329  23.465  0.00  0.00    +0.000 OA
ENDBRANCH  17  24
ENDBRANCH   1  21
BRANCH   7  25
ATOM     25  C   UNL     1      -1.203  11.698  20.784  0.00  0.00    +0.000 A 
ATOM     26  C   UNL     1      -0.270  10.645  21.018  0.00  0.00    +0.000 A 
ATOM     27  C   UNL     1       0.406   9.976  19.968  0.00  0.00    +0.000 A 
ATOM     28  C   UNL     1      -0.003  10.143  18.655  0.00  0.00    +0.000 A 
ATOM     29  C   UNL     1      -1.039  11.027  18.398  0.00  0.00    +0.000 A 
ATOM     30  C   UNL     1      -1.609  11.817  19.436  0.00  0.00    +0.000 A 
ENDBRANCH   7  25
TORSDOF 4
ENDMDL
