MODEL 1
REMARK VINA RESULT:      -6.1      0.000      0.000
REMARK  Name = 
REMARK  5 active torsions:
REMARK  status: ('A' for Active; 'I' for Inactive)
REMARK    1  A    between atoms: C_1  and  C_2
REMARK    2  A    between atoms: CA_4  and  C_5
REMARK    3  A    between atoms: C_5  and  OXT_7
REMARK    4  A    between atoms: C_9  and  N_10
REMARK    5  A    between atoms: C_13  and  C_14
REMARK                            x       y       z     vdW  Elec       q    Type
REMARK                         _______ _______ _______ _____ _____    ______ ____
ROOT
ATOM      1  C   UNL     1       7.738   6.667  18.235  0.00  0.00    +0.000 C 
ATOM      2  C   UNL     1       6.880   5.786  17.367  0.00  0.00    +0.000 A 
ATOM      3  N   UNL     1       7.291   5.655  16.079  0.00  0.00    +0.000 NA
ATOM      4  CA  UNL     1       6.554   4.862  15.252  0.00  0.00    +0.000 A 
ATOM      5  C   UNL     1       5.421   4.185  15.637  0.00  0.00    +0.000 A 
ATOM      6  C   UNL     1       5.024   4.346  16.963  0.00  0.00    +0.000 A 
ATOM      7  C   UNL     1       5.740   5.147  17.874  0.00  0.00    +0.000 A 
ATOM      8  C   UNL     1       5.356   5.324  19.318  0.00  0.00    +0.000 C 
ENDROOT
BRANCH   6   9
ATOM      9  N   UNL     1       3.820   3.639  17.363  0.00  0.00    +0.000 N 
ATOM     10  O   UNL     1       2.763   4.280  17.340  0.00  0.00    +0.000 OA
ATOM     11  O   UNL     1       3.949   2.462  17.722  0.00  0.00    +0.000 OA
ENDBRANCH   6   9
BRANCH   4  12
ATOM     12  C   UNL     1       7.052   4.762  13.850  0.00  0.00    +0.000 C 
ATOM     13  O   UNL     1       6.610   4.001  13.009  0.00  0.00    +0.000 OA
BRANCH  12  14
ATOM     14  OXT UNL     1       8.061   5.641  13.642  0.00  0.00    +0.000 OA
ATOM     15  HXT UNL     1       7.699   6.444  13.199  0.00  0.00    +0.000 HD
ENDBRANCH  12  14
ENDBRANCH   4  12
TORSDOF 3
ENDMDL
MODEL 2
REMARK VINA RESULT:      -5.9      0.535      1.303
REMARK  Name = 
REMARK  5 active torsions:
REMARK  status: ('A' for Active; 'I' for Inactive)
REMARK    1  A    between atoms: C_1  and  C_2
REMARK    2  A    between atoms: CA_4  and  C_5
REMARK    3  A    between atoms: C_5  and  OXT_7
REMARK    4  A    between atoms: C_9  and  N_10
REMARK    5  A    between atoms: C_13  and  C_14
REMARK                            x       y       z     vdW  Elec       q    Type
REMARK                         _______ _______ _______ _____ _____    ______ ____
ROOT
ATOM      1  C   UNL     1       7.783   5.844  18.792  0.00  0.00    +0.000 C 
ATOM      2  C   UNL     1       6.850   5.216  17.791  0.00  0.00    +0.000 A 
ATOM      3  N   UNL     1       7.297   5.196  16.508  0.00  0.00    +0.000 NA
ATOM      4  CA  UNL     1       6.495   4.632  15.562  0.00  0.00    +0.000 A 
ATOM      5  C   UNL     1       5.262   4.080  15.822  0.00  0.00    +0.000 A 
ATOM      6  C   UNL     1       4.833   4.122  17.146  0.00  0.00    +0.000 A 
ATOM      7  C   UNL     1       5.611   4.686  18.176  0.00  0.00    +0.000 A 
ATOM      8  C   UNL     1       5.191   4.727  19.620  0.00  0.00    +0.000 C 
ENDROOT
BRANCH   6   9
ATOM      9  N   UNL     1       3.525   3.549  17.416  0.00  0.00    +0.000 N 
ATOM     10  O   UNL     1       3.483   2.332  17.630  0.00  0.00    +0.000 OA
ATOM     11  O   UNL     1       2.555   4.315  17.381  0.00  0.00    +0.000 OA
ENDBRANCH   6   9
BRANCH   4  12
ATOM     12  C   UNL     1       7.037   4.646  14.173  0.00  0.00    +0.000 C 
ATOM     13  O   UNL     1       7.812   5.478  13.738  0.00  0.00    +0.000 OA
BRANCH  12  14
ATOM     14  OXT UNL     1       6.549   3.600  13.464  0.00  0.00    +0.000 OA
ATOM     15  HXT UNL     1       6.504   3.852  12.512  0.00  0.00    +0.000 HD
ENDBRANCH  12  14
ENDBRANCH   4  12
TORSDOF 3
ENDMDL
MODEL 3
REMARK VINA RESULT:      -5.9      2.365      3.087
REMARK  Name = 
REMARK  5 active torsions:
REMARK  status: ('A' for Active; 'I' for Inactive)
REMARK    1  A    between atoms: C_1  and  C_2
REMARK    2  A    between atoms: CA_4  and  C_5
REMARK    3  A    between atoms: C_5  and  OXT_7
REMARK    4  A    between atoms: C_9  and  N_10
REMARK    5  A    between atoms: C_13  and  C_14
REMARK                            x       y       z     vdW  Elec       q    Type
REMARK                         _______ _______ _______ _____ _____    ______ ____
ROOT
ATOM      1  C   UNL     1       2.852   7.376  18.074  0.00  0.00    +0.000 C 
ATOM      2  C   UNL     1       3.744   6.164  18.042  0.00  0.00    +0.000 A 
ATOM      3  N   UNL     1       4.982   6.364  17.520  0.00  0.00    +0.000 NA
ATOM      4  CA  UNL     1       5.834   5.301  17.474  0.00  0.00    +0.000 A 
ATOM      5  C   UNL     1       5.521   4.039  17.924  0.00  0.00    +0.000 A 
ATOM      6  C   UNL     1       4.242   3.869  18.448  0.00  0.00    +0.000 A 
ATOM      7  C   UNL     1       3.312   4.923  18.529  0.00  0.00    +0.000 A 
ATOM      8  C   UNL     1       1.931   4.782  19.112  0.00  0.00    +0.000 C 
ENDROOT
BRANCH   6   9
ATOM      9  N   UNL     1       3.911   2.532  18.911  0.00  0.00    +0.000 N 
ATOM     10  O   UNL     1       3.378   1.774  18.092  0.00  0.00    +0.000 OA
ATOM     11  O   UNL     1       4.161   2.265  20.093  0.00  0.00    +0.000 OA
ENDBRANCH   6   9
BRANCH   4  12
ATOM     12  C   UNL     1       7.175   5.581  16.886  0.00  0.00    +0.000 C 
ATOM     13  O   UNL     1       7.535   6.664  16.462  0.00  0.00    +0.000 OA
BRANCH  12  14
ATOM     14  OXT UNL     1       7.939   4.462  16.893  0.00  0.00    +0.000 OA
ATOM     15  HXT UNL     1       8.861   4.707  17.139  0.00  0.00    +0.000 HD
ENDBRANCH  12  14
ENDBRANCH   4  12
TORSDOF 3
ENDMDL
MODEL 4
REMARK VINA RESULT:      -5.8      1.139      1.500
REMARK  Name = 
REMARK  5 active torsions:
REMARK  status: ('A' for Active; 'I' for Inactive)
REMARK    1  A    between atoms: C_1  and  C_2
REMARK    2  A    between atoms: CA_4  and  C_5
REMARK    3  A    between atoms: C_5  and  OXT_7
REMARK    4  A    between atoms: C_9  and  N_10
REMARK    5  A    between atoms: C_13  and  C_14
REMARK                            x       y       z     vdW  Elec       q    Type
REMARK                         _______ _______ _______ _____ _____    ______ ____
ROOT
ATOM      1  C   UNL     1       6.810   5.525  19.364  0.00  0.00    +0.000 C 
ATOM      2  C   UNL     1       6.046   4.904  18.226  0.00  0.00    +0.000 A 
ATOM      3  N   UNL     1       6.666   4.942  17.017  0.00  0.00    +0.000 NA
ATOM      4  CA  UNL     1       6.021   4.387  15.953  0.00  0.00    +0.000 A 
ATOM      5  C   UNL     1       4.784   3.789  16.023  0.00  0.00    +0.000 A 
ATOM      6  C   UNL     1       4.176   3.773  17.276  0.00  0.00    +0.000 A 
ATOM      7  C   UNL     1       4.785   4.324  18.419  0.00  0.00    +0.000 A 
ATOM      8  C   UNL     1       4.169   4.303  19.792  0.00  0.00    +0.000 C 
ENDROOT
BRANCH   6   9
ATOM      9  N   UNL     1       2.864   3.152  17.344  0.00  0.00    +0.000 N 
ATOM     10  O   UNL     1       1.887   3.891  17.172  0.00  0.00    +0.000 OA
ATOM     11  O   UNL     1       2.824   1.942  17.597  0.00  0.00    +0.000 OA
ENDBRANCH   6   9
BRANCH   4  12
ATOM     12  C   UNL     1       6.748   4.464  14.653  0.00  0.00    +0.000 C 
ATOM     13  O   UNL     1       7.564   5.320  14.364  0.00  0.00    +0.000 OA
BRANCH  12  14
ATOM     14  OXT UNL     1       6.376   3.446  13.840  0.00  0.00    +0.000 OA
ATOM     15  HXT UNL     1       7.136   2.827  13.736  0.00  0.00    +0.000 HD
ENDBRANCH  12  14
ENDBRANCH   4  12
TORSDOF 3
ENDMDL
MODEL 5
REMARK VINA RESULT:      -5.8      2.055      4.532
REMARK  Name = 
REMARK  5 active torsions:
REMARK  status: ('A' for Active; 'I' for Inactive)
REMARK    1  A    between atoms: C_1  and  C_2
REMARK    2  A    between atoms: CA_4  and  C_5
REMARK    3  A    between atoms: C_5  and  OXT_7
REMARK    4  A    between atoms: C_9  and  N_10
REMARK    5  A    between atoms: C_13  and  C_14
REMARK                            x       y       z     vdW  Elec       q    Type
REMARK                         _______ _______ _______ _____ _____    ______ ____
ROOT
ATOM      1  C   UNL     1       3.236   7.323  17.969  0.00  0.00    +0.000 C 
ATOM      2  C   UNL     1       3.956   6.036  17.668  0.00  0.00    +0.000 A 
ATOM      3  N   UNL     1       3.225   4.904  17.837  0.00  0.00    +0.000 NA
ATOM      4  CA  UNL     1       3.827   3.711  17.571  0.00  0.00    +0.000 A 
ATOM      5  C   UNL     1       5.126   3.578  17.140  0.00  0.00    +0.000 A 
ATOM      6  C   UNL     1       5.848   4.759  16.982  0.00  0.00    +0.000 A 
ATOM      7  C   UNL     1       5.290   6.027  17.236  0.00  0.00    +0.000 A 
ATOM      8  C   UNL     1       6.031   7.323  17.053  0.00  0.00    +0.000 C 
ENDROOT
BRANCH   6   9
ATOM      9  N   UNL     1       7.224   4.616  16.539  0.00  0.00    +0.000 N 
ATOM     10  O   UNL     1       8.065   4.349  17.405  0.00  0.00    +0.000 OA
ATOM     11  O   UNL     1       7.453   4.800  15.337  0.00  0.00    +0.000 OA
ENDBRANCH   6   9
BRANCH   4  12
ATOM     12  C   UNL     1       2.976   2.504  17.780  0.00  0.00    +0.000 C 
ATOM     13  O   UNL     1       3.393   1.411  18.117  0.00  0.00    +0.000 OA
BRANCH  12  14
ATOM     14  OXT UNL     1       1.674   2.796  17.549  0.00  0.00    +0.000 OA
ATOM     15  HXT UNL     1       1.223   2.952  18.411  0.00  0.00    +0.000 HD
ENDBRANCH  12  14
ENDBRANCH   4  12
TORSDOF 3
ENDMDL
MODEL 6
REMARK VINA RESULT:      -5.8      2.779      3.968
REMARK  Name = 
REMARK  5 active torsions:
REMARK  status: ('A' for Active; 'I' for Inactive)
REMARK    1  A    between atoms: C_1  and  C_2
REMARK    2  A    between atoms: CA_4  and  C_5
REMARK    3  A    between atoms: C_5  and  OXT_7
REMARK    4  A    between atoms: C_9  and  N_10
REMARK    5  A    between atoms: C_13  and  C_14
REMARK                            x       y       z     vdW  Elec       q    Type
REMARK                         _______ _______ _______ _____ _____    ______ ____
ROOT
ATOM      1  C   UNL     1       5.459   4.017  15.380  0.00  0.00    +0.000 C 
ATOM      2  C   UNL     1       5.365   4.368  16.840  0.00  0.00    +0.000 A 
ATOM      3  N   UNL     1       6.461   4.973  17.368  0.00  0.00    +0.000 NA
ATOM      4  CA  UNL     1       6.425   5.319  18.685  0.00  0.00    +0.000 A 
ATOM      5  C   UNL     1       5.352   5.096  19.516  0.00  0.00    +0.000 A 
ATOM      6  C   UNL     1       4.248   4.469  18.943  0.00  0.00    +0.000 A 
ATOM      7  C   UNL     1       4.213   4.087  17.589  0.00  0.00    +0.000 A 
ATOM      8  C   UNL     1       3.029   3.431  16.931  0.00  0.00    +0.000 C 
ENDROOT
BRANCH   6   9
ATOM      9  N   UNL     1       3.120   4.224  19.826  0.00  0.00    +0.000 N 
ATOM     10  O   UNL     1       2.294   5.137  19.943  0.00  0.00    +0.000 OA
ATOM     11  O   UNL     1       3.088   3.136  20.413  0.00  0.00    +0.000 OA
ENDBRANCH   6   9
BRANCH   4  12
ATOM     12  C   UNL     1       7.659   5.975  19.208  0.00  0.00    +0.000 C 
ATOM     13  O   UNL     1       8.240   6.896  18.663  0.00  0.00    +0.000 OA
BRANCH  12  14
ATOM     14  OXT UNL     1       8.040   5.405  20.376  0.00  0.00    +0.000 OA
ATOM     15  HXT UNL     1       7.682   4.487  20.415  0.00  0.00    +0.000 HD
ENDBRANCH  12  14
ENDBRANCH   4  12
TORSDOF 3
ENDMDL
MODEL 7
REMARK VINA RESULT:      -5.8      2.252      2.854
REMARK  Name = 
REMARK  5 active torsions:
REMARK  status: ('A' for Active; 'I' for Inactive)
REMARK    1  A    between atoms: C_1  and  C_2
REMARK    2  A    between atoms: CA_4  and  C_5
REMARK    3  A    between atoms: C_5  and  OXT_7
REMARK    4  A    between atoms: C_9  and  N_10
REMARK    5  A    between atoms: C_13  and  C_14
REMARK                            x       y       z     vdW  Elec       q    Type
REMARK                         _______ _______ _______ _____ _____    ______ ____
ROOT
ATOM      1  C   UNL     1       2.876   7.412  18.029  0.00  0.00    +0.000 C 
ATOM      2  C   UNL     1       3.776   6.208  17.950  0.00  0.00    +0.000 A 
ATOM      3  N   UNL     1       4.909   6.373  17.220  0.00  0.00    +0.000 NA
ATOM      4  CA  UNL     1       5.764   5.316  17.123  0.00  0.00    +0.000 A 
ATOM      5  C   UNL     1       5.553   4.093  17.716  0.00  0.00    +0.000 A 
ATOM      6  C   UNL     1       4.378   3.957  18.452  0.00  0.00    +0.000 A 
ATOM      7  C   UNL     1       3.452   5.008  18.598  0.00  0.00    +0.000 A 
ATOM      8  C   UNL     1       2.186   4.906  19.405  0.00  0.00    +0.000 C 
ENDROOT
BRANCH   6   9
ATOM      9  N   UNL     1       4.153   2.661  19.068  0.00  0.00    +0.000 N 
ATOM     10  O   UNL     1       4.745   2.437  20.130  0.00  0.00    +0.000 OA
ATOM     11  O   UNL     1       3.410   1.873  18.469  0.00  0.00    +0.000 OA
ENDBRANCH   6   9
BRANCH   4  12
ATOM     12  C   UNL     1       6.988   5.555  16.305  0.00  0.00    +0.000 C 
ATOM     13  O   UNL     1       7.449   4.768  15.499  0.00  0.00    +0.000 OA
BRANCH  12  14
ATOM     14  OXT UNL     1       7.510   6.774  16.580  0.00  0.00    +0.000 OA
ATOM     15  HXT UNL     1       7.793   6.795  17.524  0.00  0.00    +0.000 HD
ENDBRANCH  12  14
ENDBRANCH   4  12
TORSDOF 3
ENDMDL
MODEL 8
REMARK VINA RESULT:      -5.8      3.171      5.920
REMARK  Name = 
REMARK  5 active torsions:
REMARK  status: ('A' for Active; 'I' for Inactive)
REMARK    1  A    between atoms: C_1  and  C_2
REMARK    2  A    between atoms: CA_4  and  C_5
REMARK    3  A    between atoms: C_5  and  OXT_7
REMARK    4  A    between atoms: C_9  and  N_10
REMARK    5  A    between atoms: C_13  and  C_14
REMARK                            x       y       z     vdW  Elec       q    Type
REMARK                         _______ _______ _______ _____ _____    ______ ____
ROOT
ATOM      1  C   UNL     1       2.121   7.755  19.094  0.00  0.00    +0.000 C 
ATOM      2  C   UNL     1       2.731   6.383  19.198  0.00  0.00    +0.000 A 
ATOM      3  N   UNL     1       2.134   5.544  20.085  0.00  0.00    +0.000 NA
ATOM      4  CA  UNL     1       2.642   4.286  20.213  0.00  0.00    +0.000 A 
ATOM      5  C   UNL     1       3.719   3.810  19.502  0.00  0.00    +0.000 A 
ATOM      6  C   UNL     1       4.309   4.698  18.606  0.00  0.00    +0.000 A 
ATOM      7  C   UNL     1       3.836   6.011  18.420  0.00  0.00    +0.000 A 
ATOM      8  C   UNL     1       4.432   6.989  17.444  0.00  0.00    +0.000 C 
ENDROOT
BRANCH   6   9
ATOM      9  N   UNL     1       5.454   4.196  17.865  0.00  0.00    +0.000 N 
ATOM     10  O   UNL     1       6.561   4.310  18.404  0.00  0.00    +0.000 OA
ATOM     11  O   UNL     1       5.237   3.721  16.744  0.00  0.00    +0.000 OA
ENDBRANCH   6   9
BRANCH   4  12
ATOM     12  C   UNL     1       1.949   3.414  21.205  0.00  0.00    +0.000 C 
ATOM     13  O   UNL     1       2.459   2.976  22.220  0.00  0.00    +0.000 OA
BRANCH  12  14
ATOM     14  OXT UNL     1       0.671   3.182  20.821  0.00  0.00    +0.000 OA
ATOM     15  HXT UNL     1       0.077   3.306  21.597  0.00  0.00    +0.000 HD
ENDBRANCH  12  14
ENDBRANCH   4  12
TORSDOF 3
ENDMDL
MODEL 9
REMARK VINA RESULT:      -5.8      1.942      2.282
REMARK  Name = 
REMARK  5 active torsions:
REMARK  status: ('A' for Active; 'I' for Inactive)
REMARK    1  A    between atoms: C_1  and  C_2
REMARK    2  A    between atoms: CA_4  and  C_5
REMARK    3  A    between atoms: C_5  and  OXT_7
REMARK    4  A    between atoms: C_9  and  N_10
REMARK    5  A    between atoms: C_13  and  C_14
REMARK                            x       y       z     vdW  Elec       q    Type
REMARK                         _______ _______ _______ _____ _____    ______ ____
ROOT
ATOM      1  C   UNL     1       3.452   7.616  17.799  0.00  0.00    +0.000 C 
ATOM      2  C   UNL     1       3.906   6.234  17.414  0.00  0.00    +0.000 A 
ATOM      3  N   UNL     1       4.956   6.182  16.553  0.00  0.00    +0.000 NA
ATOM      4  CA  UNL     1       5.412   4.954  16.177  0.00  0.00    +0.000 A 
ATOM      5  C   UNL     1       4.880   3.764  16.614  0.00  0.00    +0.000 A 
ATOM      6  C   UNL     1       3.802   3.854  17.492  0.00  0.00    +0.000 A 
ATOM      7  C   UNL     1       3.280   5.088  17.925  0.00  0.00    +0.000 A 
ATOM      8  C   UNL     1       2.134   5.223  18.890  0.00  0.00    +0.000 C 
ENDROOT
BRANCH   6   9
ATOM      9  N   UNL     1       3.234   2.594  17.942  0.00  0.00    +0.000 N 
ATOM     10  O   UNL     1       2.255   2.169  17.318  0.00  0.00    +0.000 OA
ATOM     11  O   UNL     1       3.754   2.061  18.930  0.00  0.00    +0.000 OA
ENDBRANCH   6   9
BRANCH   4  12
ATOM     12  C   UNL     1       6.562   4.962  15.227  0.00  0.00    +0.000 C 
ATOM     13  O   UNL     1       6.634   4.282  14.220  0.00  0.00    +0.000 OA
BRANCH  12  14
ATOM     14  OXT UNL     1       7.511   5.836  15.639  0.00  0.00    +0.000 OA
ATOM     15  HXT UNL     1       7.443   6.659  15.101  0.00  0.00    +0.000 HD
ENDBRANCH  12  14
ENDBRANCH   4  12
TORSDOF 3
ENDMDL
